MODEL        1
REMARK 921   NORMALIZED FREE ENERGY PREDICTED BY IDOCK:   -7.85 KCAL/MOL
REMARK 922        TOTAL FREE ENERGY PREDICTED BY IDOCK:  -13.28 KCAL/MOL
REMARK 923 INTER-LIGAND FREE ENERGY PREDICTED BY IDOCK:  -11.52 KCAL/MOL
REMARK 924 INTRA-LIGAND FREE ENERGY PREDICTED BY IDOCK:   -1.75 KCAL/MOL
REMARK 927      BINDING AFFINITY PREDICTED BY RF-SCORE:    0.00 PKD
ROOT
HETATM    1  C   UNL     1      -9.651  11.285  62.904  1.00  0.00    -0.352 C  
HETATM    2  O   UNL     1     -10.775  12.083  63.253  1.00  0.00    -0.408 OA 
ENDROOT
BRANCH   2   3
HETATM    3  C   UNL     1     -10.883  12.454  64.563  1.00  0.00    -0.321 A  
HETATM    4  C   UNL     1     -10.064  12.035  65.609  1.00  0.00    -0.272 A  
HETATM    5  C   UNL     1     -10.305  12.468  66.922  1.00  0.00    -0.242 A  
HETATM    6  C   UNL     1     -11.362  13.339  67.222  1.00  0.00    -0.347 A  
HETATM    7  C   UNL     1     -11.924  13.333  64.842  1.00  0.00    -0.417 A  
HETATM    8  C   UNL     1     -12.162  13.777  66.152  1.00  0.00    -0.499 A  
BRANCH   6   9
HETATM    9  C   UNL     1     -11.651  13.729  68.626  1.00  0.00    -0.334 A  
HETATM   10  C   UNL     1     -12.266  13.032  69.661  1.00  0.00    -0.158 A  
HETATM   11  C   UNL     1     -12.461  13.831  70.862  1.00  0.00    -0.451 A  
HETATM   12  C   UNL     1     -13.098  14.515  73.137  1.00  0.00    -0.553 A  
HETATM   13  C   UNL     1     -11.873  15.090  70.713  1.00  0.00    -0.320 A  
HETATM   14  H   UNL     1     -12.852  16.375  74.837  1.00  0.00     0.000 HD 
HETATM   15  C   UNL     1     -13.083  13.563  72.112  1.00  0.00    -0.487 A  
HETATM   16  S   UNL     1     -11.246  15.317  69.138  1.00  0.00    -0.301 SA 
HETATM   17  C   UNL     1     -11.828  16.035  71.761  1.00  0.00    -0.599 A  
HETATM   18  C   UNL     1     -12.447  15.721  72.963  1.00  0.00    -0.472 A  
HETATM   19  O   UNL     1     -12.428  16.590  74.015  1.00  0.00    -0.583 OA 
BRANCH  10  20
HETATM   20  O   UNL     1     -12.534  11.703  69.507  1.00  0.00    -0.132 OA 
BRANCH  20  21
HETATM   21  C   UNL     1     -12.151  10.726  70.394  1.00  0.00    -0.354 A  
HETATM   22  C   UNL     1     -11.239   8.665  72.078  1.00  0.00    -0.364 A  
HETATM   23  C   UNL     1     -10.345   9.332  71.235  1.00  0.00    -0.397 A  
HETATM   24  C   UNL     1     -13.042  10.053  71.220  1.00  0.00    -0.493 A  
HETATM   25  C   UNL     1     -10.800  10.361  70.398  1.00  0.00    -0.257 A  
HETATM   26  C   UNL     1     -12.584   9.063  72.082  1.00  0.00    -0.461 A  
BRANCH  22  27
HETATM   27  O   UNL     1     -10.733   7.632  72.839  1.00  0.00    -0.305 OA 
BRANCH  27  28
HETATM   28  C   UNL     1     -11.112   6.340  72.342  1.00  0.00    -0.270 C  
BRANCH  28  29
HETATM   29  C   UNL     1     -10.075   5.708  71.409  1.00  0.00    -0.200 C  
BRANCH  29  30
HETATM   30  N   UNL     1     -10.705   5.235  70.155  1.00  0.00    -0.233 NA 
HETATM   31  C   UNL     1     -11.231   6.296  69.280  1.00  0.00    -0.389 C  
HETATM   32  C   UNL     1     -10.158   7.100  68.542  1.00  0.00    -0.177 C  
HETATM   33  C   UNL     1      -9.158   6.197  67.827  1.00  0.00    -0.117 C  
HETATM   34  C   UNL     1      -8.657   5.079  68.735  1.00  0.00    -0.090 C  
HETATM   35  C   UNL     1      -9.822   4.344  69.396  1.00  0.00    -0.168 C  
ENDBRANCH  29  30
ENDBRANCH  28  29
ENDBRANCH  27  28
ENDBRANCH  22  27
ENDBRANCH  20  21
ENDBRANCH  10  20
ENDBRANCH   6   9
ENDBRANCH   2   3
TORSDOF 8
ENDMDL
MODEL        2
REMARK 921   NORMALIZED FREE ENERGY PREDICTED BY IDOCK:   -7.79 KCAL/MOL
REMARK 922        TOTAL FREE ENERGY PREDICTED BY IDOCK:  -13.19 KCAL/MOL
REMARK 923 INTER-LIGAND FREE ENERGY PREDICTED BY IDOCK:  -11.42 KCAL/MOL
REMARK 924 INTRA-LIGAND FREE ENERGY PREDICTED BY IDOCK:   -1.76 KCAL/MOL
REMARK 927      BINDING AFFINITY PREDICTED BY RF-SCORE:    0.00 PKD
ROOT
HETATM    1  C   UNL     1     -13.410  15.245  73.076  1.00  0.00    -0.506 C  
HETATM    2  O   UNL     1     -14.022  13.995  72.780  1.00  0.00    -0.669 OA 
ENDROOT
BRANCH   2   3
HETATM    3  C   UNL     1     -13.358  13.175  71.914  1.00  0.00    -0.455 A  
HETATM    4  C   UNL     1     -13.260  11.788  72.001  1.00  0.00    -0.460 A  
HETATM    5  C   UNL     1     -12.514  11.064  71.057  1.00  0.00    -0.512 A  
HETATM    6  C   UNL     1     -11.859  11.706  69.997  1.00  0.00    -0.435 A  
HETATM    7  C   UNL     1     -12.728  13.823  70.856  1.00  0.00    -0.394 A  
HETATM    8  C   UNL     1     -11.991  13.102  69.904  1.00  0.00    -0.387 A  
BRANCH   6   9
HETATM    9  C   UNL     1     -11.013  10.935  69.049  1.00  0.00    -0.235 A  
HETATM   10  C   UNL     1     -11.112  10.753  67.673  1.00  0.00    -0.319 A  
HETATM   11  C   UNL     1     -10.135   9.815  67.141  1.00  0.00    -0.267 A  
HETATM   12  C   UNL     1      -8.850   8.412  65.583  1.00  0.00    -0.196 A  
HETATM   13  C   UNL     1      -9.254   9.404  68.144  1.00  0.00    -0.130 A  
HETATM   14  H   UNL     1      -6.787   6.955  65.398  1.00  0.00     0.000 HD 
HETATM   15  C   UNL     1      -9.908   9.291  65.838  1.00  0.00    -0.335 A  
HETATM   16  S   UNL     1      -9.694  10.030  69.673  1.00  0.00    -0.215 SA 
HETATM   17  C   UNL     1      -8.146   8.568  67.884  1.00  0.00    -0.115 A  
HETATM   18  C   UNL     1      -7.967   8.087  66.593  1.00  0.00    -0.102 A  
HETATM   19  O   UNL     1      -6.910   7.284  66.281  1.00  0.00    -0.055 OA 
BRANCH  10  20
HETATM   20  O   UNL     1     -12.005  11.501  66.962  1.00  0.00    -0.556 OA 
BRANCH  20  21
HETATM   21  C   UNL     1     -11.696  12.677  66.323  1.00  0.00    -0.402 A  
HETATM   22  C   UNL     1     -10.958  15.134  65.166  1.00  0.00    -0.417 A  
HETATM   23  C   UNL     1     -10.048  14.427  65.959  1.00  0.00    -0.338 A  
HETATM   24  C   UNL     1     -12.606  13.387  65.549  1.00  0.00    -0.520 A  
HETATM   25  C   UNL     1     -10.417  13.202  66.532  1.00  0.00    -0.283 A  
HETATM   26  C   UNL     1     -12.227  14.580  64.944  1.00  0.00    -0.409 A  
BRANCH  22  27
HETATM   27  O   UNL     1     -10.546  16.354  64.673  1.00  0.00    -0.639 OA 
BRANCH  27  28
HETATM   28  C   UNL     1     -10.437  17.356  65.694  1.00  0.00    -0.165 C  
BRANCH  28  29
HETATM   29  C   UNL     1      -9.048  17.439  66.334  1.00  0.00    -0.248 C  
BRANCH  29  30
HETATM   30  N   UNL     1      -9.128  17.966  67.716  1.00  0.00    -0.255 NA 
HETATM   31  C   UNL     1     -10.449  17.851  68.355  1.00  0.00    -0.330 C  
HETATM   32  C   UNL     1     -10.827  16.431  68.780  1.00  0.00    -0.338 C  
HETATM   33  C   UNL     1      -9.725  15.767  69.599  1.00  0.00    -0.248 C  
HETATM   34  C   UNL     1      -8.358  15.933  68.944  1.00  0.00    -0.226 C  
HETATM   35  C   UNL     1      -8.094  17.395  68.585  1.00  0.00    -0.264 C  
ENDBRANCH  29  30
ENDBRANCH  28  29
ENDBRANCH  27  28
ENDBRANCH  22  27
ENDBRANCH  20  21
ENDBRANCH  10  20
ENDBRANCH   6   9
ENDBRANCH   2   3
TORSDOF 8
ENDMDL
MODEL        3
REMARK 921   NORMALIZED FREE ENERGY PREDICTED BY IDOCK:   -7.78 KCAL/MOL
REMARK 922        TOTAL FREE ENERGY PREDICTED BY IDOCK:  -13.16 KCAL/MOL
REMARK 923 INTER-LIGAND FREE ENERGY PREDICTED BY IDOCK:  -11.09 KCAL/MOL
REMARK 924 INTRA-LIGAND FREE ENERGY PREDICTED BY IDOCK:   -2.07 KCAL/MOL
REMARK 927      BINDING AFFINITY PREDICTED BY RF-SCORE:    0.00 PKD
ROOT
HETATM    1  C   UNL     1      -9.338  10.754  62.889  1.00  0.00    -0.338 C  
HETATM    2  O   UNL     1     -10.269  11.813  63.082  1.00  0.00    -0.403 OA 
ENDROOT
BRANCH   2   3
HETATM    3  C   UNL     1     -10.503  12.198  64.370  1.00  0.00    -0.317 A  
HETATM    4  C   UNL     1      -9.662  11.988  65.460  1.00  0.00    -0.221 A  
HETATM    5  C   UNL     1     -10.041  12.406  66.746  1.00  0.00    -0.226 A  
HETATM    6  C   UNL     1     -11.263  13.055  66.973  1.00  0.00    -0.325 A  
HETATM    7  C   UNL     1     -11.711  12.856  64.577  1.00  0.00    -0.416 A  
HETATM    8  C   UNL     1     -12.089  13.286  65.858  1.00  0.00    -0.493 A  
BRANCH   6   9
HETATM    9  C   UNL     1     -11.683  13.425  68.348  1.00  0.00    -0.355 A  
HETATM   10  C   UNL     1     -12.158  12.647  69.400  1.00  0.00    -0.179 A  
HETATM   11  C   UNL     1     -12.574  13.429  70.556  1.00  0.00    -0.281 A  
HETATM   12  C   UNL     1     -13.433  14.039  72.778  1.00  0.00    -0.576 A  
HETATM   13  C   UNL     1     -12.287  14.782  70.361  1.00  0.00    -0.344 A  
HETATM   14  H   UNL     1     -13.681  15.973  74.393  1.00  0.00     0.000 HD 
HETATM   15  C   UNL     1     -13.162  13.075  71.802  1.00  0.00    -0.486 A  
HETATM   16  S   UNL     1     -11.673  15.083  68.794  1.00  0.00    -0.319 SA 
HETATM   17  C   UNL     1     -12.497  15.754  71.363  1.00  0.00    -0.513 A  
HETATM   18  C   UNL     1     -13.071  15.354  72.564  1.00  0.00    -0.422 A  
HETATM   19  O   UNL     1     -13.289  16.247  73.572  1.00  0.00    -0.639 OA 
BRANCH  10  20
HETATM   20  O   UNL     1     -12.108  11.287  69.304  1.00  0.00    -0.334 OA 
BRANCH  20  21
HETATM   21  C   UNL     1     -11.244  10.491  70.014  1.00  0.00    -0.315 A  
HETATM   22  C   UNL     1      -9.400   8.800  71.302  1.00  0.00    -0.250 A  
HETATM   23  C   UNL     1      -9.039   9.472  70.131  1.00  0.00    -0.276 A  
HETATM   24  C   UNL     1     -11.609   9.810  71.170  1.00  0.00    -0.469 A  
HETATM   25  C   UNL     1      -9.958  10.316  69.492  1.00  0.00    -0.252 A  
HETATM   26  C   UNL     1     -10.684   9.007  71.828  1.00  0.00    -0.437 A  
BRANCH  22  27
HETATM   27  O   UNL     1      -8.465   7.949  71.852  1.00  0.00    -0.107 OA 
BRANCH  27  28
HETATM   28  C   UNL     1      -8.891   6.578  71.847  1.00  0.00    -0.134 C  
BRANCH  28  29
HETATM   29  C   UNL     1      -8.663   5.864  70.512  1.00  0.00    -0.140 C  
BRANCH  29  30
HETATM   30  N   UNL     1      -9.854   5.075  70.119  1.00  0.00    -0.212 NA 
HETATM   31  C   UNL     1     -11.085   5.858  69.917  1.00  0.00    -0.347 C  
HETATM   32  C   UNL     1     -11.103   6.691  68.633  1.00  0.00    -0.288 C  
HETATM   33  C   UNL     1     -10.732   5.861  67.408  1.00  0.00    -0.370 C  
HETATM   34  C   UNL     1      -9.481   5.024  67.651  1.00  0.00    -0.154 C  
HETATM   35  C   UNL     1      -9.595   4.228  68.951  1.00  0.00    -0.157 C  
ENDBRANCH  29  30
ENDBRANCH  28  29
ENDBRANCH  27  28
ENDBRANCH  22  27
ENDBRANCH  20  21
ENDBRANCH  10  20
ENDBRANCH   6   9
ENDBRANCH   2   3
TORSDOF 8
ENDMDL
MODEL        4
REMARK 921   NORMALIZED FREE ENERGY PREDICTED BY IDOCK:   -7.77 KCAL/MOL
REMARK 922        TOTAL FREE ENERGY PREDICTED BY IDOCK:  -13.16 KCAL/MOL
REMARK 923 INTER-LIGAND FREE ENERGY PREDICTED BY IDOCK:  -11.61 KCAL/MOL
REMARK 924 INTRA-LIGAND FREE ENERGY PREDICTED BY IDOCK:   -1.55 KCAL/MOL
REMARK 927      BINDING AFFINITY PREDICTED BY RF-SCORE:    0.00 PKD
ROOT
HETATM    1  C   UNL     1      -9.603  11.338  62.984  1.00  0.00    -0.377 C  
HETATM    2  O   UNL     1     -10.906  11.410  63.549  1.00  0.00    -0.391 OA 
ENDROOT
BRANCH   2   3
HETATM    3  C   UNL     1     -10.996  11.874  64.830  1.00  0.00    -0.312 A  
HETATM    4  C   UNL     1     -10.208  11.478  65.908  1.00  0.00    -0.286 A  
HETATM    5  C   UNL     1     -10.429  12.013  67.188  1.00  0.00    -0.244 A  
HETATM    6  C   UNL     1     -11.432  12.964  67.420  1.00  0.00    -0.388 A  
HETATM    7  C   UNL     1     -11.984  12.830  65.041  1.00  0.00    -0.456 A  
HETATM    8  C   UNL     1     -12.200  13.376  66.316  1.00  0.00    -0.456 A  
BRANCH   6   9
HETATM    9  C   UNL     1     -11.702  13.464  68.792  1.00  0.00    -0.340 A  
HETATM   10  C   UNL     1     -12.387  12.889  69.858  1.00  0.00    -0.088 A  
HETATM   11  C   UNL     1     -12.526  13.776  71.003  1.00  0.00    -0.458 A  
HETATM   12  C   UNL     1     -13.129  14.654  73.220  1.00  0.00    -0.505 A  
HETATM   13  C   UNL     1     -11.831  14.969  70.786  1.00  0.00    -0.320 A  
HETATM   14  H   UNL     1     -12.743  16.588  74.807  1.00  0.00     0.000 HD 
HETATM   15  C   UNL     1     -13.184  13.640  72.257  1.00  0.00    -0.565 A  
HETATM   16  S   UNL     1     -11.168  15.041  69.212  1.00  0.00    -0.305 SA 
HETATM   17  C   UNL     1     -11.716  15.970  71.775  1.00  0.00    -0.593 A  
HETATM   18  C   UNL     1     -12.375  15.786  72.984  1.00  0.00    -0.478 A  
HETATM   19  O   UNL     1     -12.292  16.714  73.980  1.00  0.00    -0.528 OA 
BRANCH  10  20
HETATM   20  O   UNL     1     -12.767  11.580  69.781  1.00  0.00    -0.012 OA 
BRANCH  20  21
HETATM   21  C   UNL     1     -12.385  10.609  70.673  1.00  0.00    -0.369 A  
HETATM   22  C   UNL     1     -11.480   8.553  72.368  1.00  0.00    -0.349 A  
HETATM   23  C   UNL     1     -10.591   9.189  71.497  1.00  0.00    -0.428 A  
HETATM   24  C   UNL     1     -13.273   9.965  71.528  1.00  0.00    -0.501 A  
HETATM   25  C   UNL     1     -11.043  10.215  70.655  1.00  0.00    -0.397 A  
HETATM   26  C   UNL     1     -12.816   8.978  72.394  1.00  0.00    -0.454 A  
BRANCH  22  27
HETATM   27  O   UNL     1     -10.979   7.520  73.133  1.00  0.00    -0.376 OA 
BRANCH  27  28
HETATM   28  C   UNL     1      -9.560   7.364  72.994  1.00  0.00    -0.194 C  
BRANCH  28  29
HETATM   29  C   UNL     1      -9.137   5.989  72.470  1.00  0.00    -0.135 C  
BRANCH  29  30
HETATM   30  N   UNL     1     -10.302   5.234  71.952  1.00  0.00    -0.210 NA 
HETATM   31  C   UNL     1     -10.535   5.358  70.504  1.00  0.00    -0.265 C  
HETATM   32  C   UNL     1      -9.539   4.589  69.633  1.00  0.00    -0.270 C  
HETATM   33  C   UNL     1      -9.392   3.137  70.078  1.00  0.00    -0.226 C  
HETATM   34  C   UNL     1      -9.195   3.027  71.586  1.00  0.00    -0.184 C  
HETATM   35  C   UNL     1     -10.261   3.821  72.340  1.00  0.00    -0.149 C  
ENDBRANCH  29  30
ENDBRANCH  28  29
ENDBRANCH  27  28
ENDBRANCH  22  27
ENDBRANCH  20  21
ENDBRANCH  10  20
ENDBRANCH   6   9
ENDBRANCH   2   3
TORSDOF 8
ENDMDL
MODEL        5
REMARK 921   NORMALIZED FREE ENERGY PREDICTED BY IDOCK:   -7.69 KCAL/MOL
REMARK 922        TOTAL FREE ENERGY PREDICTED BY IDOCK:  -13.04 KCAL/MOL
REMARK 923 INTER-LIGAND FREE ENERGY PREDICTED BY IDOCK:  -11.70 KCAL/MOL
REMARK 924 INTRA-LIGAND FREE ENERGY PREDICTED BY IDOCK:   -1.34 KCAL/MOL
REMARK 927      BINDING AFFINITY PREDICTED BY RF-SCORE:    0.00 PKD
ROOT
HETATM    1  C   UNL     1     -12.995  15.814  73.517  1.00  0.00    -0.575 C  
HETATM    2  O   UNL     1     -13.919  15.015  72.788  1.00  0.00    -0.435 OA 
ENDROOT
BRANCH   2   3
HETATM    3  C   UNL     1     -13.404  13.955  72.099  1.00  0.00    -0.463 A  
HETATM    4  C   UNL     1     -13.650  12.608  72.354  1.00  0.00    -0.435 A  
HETATM    5  C   UNL     1     -13.027  11.611  71.586  1.00  0.00    -0.483 A  
HETATM    6  C   UNL     1     -12.152  11.934  70.539  1.00  0.00    -0.422 A  
HETATM    7  C   UNL     1     -12.553  14.292  71.052  1.00  0.00    -0.428 A  
HETATM    8  C   UNL     1     -11.937  13.298  70.275  1.00  0.00    -0.372 A  
BRANCH   6   9
HETATM    9  C   UNL     1     -11.443  10.869  69.785  1.00  0.00    -0.313 A  
HETATM   10  C   UNL     1     -11.408  10.580  68.424  1.00  0.00    -0.262 A  
HETATM   11  C   UNL     1     -10.676   9.361  68.111  1.00  0.00    -0.230 A  
HETATM   12  C   UNL     1      -9.648   7.508  66.862  1.00  0.00    -0.242 A  
HETATM   13  C   UNL     1     -10.088   8.832  69.262  1.00  0.00    -0.204 A  
HETATM   14  H   UNL     1      -8.080   5.534  67.092  1.00  0.00     0.000 HD 
HETATM   15  C   UNL     1     -10.437   8.663  66.895  1.00  0.00    -0.329 A  
HETATM   16  S   UNL     1     -10.530   9.709  70.662  1.00  0.00    -0.300 SA 
HETATM   17  C   UNL     1      -9.240   7.704  69.231  1.00  0.00    -0.145 A  
HETATM   18  C   UNL     1      -9.036   7.062  68.017  1.00  0.00    -0.126 A  
HETATM   19  O   UNL     1      -8.219   5.974  67.923  1.00  0.00    -0.111 OA 
BRANCH  10  20
HETATM   20  O   UNL     1     -11.948  11.465  67.538  1.00  0.00    -0.626 OA 
BRANCH  20  21
HETATM   21  C   UNL     1     -11.322  12.605  67.099  1.00  0.00    -0.319 A  
HETATM   22  C   UNL     1     -10.181  14.964  66.074  1.00  0.00    -0.301 A  
HETATM   23  C   UNL     1     -11.570  14.837  66.167  1.00  0.00    -0.292 A  
HETATM   24  C   UNL     1      -9.941  12.725  66.992  1.00  0.00    -0.231 A  
HETATM   25  C   UNL     1     -12.137  13.662  66.680  1.00  0.00    -0.459 A  
HETATM   26  C   UNL     1      -9.377  13.906  66.523  1.00  0.00    -0.264 A  
BRANCH  22  27
HETATM   27  O   UNL     1      -9.692  16.126  65.515  1.00  0.00    -0.455 OA 
BRANCH  27  28
HETATM   28  C   UNL     1      -8.438  16.530  66.084  1.00  0.00    -0.285 C  
BRANCH  28  29
HETATM   29  C   UNL     1      -8.567  17.196  67.457  1.00  0.00    -0.203 C  
BRANCH  29  30
HETATM   30  N   UNL     1      -8.096  18.600  67.415  1.00  0.00    -0.246 NA 
HETATM   31  C   UNL     1      -8.568  19.385  66.262  1.00  0.00    -0.345 C  
HETATM   32  C   UNL     1     -10.043  19.789  66.331  1.00  0.00    -0.600 C  
HETATM   33  C   UNL     1     -10.395  20.441  67.664  1.00  0.00    -0.330 C  
HETATM   34  C   UNL     1      -9.861  19.637  68.844  1.00  0.00    -0.498 C  
HETATM   35  C   UNL     1      -8.378  19.315  68.664  1.00  0.00    -0.372 C  
ENDBRANCH  29  30
ENDBRANCH  28  29
ENDBRANCH  27  28
ENDBRANCH  22  27
ENDBRANCH  20  21
ENDBRANCH  10  20
ENDBRANCH   6   9
ENDBRANCH   2   3
TORSDOF 8
ENDMDL
MODEL        6
REMARK 921   NORMALIZED FREE ENERGY PREDICTED BY IDOCK:   -7.41 KCAL/MOL
REMARK 922        TOTAL FREE ENERGY PREDICTED BY IDOCK:  -12.63 KCAL/MOL
REMARK 923 INTER-LIGAND FREE ENERGY PREDICTED BY IDOCK:  -10.53 KCAL/MOL
REMARK 924 INTRA-LIGAND FREE ENERGY PREDICTED BY IDOCK:   -2.09 KCAL/MOL
REMARK 927      BINDING AFFINITY PREDICTED BY RF-SCORE:    0.00 PKD
ROOT
HETATM    1  C   UNL     1     -12.447   9.166  71.842  1.00  0.00    -0.387 C  
HETATM    2  O   UNL     1     -13.172  10.381  71.992  1.00  0.00    -0.456 OA 
ENDROOT
BRANCH   2   3
HETATM    3  C   UNL     1     -12.774  11.434  71.219  1.00  0.00    -0.393 A  
HETATM    4  C   UNL     1     -12.049  11.357  70.032  1.00  0.00    -0.417 A  
HETATM    5  C   UNL     1     -11.673  12.525  69.349  1.00  0.00    -0.383 A  
HETATM    6  C   UNL     1     -12.021  13.796  69.827  1.00  0.00    -0.406 A  
HETATM    7  C   UNL     1     -13.143  12.687  71.696  1.00  0.00    -0.421 A  
HETATM    8  C   UNL     1     -12.779  13.856  71.010  1.00  0.00    -0.428 A  
BRANCH   6   9
HETATM    9  C   UNL     1     -11.553  15.023  69.134  1.00  0.00    -0.310 A  
HETATM   10  C   UNL     1     -11.569  15.377  67.788  1.00  0.00    -0.228 A  
HETATM   11  C   UNL     1     -10.895  16.637  67.513  1.00  0.00    -0.221 A  
HETATM   12  C   UNL     1      -9.975  18.585  66.326  1.00  0.00    -0.384 A  
HETATM   13  C   UNL     1     -10.487  17.245  68.703  1.00  0.00    -0.356 A  
HETATM   14  H   UNL     1      -8.922  20.860  66.678  1.00  0.00     0.000 HD 
HETATM   15  C   UNL     1     -10.620  17.343  66.309  1.00  0.00    -0.194 A  
HETATM   16  S   UNL     1     -10.792  16.252  70.061  1.00  0.00    -0.287 SA 
HETATM   17  C   UNL     1      -9.893  18.525  68.736  1.00  0.00    -0.411 A  
HETATM   18  C   UNL     1      -9.650  19.174  67.532  1.00  0.00    -0.310 A  
HETATM   19  O   UNL     1      -9.088  20.416  67.502  1.00  0.00    -0.353 OA 
BRANCH  10  20
HETATM   20  O   UNL     1     -12.260  14.604  66.901  1.00  0.00    -0.311 OA 
BRANCH  20  21
HETATM   21  C   UNL     1     -11.680  13.862  65.902  1.00  0.00    -0.359 A  
HETATM   22  C   UNL     1     -10.598  12.193  63.911  1.00  0.00    -0.415 A  
HETATM   23  C   UNL     1     -11.937  12.061  64.288  1.00  0.00    -0.424 A  
HETATM   24  C   UNL     1     -10.344  13.983  65.538  1.00  0.00    -0.354 A  
HETATM   25  C   UNL     1     -12.476  12.895  65.279  1.00  0.00    -0.552 A  
HETATM   26  C   UNL     1      -9.821  13.186  64.526  1.00  0.00     0.006 A  
BRANCH  22  27
HETATM   27  O   UNL     1     -10.120  11.309  62.967  1.00  0.00    -0.324 OA 
BRANCH  27  28
HETATM   28  C   UNL     1      -8.913  10.653  63.381  1.00  0.00    -0.219 C  
BRANCH  28  29
HETATM   29  C   UNL     1      -9.145   9.289  64.039  1.00  0.00     0.038 C  
BRANCH  29  30
HETATM   30  N   UNL     1      -8.362   9.161  65.290  1.00  0.00    -0.137 NA 
HETATM   31  C   UNL     1      -8.473  10.300  66.217  1.00  0.00    -0.135 C  
HETATM   32  C   UNL     1      -9.809  10.387  66.958  1.00  0.00    -0.234 C  
HETATM   33  C   UNL     1     -10.187   9.062  67.614  1.00  0.00    -0.300 C  
HETATM   34  C   UNL     1     -10.024   7.890  66.652  1.00  0.00    -0.316 C  
HETATM   35  C   UNL     1      -8.646   7.906  65.993  1.00  0.00    -0.150 C  
ENDBRANCH  29  30
ENDBRANCH  28  29
ENDBRANCH  27  28
ENDBRANCH  22  27
ENDBRANCH  20  21
ENDBRANCH  10  20
ENDBRANCH   6   9
ENDBRANCH   2   3
TORSDOF 8
ENDMDL
MODEL        7
REMARK 921   NORMALIZED FREE ENERGY PREDICTED BY IDOCK:   -7.35 KCAL/MOL
REMARK 922        TOTAL FREE ENERGY PREDICTED BY IDOCK:  -12.54 KCAL/MOL
REMARK 923 INTER-LIGAND FREE ENERGY PREDICTED BY IDOCK:  -10.93 KCAL/MOL
REMARK 924 INTRA-LIGAND FREE ENERGY PREDICTED BY IDOCK:   -1.60 KCAL/MOL
REMARK 927      BINDING AFFINITY PREDICTED BY RF-SCORE:    0.00 PKD
ROOT
HETATM    1  C   UNL     1     -12.275  16.344  74.531  1.00  0.00    -0.341 C  
HETATM    2  O   UNL     1     -13.401  16.100  73.696  1.00  0.00    -0.651 OA 
ENDROOT
BRANCH   2   3
HETATM    3  C   UNL     1     -13.158  15.489  72.499  1.00  0.00    -0.446 A  
HETATM    4  C   UNL     1     -13.883  14.434  71.949  1.00  0.00    -0.549 A  
HETATM    5  C   UNL     1     -13.504  13.872  70.720  1.00  0.00     0.069 A  
HETATM    6  C   UNL     1     -12.400  14.357  70.004  1.00  0.00    -0.391 A  
HETATM    7  C   UNL     1     -12.071  15.993  71.792  1.00  0.00    -0.570 A  
HETATM    8  C   UNL     1     -11.696  15.441  70.557  1.00  0.00    -0.356 A  
BRANCH   6   9
HETATM    9  C   UNL     1     -11.967  13.705  68.742  1.00  0.00    -0.359 A  
HETATM   10  C   UNL     1     -11.832  12.361  68.405  1.00  0.00    -0.309 A  
HETATM   11  C   UNL     1     -11.257  12.150  67.085  1.00  0.00    -0.372 A  
HETATM   12  C   UNL     1     -10.383  11.053  65.065  1.00  0.00    -0.360 A  
HETATM   13  C   UNL     1     -11.079  13.369  66.427  1.00  0.00    -0.299 A  
HETATM   14  H   UNL     1      -9.622  11.490  62.690  1.00  0.00     0.000 HD 
HETATM   15  C   UNL     1     -10.890  10.978  66.366  1.00  0.00    -0.253 A  
HETATM   16  S   UNL     1     -11.468  14.697  67.432  1.00  0.00    -0.377 SA 
HETATM   17  C   UNL     1     -10.628  13.452  65.092  1.00  0.00    -0.353 A  
HETATM   18  C   UNL     1     -10.288  12.277  64.433  1.00  0.00    -0.331 A  
HETATM   19  O   UNL     1      -9.855  12.294  63.140  1.00  0.00    -0.373 OA 
BRANCH  10  20
HETATM   20  O   UNL     1     -12.312  11.407  69.254  1.00  0.00    -0.291 OA 
BRANCH  20  21
HETATM   21  C   UNL     1     -11.525  10.562  69.997  1.00  0.00    -0.316 A  
HETATM   22  C   UNL     1     -10.013   8.884  71.675  1.00  0.00    -0.327 A  
HETATM   23  C   UNL     1     -11.374   9.083  71.922  1.00  0.00    -0.438 A  
HETATM   24  C   UNL     1     -10.168  10.377  69.761  1.00  0.00    -0.228 A  
HETATM   25  C   UNL     1     -12.127   9.917  71.083  1.00  0.00    -0.466 A  
HETATM   26  C   UNL     1      -9.431   9.516  70.566  1.00  0.00    -0.306 A  
BRANCH  22  27
HETATM   27  O   UNL     1      -9.322   8.091  72.567  1.00  0.00    -0.177 OA 
BRANCH  27  28
HETATM   28  C   UNL     1      -9.734   6.717  72.521  1.00  0.00    -0.157 C  
BRANCH  28  29
HETATM   29  C   UNL     1      -9.210   5.954  71.300  1.00  0.00    -0.143 C  
BRANCH  29  30
HETATM   30  N   UNL     1     -10.293   5.180  70.651  1.00  0.00    -0.251 NA 
HETATM   31  C   UNL     1     -11.318   5.987  69.968  1.00  0.00    -0.284 C  
HETATM   32  C   UNL     1     -10.857   6.617  68.652  1.00  0.00    -0.319 C  
HETATM   33  C   UNL     1     -10.209   5.593  67.724  1.00  0.00    -0.238 C  
HETATM   34  C   UNL     1      -9.182   4.738  68.458  1.00  0.00    -0.165 C  
HETATM   35  C   UNL     1      -9.769   4.154  69.743  1.00  0.00    -0.208 C  
ENDBRANCH  29  30
ENDBRANCH  28  29
ENDBRANCH  27  28
ENDBRANCH  22  27
ENDBRANCH  20  21
ENDBRANCH  10  20
ENDBRANCH   6   9
ENDBRANCH   2   3
TORSDOF 8
ENDMDL
MODEL        8
REMARK 921   NORMALIZED FREE ENERGY PREDICTED BY IDOCK:   -7.31 KCAL/MOL
REMARK 922        TOTAL FREE ENERGY PREDICTED BY IDOCK:  -12.48 KCAL/MOL
REMARK 923 INTER-LIGAND FREE ENERGY PREDICTED BY IDOCK:  -10.36 KCAL/MOL
REMARK 924 INTRA-LIGAND FREE ENERGY PREDICTED BY IDOCK:   -2.12 KCAL/MOL
REMARK 927      BINDING AFFINITY PREDICTED BY RF-SCORE:    0.00 PKD
ROOT
HETATM    1  C   UNL     1     -13.489   8.988  71.617  1.00  0.00    -0.386 C  
HETATM    2  O   UNL     1     -13.610  10.195  72.361  1.00  0.00    -0.308 OA 
ENDROOT
BRANCH   2   3
HETATM    3  C   UNL     1     -13.154  11.334  71.762  1.00  0.00    -0.422 A  
HETATM    4  C   UNL     1     -13.446  12.641  72.146  1.00  0.00    -0.561 A  
HETATM    5  C   UNL     1     -12.937  13.729  71.419  1.00  0.00    -0.433 A  
HETATM    6  C   UNL     1     -12.115  13.539  70.299  1.00  0.00    -0.425 A  
HETATM    7  C   UNL     1     -12.326  11.130  70.663  1.00  0.00    -0.482 A  
HETATM    8  C   UNL     1     -11.806  12.215  69.941  1.00  0.00    -0.392 A  
BRANCH   6   9
HETATM    9  C   UNL     1     -11.646  14.697  69.496  1.00  0.00    -0.310 A  
HETATM   10  C   UNL     1     -11.508  14.862  68.121  1.00  0.00    -0.330 A  
HETATM   11  C   UNL     1     -10.892  16.127  67.749  1.00  0.00    -0.318 A  
HETATM   12  C   UNL     1      -9.960  17.969  66.411  1.00  0.00    -0.362 A  
HETATM   13  C   UNL     1     -10.687  16.924  68.878  1.00  0.00    -0.321 A  
HETATM   14  H   UNL     1      -9.121  20.353  66.552  1.00  0.00     0.000 HD 
HETATM   15  C   UNL     1     -10.509  16.685  66.497  1.00  0.00    -0.262 A  
HETATM   16  S   UNL     1     -11.100  16.102  70.319  1.00  0.00    -0.330 SA 
HETATM   17  C   UNL     1     -10.193  18.243  68.795  1.00  0.00    -0.342 A  
HETATM   18  C   UNL     1      -9.838  18.742  67.548  1.00  0.00    -0.320 A  
HETATM   19  O   UNL     1      -9.364  20.013  67.406  1.00  0.00    -0.334 OA 
BRANCH  10  20
HETATM   20  O   UNL     1     -12.021  13.919  67.279  1.00  0.00    -0.389 OA 
BRANCH  20  21
HETATM   21  C   UNL     1     -11.264  13.031  66.555  1.00  0.00    -0.302 A  
HETATM   22  C   UNL     1      -9.561  11.328  65.100  1.00  0.00    -0.235 A  
HETATM   23  C   UNL     1      -9.076  12.025  66.210  1.00  0.00    -0.165 A  
HETATM   24  C   UNL     1     -11.741  12.350  65.442  1.00  0.00    -0.452 A  
HETATM   25  C   UNL     1      -9.927  12.872  66.936  1.00  0.00    -0.238 A  
HETATM   26  C   UNL     1     -10.910  11.478  64.747  1.00  0.00    -0.360 A  
BRANCH  22  27
HETATM   27  O   UNL     1      -8.659  10.551  64.403  1.00  0.00    -0.179 OA 
BRANCH  27  28
HETATM   28  C   UNL     1      -8.843   9.147  64.633  1.00  0.00    -0.142 C  
BRANCH  28  29
HETATM   29  C   UNL     1      -8.265   8.658  65.965  1.00  0.00    -0.127 C  
BRANCH  29  30
HETATM   30  N   UNL     1      -9.141   7.635  66.582  1.00  0.00    -0.156 NA 
HETATM   31  C   UNL     1      -8.619   7.027  67.818  1.00  0.00    -0.122 C  
HETATM   32  C   UNL     1      -8.671   7.941  69.045  1.00  0.00    -0.138 C  
HETATM   33  C   UNL     1     -10.052   8.561  69.238  1.00  0.00    -0.203 C  
HETATM   34  C   UNL     1     -10.594   9.146  67.938  1.00  0.00    -0.272 C  
HETATM   35  C   UNL     1     -10.503   8.132  66.798  1.00  0.00    -0.246 C  
ENDBRANCH  29  30
ENDBRANCH  28  29
ENDBRANCH  27  28
ENDBRANCH  22  27
ENDBRANCH  20  21
ENDBRANCH  10  20
ENDBRANCH   6   9
ENDBRANCH   2   3
TORSDOF 8
ENDMDL
MODEL        9
REMARK 921   NORMALIZED FREE ENERGY PREDICTED BY IDOCK:   -7.18 KCAL/MOL
REMARK 922        TOTAL FREE ENERGY PREDICTED BY IDOCK:  -12.28 KCAL/MOL
REMARK 923 INTER-LIGAND FREE ENERGY PREDICTED BY IDOCK:  -11.38 KCAL/MOL
REMARK 924 INTRA-LIGAND FREE ENERGY PREDICTED BY IDOCK:   -0.90 KCAL/MOL
REMARK 927      BINDING AFFINITY PREDICTED BY RF-SCORE:    0.00 PKD
ROOT
HETATM    1  C   UNL     1     -12.671  16.321  74.072  1.00  0.00    -0.444 C  
HETATM    2  O   UNL     1     -13.672  15.773  73.221  1.00  0.00    -0.496 OA 
ENDROOT
BRANCH   2   3
HETATM    3  C   UNL     1     -13.258  14.856  72.298  1.00  0.00    -0.374 A  
HETATM    4  C   UNL     1     -13.503  13.485  72.329  1.00  0.00    -0.669 A  
HETATM    5  C   UNL     1     -12.988  12.645  71.328  1.00  0.00    -0.306 A  
HETATM    6  C   UNL     1     -12.226  13.154  70.268  1.00  0.00    -0.376 A  
HETATM    7  C   UNL     1     -12.518  15.378  71.242  1.00  0.00    -0.460 A  
HETATM    8  C   UNL     1     -12.011  14.543  70.234  1.00  0.00    -0.379 A  
BRANCH   6   9
HETATM    9  C   UNL     1     -11.625  12.245  69.258  1.00  0.00    -0.324 A  
HETATM   10  C   UNL     1     -11.251  12.464  67.936  1.00  0.00    -0.266 A  
HETATM   11  C   UNL     1     -10.806  11.259  67.253  1.00  0.00    -0.317 A  
HETATM   12  C   UNL     1      -9.970   9.729  65.517  1.00  0.00    -0.329 A  
HETATM   13  C   UNL     1     -10.762  10.180  68.140  1.00  0.00    -0.244 A  
HETATM   14  H   UNL     1      -9.125   7.375  65.128  1.00  0.00     0.000 HD 
HETATM   15  C   UNL     1     -10.398  11.001  65.915  1.00  0.00    -0.315 A  
HETATM   16  S   UNL     1     -11.365  10.602  69.683  1.00  0.00    -0.317 SA 
HETATM   17  C   UNL     1     -10.272   8.910  67.766  1.00  0.00    -0.283 A  
HETATM   18  C   UNL     1      -9.882   8.713  66.447  1.00  0.00    -0.270 A  
HETATM   19  O   UNL     1      -9.392   7.510  66.030  1.00  0.00    -0.118 OA 
BRANCH  10  20
HETATM   20  O   UNL     1     -11.241  13.738  67.446  1.00  0.00    -0.291 OA 
BRANCH  20  21
HETATM   21  C   UNL     1     -10.103  14.472  67.218  1.00  0.00    -0.247 A  
HETATM   22  C   UNL     1      -7.741  15.976  66.942  1.00  0.00    -0.244 A  
HETATM   23  C   UNL     1      -7.831  14.982  67.921  1.00  0.00    -0.147 A  
HETATM   24  C   UNL     1     -10.019  15.471  66.256  1.00  0.00    -0.313 A  
HETATM   25  C   UNL     1      -9.008  14.232  68.056  1.00  0.00    -0.183 A  
HETATM   26  C   UNL     1      -8.837  16.186  66.093  1.00  0.00    -0.367 A  
BRANCH  22  27
HETATM   27  O   UNL     1      -6.573  16.708  66.896  1.00  0.00    -0.187 OA 
BRANCH  27  28
HETATM   28  C   UNL     1      -6.664  17.944  67.620  1.00  0.00    -0.185 C  
BRANCH  28  29
HETATM   29  C   UNL     1      -7.900  18.044  68.518  1.00  0.00    -0.303 C  
BRANCH  29  30
HETATM   30  N   UNL     1      -8.440  19.424  68.529  1.00  0.00    -0.358 NA 
HETATM   31  C   UNL     1      -8.145  20.222  67.328  1.00  0.00    -0.338 C  
HETATM   32  C   UNL     1      -8.948  19.823  66.088  1.00  0.00    -0.387 C  
HETATM   33  C   UNL     1     -10.443  19.738  66.378  1.00  0.00    -0.618 C  
HETATM   34  C   UNL     1     -10.727  18.946  67.649  1.00  0.00    -0.469 C  
HETATM   35  C   UNL     1      -9.878  19.452  68.815  1.00  0.00    -0.456 C  
ENDBRANCH  29  30
ENDBRANCH  28  29
ENDBRANCH  27  28
ENDBRANCH  22  27
ENDBRANCH  20  21
ENDBRANCH  10  20
ENDBRANCH   6   9
ENDBRANCH   2   3
TORSDOF 8
ENDMDL
MODEL       10
REMARK 921   NORMALIZED FREE ENERGY PREDICTED BY IDOCK:   -7.14 KCAL/MOL
REMARK 922        TOTAL FREE ENERGY PREDICTED BY IDOCK:  -12.23 KCAL/MOL
REMARK 923 INTER-LIGAND FREE ENERGY PREDICTED BY IDOCK:  -10.65 KCAL/MOL
REMARK 924 INTRA-LIGAND FREE ENERGY PREDICTED BY IDOCK:   -1.58 KCAL/MOL
REMARK 927      BINDING AFFINITY PREDICTED BY RF-SCORE:    0.00 PKD
ROOT
HETATM    1  C   UNL     1     -10.314   6.379  73.858  1.00  0.00    -0.322 C  
HETATM    2  O   UNL     1     -11.149   7.388  73.302  1.00  0.00    -0.365 OA 
ENDROOT
BRANCH   2   3
HETATM    3  C   UNL     1     -10.921   7.727  72.000  1.00  0.00    -0.257 A  
HETATM    4  C   UNL     1     -11.202   6.943  70.883  1.00  0.00    -0.332 A  
HETATM    5  C   UNL     1     -10.884   7.398  69.593  1.00  0.00    -0.222 A  
HETATM    6  C   UNL     1     -10.291   8.651  69.386  1.00  0.00    -0.221 A  
HETATM    7  C   UNL     1     -10.349   8.980  71.809  1.00  0.00    -0.407 A  
HETATM    8  C   UNL     1     -10.041   9.444  70.520  1.00  0.00    -0.335 A  
BRANCH   6   9
HETATM    9  C   UNL     1      -9.893   9.088  68.023  1.00  0.00    -0.166 A  
HETATM   10  C   UNL     1     -10.534   9.912  67.103  1.00  0.00    -0.242 A  
HETATM   11  C   UNL     1      -9.850   9.988  65.820  1.00  0.00    -0.345 A  
HETATM   12  C   UNL     1      -9.292  10.588  63.501  1.00  0.00    -0.326 A  
HETATM   13  C   UNL     1      -8.640   9.290  65.867  1.00  0.00    -0.148 A  
HETATM   14  H   UNL     1      -7.474  10.423  61.747  1.00  0.00     0.000 HD 
HETATM   15  C   UNL     1     -10.161  10.643  64.596  1.00  0.00    -0.417 A  
HETATM   16  S   UNL     1      -8.434   8.476  67.356  1.00  0.00    -0.128 SA 
HETATM   17  C   UNL     1      -7.728   9.281  64.790  1.00  0.00    -0.111 A  
HETATM   18  C   UNL     1      -8.079   9.939  63.619  1.00  0.00    -0.153 A  
HETATM   19  O   UNL     1      -7.234   9.972  62.548  1.00  0.00    -0.118 OA 
BRANCH  10  20
HETATM   20  O   UNL     1     -11.636  10.616  67.489  1.00  0.00    -0.482 OA 
BRANCH  20  21
HETATM   21  C   UNL     1     -11.643  11.963  67.755  1.00  0.00    -0.323 A  
HETATM   22  C   UNL     1     -11.757  14.685  68.461  1.00  0.00    -0.316 A  
HETATM   23  C   UNL     1     -11.643  13.705  69.452  1.00  0.00    -0.368 A  
HETATM   24  C   UNL     1     -11.772  12.936  66.771  1.00  0.00    -0.445 A  
HETATM   25  C   UNL     1     -11.584  12.350  69.099  1.00  0.00    -0.369 A  
HETATM   26  C   UNL     1     -11.787  14.282  67.118  1.00  0.00    -0.454 A  
BRANCH  22  27
HETATM   27  O   UNL     1     -11.858  15.995  68.881  1.00  0.00    -0.379 OA 
BRANCH  27  28
HETATM   28  C   UNL     1     -10.727  16.418  69.656  1.00  0.00    -0.337 C  
BRANCH  28  29
HETATM   29  C   UNL     1      -9.764  17.334  68.896  1.00  0.00    -0.251 C  
BRANCH  29  30
HETATM   30  N   UNL     1     -10.348  17.768  67.606  1.00  0.00    -0.358 NA 
HETATM   31  C   UNL     1     -10.768  19.178  67.551  1.00  0.00    -0.458 C  
HETATM   32  C   UNL     1      -9.615  20.181  67.468  1.00  0.00    -0.547 C  
HETATM   33  C   UNL     1      -8.626  19.824  66.362  1.00  0.00    -0.398 C  
HETATM   34  C   UNL     1      -8.236  18.351  66.408  1.00  0.00    -0.280 C  
HETATM   35  C   UNL     1      -9.474  17.456  66.470  1.00  0.00    -0.273 C  
ENDBRANCH  29  30
ENDBRANCH  28  29
ENDBRANCH  27  28
ENDBRANCH  22  27
ENDBRANCH  20  21
ENDBRANCH  10  20
ENDBRANCH   6   9
ENDBRANCH   2   3
TORSDOF 8
ENDMDL
MODEL       11
REMARK 921   NORMALIZED FREE ENERGY PREDICTED BY IDOCK:   -7.00 KCAL/MOL
REMARK 922        TOTAL FREE ENERGY PREDICTED BY IDOCK:  -12.02 KCAL/MOL
REMARK 923 INTER-LIGAND FREE ENERGY PREDICTED BY IDOCK:  -10.57 KCAL/MOL
REMARK 924 INTRA-LIGAND FREE ENERGY PREDICTED BY IDOCK:   -1.45 KCAL/MOL
REMARK 927      BINDING AFFINITY PREDICTED BY RF-SCORE:    0.00 PKD
ROOT
HETATM    1  C   UNL     1     -12.977   9.069  72.158  1.00  0.00    -0.424 C  
HETATM    2  O   UNL     1     -13.643  10.299  72.417  1.00  0.00    -0.275 OA 
ENDROOT
BRANCH   2   3
HETATM    3  C   UNL     1     -13.155  11.406  71.784  1.00  0.00    -0.418 A  
HETATM    4  C   UNL     1     -13.358  12.731  72.165  1.00  0.00    -0.593 A  
HETATM    5  C   UNL     1     -12.826  13.783  71.402  1.00  0.00    -0.449 A  
HETATM    6  C   UNL     1     -12.070  13.538  70.247  1.00  0.00    -0.425 A  
HETATM    7  C   UNL     1     -12.392  11.147  70.651  1.00  0.00    -0.482 A  
HETATM    8  C   UNL     1     -11.849  12.196  69.892  1.00  0.00    -0.392 A  
BRANCH   6   9
HETATM    9  C   UNL     1     -11.577  14.661  69.409  1.00  0.00    -0.305 A  
HETATM   10  C   UNL     1     -11.607  14.857  68.032  1.00  0.00    -0.341 A  
HETATM   11  C   UNL     1     -10.900  16.054  67.602  1.00  0.00    -0.311 A  
HETATM   12  C   UNL     1      -9.943  17.821  66.183  1.00  0.00    -0.283 A  
HETATM   13  C   UNL     1     -10.450  16.781  68.707  1.00  0.00    -0.338 A  
HETATM   14  H   UNL     1      -8.812  20.085  66.253  1.00  0.00     0.000 HD 
HETATM   15  C   UNL     1     -10.625  16.607  66.320  1.00  0.00    -0.205 A  
HETATM   16  S   UNL     1     -10.761  15.963  70.175  1.00  0.00    -0.308 SA 
HETATM   17  C   UNL     1      -9.817  18.036  68.582  1.00  0.00    -0.383 A  
HETATM   18  C   UNL     1      -9.577  18.534  67.307  1.00  0.00    -0.294 A  
HETATM   19  O   UNL     1      -8.977  19.745  67.125  1.00  0.00    -0.302 OA 
BRANCH  10  20
HETATM   20  O   UNL     1     -12.338  14.010  67.251  1.00  0.00    -0.351 OA 
BRANCH  20  21
HETATM   21  C   UNL     1     -11.824  13.272  66.213  1.00  0.00    -0.395 A  
HETATM   22  C   UNL     1     -10.949  11.744  64.018  1.00  0.00    -0.384 A  
HETATM   23  C   UNL     1     -12.009  12.643  63.871  1.00  0.00    -0.558 A  
HETATM   24  C   UNL     1     -10.781  12.366  66.363  1.00  0.00    -0.277 A  
HETATM   25  C   UNL     1     -12.442  13.406  64.965  1.00  0.00    -0.479 A  
HETATM   26  C   UNL     1     -10.322  11.642  65.269  1.00  0.00    -0.316 A  
BRANCH  22  27
HETATM   27  O   UNL     1     -10.606  10.991  62.915  1.00  0.00    -0.085 OA 
BRANCH  27  28
HETATM   28  C   UNL     1      -9.187  10.906  62.721  1.00  0.00    -0.339 C  
BRANCH  28  29
HETATM   29  C   UNL     1      -8.686   9.487  62.434  1.00  0.00    -0.226 C  
BRANCH  29  30
HETATM   30  N   UNL     1      -8.094   8.875  63.647  1.00  0.00    -0.160 NA 
HETATM   31  C   UNL     1      -7.500   7.543  63.449  1.00  0.00    -0.101 C  
HETATM   32  C   UNL     1      -6.168   7.548  62.694  1.00  0.00    -0.066 C  
HETATM   33  C   UNL     1      -5.179   8.545  63.287  1.00  0.00    -0.063 C  
HETATM   34  C   UNL     1      -5.824   9.906  63.525  1.00  0.00    -0.116 C  
HETATM   35  C   UNL     1      -7.132   9.767  64.302  1.00  0.00    -0.126 C  
ENDBRANCH  29  30
ENDBRANCH  28  29
ENDBRANCH  27  28
ENDBRANCH  22  27
ENDBRANCH  20  21
ENDBRANCH  10  20
ENDBRANCH   6   9
ENDBRANCH   2   3
TORSDOF 8
ENDMDL
MODEL       12
REMARK 921   NORMALIZED FREE ENERGY PREDICTED BY IDOCK:   -6.91 KCAL/MOL
REMARK 922        TOTAL FREE ENERGY PREDICTED BY IDOCK:  -11.90 KCAL/MOL
REMARK 923 INTER-LIGAND FREE ENERGY PREDICTED BY IDOCK:  -10.19 KCAL/MOL
REMARK 924 INTRA-LIGAND FREE ENERGY PREDICTED BY IDOCK:   -1.70 KCAL/MOL
REMARK 927      BINDING AFFINITY PREDICTED BY RF-SCORE:    0.00 PKD
ROOT
HETATM    1  C   UNL     1     -14.138  15.684  72.154  1.00  0.00    -0.455 C  
HETATM    2  O   UNL     1     -13.563  15.096  70.993  1.00  0.00    -0.437 OA 
ENDROOT
BRANCH   2   3
HETATM    3  C   UNL     1     -13.179  13.789  71.091  1.00  0.00    -0.207 A  
HETATM    4  C   UNL     1     -13.578  12.884  72.073  1.00  0.00    -0.499 A  
HETATM    5  C   UNL     1     -13.079  11.572  72.078  1.00  0.00    -0.430 A  
HETATM    6  C   UNL     1     -12.181  11.127  71.098  1.00  0.00    -0.387 A  
HETATM    7  C   UNL     1     -12.302  13.357  70.102  1.00  0.00    -0.322 A  
HETATM    8  C   UNL     1     -11.811  12.042  70.097  1.00  0.00    -0.383 A  
BRANCH   6   9
HETATM    9  C   UNL     1     -11.605   9.759  71.159  1.00  0.00    -0.392 A  
HETATM   10  C   UNL     1     -10.494   9.205  70.531  1.00  0.00    -0.236 A  
HETATM   11  C   UNL     1     -10.345   7.778  70.772  1.00  0.00    -0.206 A  
HETATM   12  C   UNL     1      -9.473   5.478  70.726  1.00  0.00    -0.209 A  
HETATM   13  C   UNL     1     -11.310   7.330  71.678  1.00  0.00    -0.254 A  
HETATM   14  H   UNL     1      -9.739   3.189  71.776  1.00  0.00     0.000 HD 
HETATM   15  C   UNL     1      -9.417   6.809  70.298  1.00  0.00    -0.164 A  
HETATM   16  S   UNL     1     -12.414   8.567  72.093  1.00  0.00    -0.389 SA 
HETATM   17  C   UNL     1     -11.336   6.005  72.164  1.00  0.00    -0.351 A  
HETATM   18  C   UNL     1     -10.405   5.100  71.672  1.00  0.00    -0.207 A  
HETATM   19  O   UNL     1     -10.376   3.809  72.113  1.00  0.00    -0.149 OA 
BRANCH  10  20
HETATM   20  O   UNL     1      -9.630  10.019  69.858  1.00  0.00    -0.226 OA 
BRANCH  20  21
HETATM   21  C   UNL     1      -9.538  10.091  68.490  1.00  0.00    -0.151 A  
HETATM   22  C   UNL     1      -9.428  10.062  65.678  1.00  0.00    -0.220 A  
HETATM   23  C   UNL     1     -10.503   9.468  66.346  1.00  0.00    -0.168 A  
HETATM   24  C   UNL     1      -8.461  10.667  67.826  1.00  0.00    -0.116 A  
HETATM   25  C   UNL     1     -10.558   9.486  67.748  1.00  0.00    -0.318 A  
HETATM   26  C   UNL     1      -8.428  10.688  66.436  1.00  0.00    -0.152 A  
BRANCH  22  27
HETATM   27  O   UNL     1      -9.414   9.967  64.303  1.00  0.00    -0.284 OA 
BRANCH  27  28
HETATM   28  C   UNL     1      -9.619  11.232  63.657  1.00  0.00    -0.274 C  
BRANCH  28  29
HETATM   29  C   UNL     1     -10.987  11.857  63.944  1.00  0.00    -0.406 C  
BRANCH  29  30
HETATM   30  N   UNL     1     -10.868  13.316  64.172  1.00  0.00    -0.388 NA 
HETATM   31  C   UNL     1     -12.140  14.058  64.156  1.00  0.00    -0.422 C  
HETATM   32  C   UNL     1     -13.015  13.846  65.393  1.00  0.00    -0.368 C  
HETATM   33  C   UNL     1     -12.235  14.056  66.687  1.00  0.00    -0.463 C  
HETATM   34  C   UNL     1     -10.902  13.315  66.669  1.00  0.00    -0.289 C  
HETATM   35  C   UNL     1     -10.118  13.625  65.394  1.00  0.00    -0.271 C  
ENDBRANCH  29  30
ENDBRANCH  28  29
ENDBRANCH  27  28
ENDBRANCH  22  27
ENDBRANCH  20  21
ENDBRANCH  10  20
ENDBRANCH   6   9
ENDBRANCH   2   3
TORSDOF 8
ENDMDL
MODEL       13
REMARK 921   NORMALIZED FREE ENERGY PREDICTED BY IDOCK:   -6.89 KCAL/MOL
REMARK 922        TOTAL FREE ENERGY PREDICTED BY IDOCK:  -11.86 KCAL/MOL
REMARK 923 INTER-LIGAND FREE ENERGY PREDICTED BY IDOCK:  -11.18 KCAL/MOL
REMARK 924 INTRA-LIGAND FREE ENERGY PREDICTED BY IDOCK:   -0.68 KCAL/MOL
REMARK 927      BINDING AFFINITY PREDICTED BY RF-SCORE:    0.00 PKD
ROOT
HETATM    1  C   UNL     1      -9.671   3.840  71.296  1.00  0.00    -0.175 C  
HETATM    2  O   UNL     1     -10.390   4.495  70.257  1.00  0.00    -0.160 OA 
ENDROOT
BRANCH   2   3
HETATM    3  C   UNL     1     -10.778   5.782  70.496  1.00  0.00    -0.291 A  
HETATM    4  C   UNL     1     -11.591   6.218  71.539  1.00  0.00    -0.345 A  
HETATM    5  C   UNL     1     -11.944   7.573  71.651  1.00  0.00    -0.333 A  
HETATM    6  C   UNL     1     -11.484   8.526  70.731  1.00  0.00    -0.281 A  
HETATM    7  C   UNL     1     -10.300   6.719  69.585  1.00  0.00    -0.223 A  
HETATM    8  C   UNL     1     -10.641   8.076  69.700  1.00  0.00    -0.223 A  
BRANCH   6   9
HETATM    9  C   UNL     1     -11.926   9.941  70.818  1.00  0.00    -0.323 A  
HETATM   10  C   UNL     1     -11.577  11.057  70.064  1.00  0.00    -0.344 A  
HETATM   11  C   UNL     1     -12.156  12.297  70.561  1.00  0.00    -0.371 A  
HETATM   12  C   UNL     1     -12.744  14.673  70.795  1.00  0.00    -0.422 A  
HETATM   13  C   UNL     1     -13.022  12.040  71.628  1.00  0.00    -0.334 A  
HETATM   14  H   UNL     1     -14.254  16.274  72.047  1.00  0.00     0.000 HD 
HETATM   15  C   UNL     1     -12.030  13.654  70.155  1.00  0.00    -0.407 A  
HETATM   16  S   UNL     1     -13.009  10.389  72.073  1.00  0.00    -0.291 SA 
HETATM   17  C   UNL     1     -13.794  13.051  72.238  1.00  0.00    -0.529 A  
HETATM   18  C   UNL     1     -13.636  14.360  71.801  1.00  0.00    -0.395 A  
HETATM   19  O   UNL     1     -14.362  15.378  72.346  1.00  0.00    -0.543 OA 
BRANCH  10  20
HETATM   20  O   UNL     1     -10.840  10.893  68.927  1.00  0.00    -0.189 OA 
BRANCH  20  21
HETATM   21  C   UNL     1     -10.742  11.826  67.925  1.00  0.00    -0.204 A  
HETATM   22  C   UNL     1     -10.441  13.850  65.993  1.00  0.00    -0.298 A  
HETATM   23  C   UNL     1      -9.417  13.595  66.909  1.00  0.00    -0.263 A  
HETATM   24  C   UNL     1     -11.767  12.092  67.025  1.00  0.00    -0.341 A  
HETATM   25  C   UNL     1      -9.567  12.584  67.869  1.00  0.00    -0.206 A  
HETATM   26  C   UNL     1     -11.601  13.064  66.044  1.00  0.00    -0.409 A  
BRANCH  22  27
HETATM   27  O   UNL     1     -10.247  14.890  65.107  1.00  0.00    -0.383 OA 
BRANCH  27  28
HETATM   28  C   UNL     1      -9.443  15.944  65.657  1.00  0.00    -0.182 C  
BRANCH  28  29
HETATM   29  C   UNL     1     -10.241  17.195  66.038  1.00  0.00    -0.321 C  
BRANCH  29  30
HETATM   30  N   UNL     1      -9.368  18.391  66.078  1.00  0.00    -0.503 NA 
HETATM   31  C   UNL     1     -10.074  19.683  66.053  1.00  0.00    -0.461 C  
HETATM   32  C   UNL     1     -10.782  20.045  67.360  1.00  0.00    -0.359 C  
HETATM   33  C   UNL     1      -9.858  19.910  68.567  1.00  0.00    -0.463 C  
HETATM   34  C   UNL     1      -9.103  18.586  68.553  1.00  0.00    -0.353 C  
HETATM   35  C   UNL     1      -8.427  18.350  67.203  1.00  0.00    -0.254 C  
ENDBRANCH  29  30
ENDBRANCH  28  29
ENDBRANCH  27  28
ENDBRANCH  22  27
ENDBRANCH  20  21
ENDBRANCH  10  20
ENDBRANCH   6   9
ENDBRANCH   2   3
TORSDOF 8
ENDMDL
MODEL       14
REMARK 921   NORMALIZED FREE ENERGY PREDICTED BY IDOCK:   -6.83 KCAL/MOL
REMARK 922        TOTAL FREE ENERGY PREDICTED BY IDOCK:  -11.78 KCAL/MOL
REMARK 923 INTER-LIGAND FREE ENERGY PREDICTED BY IDOCK:   -9.63 KCAL/MOL
REMARK 924 INTRA-LIGAND FREE ENERGY PREDICTED BY IDOCK:   -2.16 KCAL/MOL
REMARK 927      BINDING AFFINITY PREDICTED BY RF-SCORE:    0.00 PKD
ROOT
HETATM    1  C   UNL     1     -12.780  11.930  63.535  1.00  0.00    -0.405 C  
HETATM    2  O   UNL     1     -13.164  12.611  64.723  1.00  0.00    -0.846 OA 
ENDROOT
BRANCH   2   3
HETATM    3  C   UNL     1     -12.288  13.538  65.211  1.00  0.00    -0.467 A  
HETATM    4  C   UNL     1     -11.560  14.459  64.462  1.00  0.00    -0.393 A  
HETATM    5  C   UNL     1     -10.662  15.339  65.088  1.00  0.00    -0.455 A  
HETATM    6  C   UNL     1     -10.480  15.328  66.478  1.00  0.00    -0.299 A  
HETATM    7  C   UNL     1     -12.131  13.528  66.593  1.00  0.00    -0.447 A  
HETATM    8  C   UNL     1     -11.244  14.414  67.224  1.00  0.00    -0.334 A  
BRANCH   6   9
HETATM    9  C   UNL     1      -9.473  16.213  67.119  1.00  0.00    -0.223 A  
HETATM   10  C   UNL     1      -8.142  15.990  67.458  1.00  0.00    -0.148 A  
HETATM   11  C   UNL     1      -7.538  17.095  68.188  1.00  0.00    -0.208 A  
HETATM   12  C   UNL     1      -5.907  18.482  69.398  1.00  0.00    -0.249 A  
HETATM   13  C   UNL     1      -8.427  18.169  68.276  1.00  0.00    -0.284 A  
HETATM   14  H   UNL     1      -5.521  20.801  70.338  1.00  0.00     0.000 HD 
HETATM   15  C   UNL     1      -6.254  17.280  68.772  1.00  0.00    -0.176 A  
HETATM   16  S   UNL     1      -9.957  17.783  67.620  1.00  0.00    -0.338 SA 
HETATM   17  C   UNL     1      -8.065  19.407  68.848  1.00  0.00    -0.344 A  
HETATM   18  C   UNL     1      -6.797  19.537  69.401  1.00  0.00    -0.330 A  
HETATM   19  O   UNL     1      -6.389  20.713  69.959  1.00  0.00    -0.348 OA 
BRANCH  10  20
HETATM   20  O   UNL     1      -7.520  14.858  67.017  1.00  0.00    -0.145 OA 
BRANCH  20  21
HETATM   21  C   UNL     1      -7.553  13.651  67.670  1.00  0.00    -0.179 A  
HETATM   22  C   UNL     1      -7.438  11.206  69.059  1.00  0.00    -0.124 A  
HETATM   23  C   UNL     1      -6.748  12.322  69.541  1.00  0.00    -0.000 A  
HETATM   24  C   UNL     1      -8.225  12.537  67.181  1.00  0.00    -0.168 A  
HETATM   25  C   UNL     1      -6.809  13.541  68.849  1.00  0.00    -0.111 A  
HETATM   26  C   UNL     1      -8.202  11.341  67.890  1.00  0.00    -0.123 A  
BRANCH  22  27
HETATM   27  O   UNL     1      -7.296  10.028  69.761  1.00  0.00    -0.105 OA 
BRANCH  27  28
HETATM   28  C   UNL     1      -8.377   9.112  69.532  1.00  0.00    -0.126 C  
BRANCH  28  29
HETATM   29  C   UNL     1      -9.466   9.159  70.607  1.00  0.00    -0.261 C  
BRANCH  29  30
HETATM   30  N   UNL     1     -10.810   8.972  70.013  1.00  0.00    -0.232 NA 
HETATM   31  C   UNL     1     -11.876   8.630  70.969  1.00  0.00    -0.265 C  
HETATM   32  C   UNL     1     -12.332   9.793  71.854  1.00  0.00    -0.417 C  
HETATM   33  C   UNL     1     -12.660  11.039  71.038  1.00  0.00    -0.512 C  
HETATM   34  C   UNL     1     -11.565  11.352  70.023  1.00  0.00    -0.382 C  
HETATM   35  C   UNL     1     -11.215  10.119  69.192  1.00  0.00    -0.183 C  
ENDBRANCH  29  30
ENDBRANCH  28  29
ENDBRANCH  27  28
ENDBRANCH  22  27
ENDBRANCH  20  21
ENDBRANCH  10  20
ENDBRANCH   6   9
ENDBRANCH   2   3
TORSDOF 8
ENDMDL
MODEL       15
REMARK 921   NORMALIZED FREE ENERGY PREDICTED BY IDOCK:   -6.82 KCAL/MOL
REMARK 922        TOTAL FREE ENERGY PREDICTED BY IDOCK:  -11.76 KCAL/MOL
REMARK 923 INTER-LIGAND FREE ENERGY PREDICTED BY IDOCK:   -9.97 KCAL/MOL
REMARK 924 INTRA-LIGAND FREE ENERGY PREDICTED BY IDOCK:   -1.78 KCAL/MOL
REMARK 927      BINDING AFFINITY PREDICTED BY RF-SCORE:    0.00 PKD
ROOT
HETATM    1  C   UNL     1     -10.004   7.718  66.704  1.00  0.00    -0.228 C  
HETATM    2  O   UNL     1      -9.389   8.627  65.799  1.00  0.00    -0.214 OA 
ENDROOT
BRANCH   2   3
HETATM    3  C   UNL     1      -9.252   9.918  66.223  1.00  0.00    -0.168 A  
HETATM    4  C   UNL     1      -8.577  10.344  67.365  1.00  0.00    -0.125 A  
HETATM    5  C   UNL     1      -8.541  11.705  67.706  1.00  0.00    -0.144 A  
HETATM    6  C   UNL     1      -9.167  12.675  66.911  1.00  0.00    -0.216 A  
HETATM    7  C   UNL     1      -9.863  10.870  65.414  1.00  0.00    -0.308 A  
HETATM    8  C   UNL     1      -9.819  12.233  65.746  1.00  0.00    -0.260 A  
BRANCH   6   9
HETATM    9  C   UNL     1      -9.184  14.102  67.324  1.00  0.00    -0.219 A  
HETATM   10  C   UNL     1     -10.239  14.944  67.662  1.00  0.00    -0.236 A  
HETATM   11  C   UNL     1      -9.828  16.321  67.894  1.00  0.00    -0.237 A  
HETATM   12  C   UNL     1      -9.895  18.724  68.416  1.00  0.00    -0.429 A  
HETATM   13  C   UNL     1      -8.438  16.436  67.825  1.00  0.00    -0.167 A  
HETATM   14  H   UNL     1      -8.434  20.735  68.892  1.00  0.00     0.000 HD 
HETATM   15  C   UNL     1     -10.552  17.508  68.196  1.00  0.00    -0.366 A  
HETATM   16  S   UNL     1      -7.700  14.964  67.364  1.00  0.00    -0.201 SA 
HETATM   17  C   UNL     1      -7.762  17.643  68.107  1.00  0.00    -0.244 A  
HETATM   18  C   UNL     1      -8.516  18.772  68.401  1.00  0.00    -0.342 A  
HETATM   19  O   UNL     1      -7.917  19.963  68.690  1.00  0.00    -0.267 OA 
BRANCH  10  20
HETATM   20  O   UNL     1     -11.487  14.419  67.833  1.00  0.00    -0.288 OA 
BRANCH  20  21
HETATM   21  C   UNL     1     -11.875  13.682  68.924  1.00  0.00    -0.364 A  
HETATM   22  C   UNL     1     -12.754  12.046  71.039  1.00  0.00    -0.241 A  
HETATM   23  C   UNL     1     -12.340  11.474  69.832  1.00  0.00    -0.247 A  
HETATM   24  C   UNL     1     -12.302  14.251  70.118  1.00  0.00    -0.413 A  
HETATM   25  C   UNL     1     -11.900  12.291  68.780  1.00  0.00    -0.356 A  
HETATM   26  C   UNL     1     -12.697  13.441  71.176  1.00  0.00    -0.411 A  
BRANCH  22  27
HETATM   27  O   UNL     1     -13.219  11.189  72.013  1.00  0.00    -0.493 OA 
BRANCH  27  28
HETATM   28  C   UNL     1     -13.377   9.843  71.539  1.00  0.00    -0.375 C  
BRANCH  28  29
HETATM   29  C   UNL     1     -12.740   8.788  72.447  1.00  0.00    -0.368 C  
BRANCH  29  30
HETATM   30  N   UNL     1     -11.317   8.570  72.094  1.00  0.00    -0.352 NA 
HETATM   31  C   UNL     1     -10.582   7.662  72.989  1.00  0.00    -0.375 C  
HETATM   32  C   UNL     1     -10.941   6.183  72.828  1.00  0.00    -0.294 C  
HETATM   33  C   UNL     1     -10.884   5.737  71.370  1.00  0.00    -0.316 C  
HETATM   34  C   UNL     1     -11.613   6.712  70.453  1.00  0.00    -0.457 C  
HETATM   35  C   UNL     1     -11.154   8.149  70.699  1.00  0.00    -0.254 C  
ENDBRANCH  29  30
ENDBRANCH  28  29
ENDBRANCH  27  28
ENDBRANCH  22  27
ENDBRANCH  20  21
ENDBRANCH  10  20
ENDBRANCH   6   9
ENDBRANCH   2   3
TORSDOF 8
ENDMDL
MODEL       16
REMARK 921   NORMALIZED FREE ENERGY PREDICTED BY IDOCK:   -6.80 KCAL/MOL
REMARK 922        TOTAL FREE ENERGY PREDICTED BY IDOCK:  -11.73 KCAL/MOL
REMARK 923 INTER-LIGAND FREE ENERGY PREDICTED BY IDOCK:  -10.74 KCAL/MOL
REMARK 924 INTRA-LIGAND FREE ENERGY PREDICTED BY IDOCK:   -0.99 KCAL/MOL
REMARK 927      BINDING AFFINITY PREDICTED BY RF-SCORE:    0.00 PKD
ROOT
HETATM    1  C   UNL     1     -12.534  15.873  74.472  1.00  0.00    -0.581 C  
HETATM    2  O   UNL     1     -13.430  15.811  73.368  1.00  0.00    -0.523 OA 
ENDROOT
BRANCH   2   3
HETATM    3  C   UNL     1     -13.117  14.932  72.371  1.00  0.00    -0.366 A  
HETATM    4  C   UNL     1     -13.473  13.586  72.316  1.00  0.00    -0.669 A  
HETATM    5  C   UNL     1     -13.055  12.781  71.245  1.00  0.00    -0.245 A  
HETATM    6  C   UNL     1     -12.282  13.302  70.197  1.00  0.00    -0.376 A  
HETATM    7  C   UNL     1     -12.366  15.467  71.330  1.00  0.00    -0.468 A  
HETATM    8  C   UNL     1     -11.956  14.668  70.251  1.00  0.00    -0.370 A  
BRANCH   6   9
HETATM    9  C   UNL     1     -11.786  12.421  69.109  1.00  0.00    -0.322 A  
HETATM   10  C   UNL     1     -11.645  11.038  69.043  1.00  0.00    -0.323 A  
HETATM   11  C   UNL     1     -10.999  10.579  67.822  1.00  0.00    -0.372 A  
HETATM   12  C   UNL     1     -10.024   9.118  66.101  1.00  0.00    -0.338 A  
HETATM   13  C   UNL     1     -10.774  11.651  66.955  1.00  0.00    -0.257 A  
HETATM   14  H   UNL     1      -9.128   9.095  63.733  1.00  0.00     0.000 HD 
HETATM   15  C   UNL     1     -10.604   9.292  67.362  1.00  0.00    -0.324 A  
HETATM   16  S   UNL     1     -11.205  13.145  67.664  1.00  0.00    -0.297 SA 
HETATM   17  C   UNL     1     -10.248  11.478  65.656  1.00  0.00    -0.292 A  
HETATM   18  C   UNL     1      -9.882  10.199  65.254  1.00  0.00    -0.319 A  
HETATM   19  O   UNL     1      -9.377   9.970  64.008  1.00  0.00    -0.263 OA 
BRANCH  10  20
HETATM   20  O   UNL     1     -12.182  10.263  70.030  1.00  0.00    -0.217 OA 
BRANCH  20  21
HETATM   21  C   UNL     1     -11.447   9.493  70.898  1.00  0.00    -0.334 A  
HETATM   22  C   UNL     1     -10.079   7.946  72.809  1.00  0.00    -0.300 A  
HETATM   23  C   UNL     1     -11.476   7.936  72.766  1.00  0.00    -0.428 A  
HETATM   24  C   UNL     1     -10.059   9.516  70.951  1.00  0.00    -0.330 A  
HETATM   25  C   UNL     1     -12.156   8.705  71.811  1.00  0.00    -0.403 A  
HETATM   26  C   UNL     1      -9.382   8.720  71.869  1.00  0.00    -0.343 A  
BRANCH  22  27
HETATM   27  O   UNL     1      -9.475   7.205  73.803  1.00  0.00    -0.200 OA 
BRANCH  27  28
HETATM   28  C   UNL     1      -8.433   6.354  73.305  1.00  0.00    -0.121 C  
BRANCH  28  29
HETATM   29  C   UNL     1      -8.767   4.861  73.374  1.00  0.00    -0.104 C  
BRANCH  29  30
HETATM   30  N   UNL     1     -10.017   4.561  72.639  1.00  0.00    -0.159 NA 
HETATM   31  C   UNL     1      -9.846   3.773  71.407  1.00  0.00    -0.155 C  
HETATM   32  C   UNL     1      -9.522   2.295  71.638  1.00  0.00    -0.200 C  
HETATM   33  C   UNL     1     -10.495   1.643  72.616  1.00  0.00    -0.229 C  
HETATM   34  C   UNL     1     -10.693   2.494  73.866  1.00  0.00    -0.261 C  
HETATM   35  C   UNL     1     -11.029   3.940  73.500  1.00  0.00    -0.252 C  
ENDBRANCH  29  30
ENDBRANCH  28  29
ENDBRANCH  27  28
ENDBRANCH  22  27
ENDBRANCH  20  21
ENDBRANCH  10  20
ENDBRANCH   6   9
ENDBRANCH   2   3
TORSDOF 8
ENDMDL
MODEL       17
REMARK 921   NORMALIZED FREE ENERGY PREDICTED BY IDOCK:   -6.73 KCAL/MOL
REMARK 922        TOTAL FREE ENERGY PREDICTED BY IDOCK:  -11.63 KCAL/MOL
REMARK 923 INTER-LIGAND FREE ENERGY PREDICTED BY IDOCK:   -9.58 KCAL/MOL
REMARK 924 INTRA-LIGAND FREE ENERGY PREDICTED BY IDOCK:   -2.05 KCAL/MOL
REMARK 927      BINDING AFFINITY PREDICTED BY RF-SCORE:    0.00 PKD
ROOT
HETATM    1  C   UNL     1     -11.676  15.681  63.997  1.00  0.00     0.070 C  
HETATM    2  O   UNL     1     -12.575  14.644  64.373  1.00  0.00    -0.662 OA 
ENDROOT
BRANCH   2   3
HETATM    3  C   UNL     1     -12.233  13.900  65.465  1.00  0.00    -0.444 A  
HETATM    4  C   UNL     1     -12.273  14.317  66.793  1.00  0.00    -0.384 A  
HETATM    5  C   UNL     1     -11.858  13.459  67.824  1.00  0.00    -0.395 A  
HETATM    6  C   UNL     1     -11.405  12.160  67.555  1.00  0.00    -0.392 A  
HETATM    7  C   UNL     1     -11.802  12.608  65.184  1.00  0.00    -0.437 A  
HETATM    8  C   UNL     1     -11.397  11.743  66.213  1.00  0.00    -0.350 A  
BRANCH   6   9
HETATM    9  C   UNL     1     -10.900  11.290  68.648  1.00  0.00    -0.204 A  
HETATM   10  C   UNL     1      -9.635  10.759  68.885  1.00  0.00    -0.195 A  
HETATM   11  C   UNL     1      -9.594   9.847  70.019  1.00  0.00    -0.260 A  
HETATM   12  C   UNL     1      -8.778   8.273  71.723  1.00  0.00    -0.218 A  
HETATM   13  C   UNL     1     -10.831   9.815  70.667  1.00  0.00    -0.329 A  
HETATM   14  H   UNL     1      -9.428   7.088  73.864  1.00  0.00     0.000 HD 
HETATM   15  C   UNL     1      -8.559   9.047  70.578  1.00  0.00    -0.229 A  
HETATM   16  S   UNL     1     -12.006  10.743  69.842  1.00  0.00    -0.349 SA 
HETATM   17  C   UNL     1     -11.044   9.087  71.858  1.00  0.00    -0.433 A  
HETATM   18  C   UNL     1      -9.999   8.325  72.365  1.00  0.00    -0.309 A  
HETATM   19  O   UNL     1     -10.143   7.609  73.517  1.00  0.00    -0.325 OA 
BRANCH  10  20
HETATM   20  O   UNL     1      -8.579  11.186  68.135  1.00  0.00    -0.128 OA 
BRANCH  20  21
HETATM   21  C   UNL     1      -7.959  12.402  68.290  1.00  0.00    -0.160 A  
HETATM   22  C   UNL     1      -6.692  14.912  68.414  1.00  0.00    -0.101 A  
HETATM   23  C   UNL     1      -7.656  14.659  67.434  1.00  0.00    -0.218 A  
HETATM   24  C   UNL     1      -6.989  12.648  69.254  1.00  0.00     0.040 A  
HETATM   25  C   UNL     1      -8.289  13.408  67.375  1.00  0.00    -0.193 A  
HETATM   26  C   UNL     1      -6.393  13.901  69.340  1.00  0.00    -0.110 A  
BRANCH  22  27
HETATM   27  O   UNL     1      -6.075  16.145  68.385  1.00  0.00    -0.105 OA 
BRANCH  27  28
HETATM   28  C   UNL     1      -6.843  17.165  69.041  1.00  0.00    -0.231 C  
BRANCH  28  29
HETATM   29  C   UNL     1      -7.323  18.276  68.103  1.00  0.00    -0.260 C  
BRANCH  29  30
HETATM   30  N   UNL     1      -8.671  18.755  68.490  1.00  0.00    -0.340 NA 
HETATM   31  C   UNL     1      -9.080  20.032  67.882  1.00  0.00    -0.284 C  
HETATM   32  C   UNL     1      -9.442  19.942  66.398  1.00  0.00    -0.513 C  
HETATM   33  C   UNL     1     -10.436  18.819  66.119  1.00  0.00    -0.499 C  
HETATM   34  C   UNL     1     -10.018  17.516  66.792  1.00  0.00    -0.313 C  
HETATM   35  C   UNL     1      -9.703  17.736  68.271  1.00  0.00    -0.320 C  
ENDBRANCH  29  30
ENDBRANCH  28  29
ENDBRANCH  27  28
ENDBRANCH  22  27
ENDBRANCH  20  21
ENDBRANCH  10  20
ENDBRANCH   6   9
ENDBRANCH   2   3
TORSDOF 8
ENDMDL
MODEL       18
REMARK 921   NORMALIZED FREE ENERGY PREDICTED BY IDOCK:   -6.71 KCAL/MOL
REMARK 922        TOTAL FREE ENERGY PREDICTED BY IDOCK:  -11.60 KCAL/MOL
REMARK 923 INTER-LIGAND FREE ENERGY PREDICTED BY IDOCK:   -9.82 KCAL/MOL
REMARK 924 INTRA-LIGAND FREE ENERGY PREDICTED BY IDOCK:   -1.78 KCAL/MOL
REMARK 927      BINDING AFFINITY PREDICTED BY RF-SCORE:    0.00 PKD
ROOT
HETATM    1  C   UNL     1      -8.406   8.347  64.229  1.00  0.00    -0.083 C  
HETATM    2  O   UNL     1      -9.146   9.518  63.902  1.00  0.00    -0.230 OA 
ENDROOT
BRANCH   2   3
HETATM    3  C   UNL     1      -9.756  10.168  64.937  1.00  0.00    -0.324 A  
HETATM    4  C   UNL     1     -10.513  11.334  64.846  1.00  0.00    -0.375 A  
HETATM    5  C   UNL     1     -11.060  11.921  65.999  1.00  0.00    -0.369 A  
HETATM    6  C   UNL     1     -10.874  11.352  67.267  1.00  0.00    -0.311 A  
HETATM    7  C   UNL     1      -9.579   9.582  66.186  1.00  0.00    -0.302 A  
HETATM    8  C   UNL     1     -10.133  10.160  67.338  1.00  0.00    -0.251 A  
BRANCH   6   9
HETATM    9  C   UNL     1     -11.395  12.024  68.485  1.00  0.00    -0.272 A  
HETATM   10  C   UNL     1     -12.075  11.519  69.589  1.00  0.00    -0.296 A  
HETATM   11  C   UNL     1     -12.517  12.549  70.517  1.00  0.00    -0.266 A  
HETATM   12  C   UNL     1     -13.534  13.666  72.459  1.00  0.00    -0.675 A  
HETATM   13  C   UNL     1     -12.047  13.803  70.119  1.00  0.00    -0.359 A  
HETATM   14  H   UNL     1     -13.720  15.893  73.647  1.00  0.00     0.000 HD 
HETATM   15  C   UNL     1     -13.277  12.506  71.719  1.00  0.00    -0.444 A  
HETATM   16  S   UNL     1     -11.231  13.728  68.618  1.00  0.00    -0.297 SA 
HETATM   17  C   UNL     1     -12.245  14.968  70.891  1.00  0.00    -0.386 A  
HETATM   18  C   UNL     1     -12.992  14.871  72.058  1.00  0.00    -0.333 A  
HETATM   19  O   UNL     1     -13.209  15.960  72.849  1.00  0.00    -0.483 OA 
BRANCH  10  20
HETATM   20  O   UNL     1     -12.181  10.169  69.750  1.00  0.00    -0.081 OA 
BRANCH  20  21
HETATM   21  C   UNL     1     -11.539   9.451  70.729  1.00  0.00    -0.298 A  
HETATM   22  C   UNL     1     -10.374   8.019  72.852  1.00  0.00    -0.327 A  
HETATM   23  C   UNL     1     -11.760   8.006  72.672  1.00  0.00    -0.418 A  
HETATM   24  C   UNL     1     -10.163   9.477  70.918  1.00  0.00    -0.356 A  
HETATM   25  C   UNL     1     -12.339   8.718  71.612  1.00  0.00    -0.394 A  
HETATM   26  C   UNL     1      -9.584   8.736  71.942  1.00  0.00    -0.372 A  
BRANCH  22  27
HETATM   27  O   UNL     1      -9.875   7.337  73.943  1.00  0.00    -0.288 OA 
BRANCH  27  28
HETATM   28  C   UNL     1      -8.738   6.525  73.616  1.00  0.00    -0.124 C  
BRANCH  28  29
HETATM   29  C   UNL     1      -9.101   5.115  73.142  1.00  0.00    -0.127 C  
BRANCH  29  30
HETATM   30  N   UNL     1      -8.148   4.637  72.112  1.00  0.00    -0.100 NA 
HETATM   31  C   UNL     1      -8.297   3.223  71.729  1.00  0.00    -0.065 C  
HETATM   32  C   UNL     1      -9.522   2.926  70.861  1.00  0.00    -0.227 C  
HETATM   33  C   UNL     1      -9.616   3.867  69.664  1.00  0.00    -0.259 C  
HETATM   34  C   UNL     1      -9.416   5.323  70.073  1.00  0.00    -0.216 C  
HETATM   35  C   UNL     1      -8.154   5.489  70.918  1.00  0.00    -0.114 C  
ENDBRANCH  29  30
ENDBRANCH  28  29
ENDBRANCH  27  28
ENDBRANCH  22  27
ENDBRANCH  20  21
ENDBRANCH  10  20
ENDBRANCH   6   9
ENDBRANCH   2   3
TORSDOF 8
ENDMDL
MODEL       19
REMARK 921   NORMALIZED FREE ENERGY PREDICTED BY IDOCK:   -6.70 KCAL/MOL
REMARK 922        TOTAL FREE ENERGY PREDICTED BY IDOCK:  -11.58 KCAL/MOL
REMARK 923 INTER-LIGAND FREE ENERGY PREDICTED BY IDOCK:   -9.12 KCAL/MOL
REMARK 924 INTRA-LIGAND FREE ENERGY PREDICTED BY IDOCK:   -2.46 KCAL/MOL
REMARK 927      BINDING AFFINITY PREDICTED BY RF-SCORE:    0.00 PKD
ROOT
HETATM    1  C   UNL     1     -12.854  15.523  73.799  1.00  0.00    -0.540 C  
HETATM    2  O   UNL     1     -13.562  15.580  72.566  1.00  0.00    -0.459 OA 
ENDROOT
BRANCH   2   3
HETATM    3  C   UNL     1     -12.958  15.010  71.483  1.00  0.00    -0.358 A  
HETATM    4  C   UNL     1     -12.452  15.681  70.372  1.00  0.00    -0.409 A  
HETATM    5  C   UNL     1     -11.883  14.967  69.305  1.00  0.00    -0.350 A  
HETATM    6  C   UNL     1     -11.794  13.568  69.326  1.00  0.00    -0.392 A  
HETATM    7  C   UNL     1     -12.861  13.623  71.526  1.00  0.00    -0.445 A  
HETATM    8  C   UNL     1     -12.282  12.907  70.467  1.00  0.00    -0.395 A  
BRANCH   6   9
HETATM    9  C   UNL     1     -11.258  12.822  68.159  1.00  0.00    -0.272 A  
HETATM   10  C   UNL     1     -10.197  11.927  68.054  1.00  0.00    -0.192 A  
HETATM   11  C   UNL     1      -9.927  11.509  66.686  1.00  0.00    -0.236 A  
HETATM   12  C   UNL     1      -8.918  10.397  64.738  1.00  0.00    -0.228 A  
HETATM   13  C   UNL     1     -10.884  12.034  65.814  1.00  0.00    -0.287 A  
HETATM   14  H   UNL     1      -9.229   9.968  62.263  1.00  0.00     0.000 HD 
HETATM   15  C   UNL     1      -8.929  10.675  66.110  1.00  0.00    -0.184 A  
HETATM   16  S   UNL     1     -11.963  13.090  66.617  1.00  0.00    -0.340 SA 
HETATM   17  C   UNL     1     -10.918  11.709  64.441  1.00  0.00    -0.399 A  
HETATM   18  C   UNL     1      -9.923  10.887  63.930  1.00  0.00    -0.343 A  
HETATM   19  O   UNL     1      -9.911  10.531  62.613  1.00  0.00    -0.260 OA 
BRANCH  10  20
HETATM   20  O   UNL     1      -9.594  11.467  69.188  1.00  0.00    -0.013 OA 
BRANCH  20  21
HETATM   21  C   UNL     1      -9.773  10.208  69.705  1.00  0.00    -0.221 A  
HETATM   22  C   UNL     1      -9.981   7.571  70.667  1.00  0.00    -0.183 A  
HETATM   23  C   UNL     1      -8.724   8.150  70.468  1.00  0.00    -0.135 A  
HETATM   24  C   UNL     1     -11.022   9.627  69.887  1.00  0.00    -0.281 A  
HETATM   25  C   UNL     1      -8.622   9.465  69.991  1.00  0.00    -0.218 A  
HETATM   26  C   UNL     1     -11.125   8.339  70.402  1.00  0.00    -0.238 A  
BRANCH  22  27
HETATM   27  O   UNL     1     -10.009   6.260  71.092  1.00  0.00    -0.179 OA 
BRANCH  27  28
HETATM   28  C   UNL     1     -10.615   5.379  70.134  1.00  0.00    -0.274 C  
BRANCH  28  29
HETATM   29  C   UNL     1      -9.666   4.930  69.020  1.00  0.00    -0.175 C  
BRANCH  29  30
HETATM   30  N   UNL     1     -10.340   4.961  67.701  1.00  0.00    -0.077 NA 
HETATM   31  C   UNL     1     -10.937   6.256  67.333  1.00  0.00    -0.356 C  
HETATM   32  C   UNL     1      -9.923   7.332  66.939  1.00  0.00    -0.302 C  
HETATM   33  C   UNL     1      -8.932   6.830  65.895  1.00  0.00    -0.095 C  
HETATM   34  C   UNL     1      -8.357   5.468  66.271  1.00  0.00    -0.112 C  
HETATM   35  C   UNL     1      -9.468   4.480  66.624  1.00  0.00    -0.174 C  
ENDBRANCH  29  30
ENDBRANCH  28  29
ENDBRANCH  27  28
ENDBRANCH  22  27
ENDBRANCH  20  21
ENDBRANCH  10  20
ENDBRANCH   6   9
ENDBRANCH   2   3
TORSDOF 8
ENDMDL
MODEL       20
REMARK 921   NORMALIZED FREE ENERGY PREDICTED BY IDOCK:   -6.69 KCAL/MOL
REMARK 922        TOTAL FREE ENERGY PREDICTED BY IDOCK:  -11.58 KCAL/MOL
REMARK 923 INTER-LIGAND FREE ENERGY PREDICTED BY IDOCK:   -9.81 KCAL/MOL
REMARK 924 INTRA-LIGAND FREE ENERGY PREDICTED BY IDOCK:   -1.76 KCAL/MOL
REMARK 927      BINDING AFFINITY PREDICTED BY RF-SCORE:    0.00 PKD
ROOT
HETATM    1  C   UNL     1     -12.474  15.856  74.449  1.00  0.00    -0.621 C  
HETATM    2  O   UNL     1     -13.165  16.072  73.224  1.00  0.00    -0.544 OA 
ENDROOT
BRANCH   2   3
HETATM    3  C   UNL     1     -12.676  15.432  72.122  1.00  0.00    -0.373 A  
HETATM    4  C   UNL     1     -11.745  15.941  71.218  1.00  0.00    -0.504 A  
HETATM    5  C   UNL     1     -11.350  15.187  70.100  1.00  0.00    -0.300 A  
HETATM    6  C   UNL     1     -11.865  13.905  69.865  1.00  0.00    -0.394 A  
HETATM    7  C   UNL     1     -13.182  14.154  71.911  1.00  0.00    -0.468 A  
HETATM    8  C   UNL     1     -12.781  13.393  70.801  1.00  0.00    -0.301 A  
BRANCH   6   9
HETATM    9  C   UNL     1     -11.495  13.151  68.640  1.00  0.00    -0.305 A  
HETATM   10  C   UNL     1     -10.669  12.045  68.461  1.00  0.00    -0.234 A  
HETATM   11  C   UNL     1     -10.478  11.686  67.063  1.00  0.00    -0.258 A  
HETATM   12  C   UNL     1      -9.719  10.528  65.030  1.00  0.00    -0.351 A  
HETATM   13  C   UNL     1     -11.271  12.487  66.238  1.00  0.00    -0.315 A  
HETATM   14  H   UNL     1     -10.077  10.383  62.528  1.00  0.00     0.000 HD 
HETATM   15  C   UNL     1      -9.691  10.691  66.420  1.00  0.00    -0.241 A  
HETATM   16  S   UNL     1     -12.091  13.697  67.125  1.00  0.00    -0.313 SA 
HETATM   17  C   UNL     1     -11.355  12.290  64.843  1.00  0.00    -0.373 A  
HETATM   18  C   UNL     1     -10.569  11.302  64.265  1.00  0.00    -0.358 A  
HETATM   19  O   UNL     1     -10.615  11.059  62.923  1.00  0.00    -0.085 OA 
BRANCH  10  20
HETATM   20  O   UNL     1     -10.211  11.368  69.553  1.00  0.00     0.017 OA 
BRANCH  20  21
HETATM   21  C   UNL     1     -10.686  10.147  69.965  1.00  0.00    -0.305 A  
HETATM   22  C   UNL     1     -11.634   7.582  70.629  1.00  0.00    -0.248 A  
HETATM   23  C   UNL     1     -10.602   7.731  69.698  1.00  0.00    -0.242 A  
HETATM   24  C   UNL     1     -11.723  10.000  70.879  1.00  0.00    -0.462 A  
HETATM   25  C   UNL     1     -10.129   9.010  69.370  1.00  0.00    -0.198 A  
HETATM   26  C   UNL     1     -12.162   8.730  71.237  1.00  0.00    -0.332 A  
BRANCH  22  27
HETATM   27  O   UNL     1     -12.083   6.301  70.870  1.00  0.00    -0.205 OA 
BRANCH  27  28
HETATM   28  C   UNL     1     -11.906   5.898  72.235  1.00  0.00    -0.208 C  
BRANCH  28  29
HETATM   29  C   UNL     1     -10.513   5.339  72.540  1.00  0.00    -0.216 C  
BRANCH  29  30
HETATM   30  N   UNL     1     -10.068   5.727  73.898  1.00  0.00    -0.208 NA 
HETATM   31  C   UNL     1      -8.742   5.222  74.292  1.00  0.00    -0.116 C  
HETATM   32  C   UNL     1      -7.567   5.925  73.609  1.00  0.00    -0.097 C  
HETATM   33  C   UNL     1      -7.667   7.443  73.719  1.00  0.00    -0.136 C  
HETATM   34  C   UNL     1      -9.059   7.944  73.350  1.00  0.00    -0.347 C  
HETATM   35  C   UNL     1     -10.140   7.177  74.109  1.00  0.00    -0.172 C  
ENDBRANCH  29  30
ENDBRANCH  28  29
ENDBRANCH  27  28
ENDBRANCH  22  27
ENDBRANCH  20  21
ENDBRANCH  10  20
ENDBRANCH   6   9
ENDBRANCH   2   3
TORSDOF 8
ENDMDL
MODEL       21
REMARK 921   NORMALIZED FREE ENERGY PREDICTED BY IDOCK:   -6.64 KCAL/MOL
REMARK 922        TOTAL FREE ENERGY PREDICTED BY IDOCK:  -11.50 KCAL/MOL
REMARK 923 INTER-LIGAND FREE ENERGY PREDICTED BY IDOCK:   -9.55 KCAL/MOL
REMARK 924 INTRA-LIGAND FREE ENERGY PREDICTED BY IDOCK:   -1.95 KCAL/MOL
REMARK 927      BINDING AFFINITY PREDICTED BY RF-SCORE:    0.00 PKD
ROOT
HETATM    1  C   UNL     1      -9.800   8.734  66.581  1.00  0.00    -0.265 C  
HETATM    2  O   UNL     1      -9.930   9.672  65.518  1.00  0.00    -0.311 OA 
ENDROOT
BRANCH   2   3
HETATM    3  C   UNL     1      -9.742  10.987  65.833  1.00  0.00    -0.224 A  
HETATM    4  C   UNL     1      -8.967  11.482  66.879  1.00  0.00    -0.179 A  
HETATM    5  C   UNL     1      -8.884  12.864  67.114  1.00  0.00    -0.210 A  
HETATM    6  C   UNL     1      -9.564  13.785  66.304  1.00  0.00    -0.265 A  
HETATM    7  C   UNL     1     -10.407  11.889  65.010  1.00  0.00    -0.330 A  
HETATM    8  C   UNL     1     -10.318  13.272  65.235  1.00  0.00    -0.324 A  
BRANCH   6   9
HETATM    9  C   UNL     1      -9.527  15.238  66.611  1.00  0.00    -0.259 A  
HETATM   10  C   UNL     1     -10.522  16.105  67.052  1.00  0.00    -0.306 A  
HETATM   11  C   UNL     1     -10.092  17.494  67.114  1.00  0.00    -0.321 A  
HETATM   12  C   UNL     1     -10.096  19.929  67.465  1.00  0.00    -0.566 A  
HETATM   13  C   UNL     1      -8.731  17.601  66.815  1.00  0.00    -0.258 A  
HETATM   14  H   UNL     1      -8.596  21.966  67.553  1.00  0.00     0.000 HD 
HETATM   15  C   UNL     1     -10.769  18.702  67.442  1.00  0.00    -0.456 A  
HETATM   16  S   UNL     1      -8.064  16.097  66.349  1.00  0.00    -0.183 SA 
HETATM   17  C   UNL     1      -8.030  18.823  66.896  1.00  0.00    -0.262 A  
HETATM   18  C   UNL     1      -8.737  19.972  67.225  1.00  0.00    -0.343 A  
HETATM   19  O   UNL     1      -8.111  21.180  67.328  1.00  0.00    -0.207 OA 
BRANCH  10  20
HETATM   20  O   UNL     1     -11.721  15.598  67.458  1.00  0.00    -0.139 OA 
BRANCH  20  21
HETATM   21  C   UNL     1     -11.895  14.818  68.575  1.00  0.00    -0.306 A  
HETATM   22  C   UNL     1     -12.377  13.115  70.763  1.00  0.00    -0.321 A  
HETATM   23  C   UNL     1     -12.366  12.603  69.462  1.00  0.00    -0.002 A  
HETATM   24  C   UNL     1     -11.923  15.330  69.867  1.00  0.00    -0.373 A  
HETATM   25  C   UNL     1     -12.123  13.453  68.373  1.00  0.00    -0.270 A  
HETATM   26  C   UNL     1     -12.120  14.481  70.950  1.00  0.00    -0.404 A  
BRANCH  22  27
HETATM   27  O   UNL     1     -12.670  12.234  71.782  1.00  0.00    -0.260 OA 
BRANCH  27  28
HETATM   28  C   UNL     1     -13.043  10.934  71.302  1.00  0.00    -0.308 C  
BRANCH  28  29
HETATM   29  C   UNL     1     -12.419   9.780  72.092  1.00  0.00    -0.223 C  
BRANCH  29  30
HETATM   30  N   UNL     1     -11.882   8.741  71.183  1.00  0.00    -0.292 NA 
HETATM   31  C   UNL     1     -11.174   9.251  69.997  1.00  0.00    -0.168 C  
HETATM   32  C   UNL     1      -9.791   9.839  70.287  1.00  0.00    -0.296 C  
HETATM   33  C   UNL     1      -8.930   8.891  71.116  1.00  0.00    -0.305 C  
HETATM   34  C   UNL     1      -9.693   8.339  72.315  1.00  0.00    -0.362 C  
HETATM   35  C   UNL     1     -11.045   7.767  71.891  1.00  0.00    -0.257 C  
ENDBRANCH  29  30
ENDBRANCH  28  29
ENDBRANCH  27  28
ENDBRANCH  22  27
ENDBRANCH  20  21
ENDBRANCH  10  20
ENDBRANCH   6   9
ENDBRANCH   2   3
TORSDOF 8
ENDMDL
MODEL       22
REMARK 921   NORMALIZED FREE ENERGY PREDICTED BY IDOCK:   -6.62 KCAL/MOL
REMARK 922        TOTAL FREE ENERGY PREDICTED BY IDOCK:  -11.47 KCAL/MOL
REMARK 923 INTER-LIGAND FREE ENERGY PREDICTED BY IDOCK:   -9.61 KCAL/MOL
REMARK 924 INTRA-LIGAND FREE ENERGY PREDICTED BY IDOCK:   -1.86 KCAL/MOL
REMARK 927      BINDING AFFINITY PREDICTED BY RF-SCORE:    0.00 PKD
ROOT
HETATM    1  C   UNL     1      -9.985   4.359  65.974  1.00  0.00    -0.240 C  
HETATM    2  O   UNL     1      -9.080   5.256  66.607  1.00  0.00    -0.118 OA 
ENDROOT
BRANCH   2   3
HETATM    3  C   UNL     1      -9.244   6.585  66.340  1.00  0.00    -0.153 A  
HETATM    4  C   UNL     1      -8.407   7.380  65.561  1.00  0.00    -0.139 A  
HETATM    5  C   UNL     1      -8.674   8.749  65.395  1.00  0.00    -0.217 A  
HETATM    6  C   UNL     1      -9.789   9.353  65.992  1.00  0.00    -0.366 A  
HETATM    7  C   UNL     1     -10.364   7.167  66.925  1.00  0.00    -0.349 A  
HETATM    8  C   UNL     1     -10.641   8.533  66.751  1.00  0.00    -0.227 A  
BRANCH   6   9
HETATM    9  C   UNL     1     -10.017  10.816  65.868  1.00  0.00    -0.250 A  
HETATM   10  C   UNL     1      -9.825  11.852  66.777  1.00  0.00    -0.197 A  
HETATM   11  C   UNL     1     -10.291  13.142  66.290  1.00  0.00    -0.291 A  
HETATM   12  C   UNL     1     -10.819  15.541  66.166  1.00  0.00    -0.295 A  
HETATM   13  C   UNL     1     -10.725  13.039  64.966  1.00  0.00    -0.315 A  
HETATM   14  H   UNL     1     -11.582  17.369  64.588  1.00  0.00     0.000 HD 
HETATM   15  C   UNL     1     -10.351  14.435  66.882  1.00  0.00    -0.265 A  
HETATM   16  S   UNL     1     -10.688  11.424  64.409  1.00  0.00    -0.331 SA 
HETATM   17  C   UNL     1     -11.138  14.160  64.215  1.00  0.00    -0.146 A  
HETATM   18  C   UNL     1     -11.175  15.400  64.839  1.00  0.00    -0.403 A  
HETATM   19  O   UNL     1     -11.557  16.520  64.160  1.00  0.00    -1.052 OA 
BRANCH  10  20
HETATM   20  O   UNL     1      -9.164  11.605  67.945  1.00  0.00    -0.160 OA 
BRANCH  20  21
HETATM   21  C   UNL     1      -9.712  10.955  69.023  1.00  0.00    -0.166 A  
HETATM   22  C   UNL     1     -10.733   9.467  71.182  1.00  0.00    -0.338 A  
HETATM   23  C   UNL     1      -9.416   9.273  70.755  1.00  0.00    -0.336 A  
HETATM   24  C   UNL     1     -11.026  11.136  69.438  1.00  0.00    -0.298 A  
HETATM   25  C   UNL     1      -8.908  10.017  69.680  1.00  0.00    -0.217 A  
HETATM   26  C   UNL     1     -11.517  10.431  70.531  1.00  0.00    -0.431 A  
BRANCH  22  27
HETATM   27  O   UNL     1     -11.183   8.669  72.213  1.00  0.00    -0.353 OA 
BRANCH  27  28
HETATM   28  C   UNL     1     -10.122   7.959  72.869  1.00  0.00    -0.310 C  
BRANCH  28  29
HETATM   29  C   UNL     1     -10.565   6.642  73.513  1.00  0.00    -0.311 C  
BRANCH  29  30
HETATM   30  N   UNL     1     -11.350   5.821  72.563  1.00  0.00    -0.297 NA 
HETATM   31  C   UNL     1     -10.730   5.628  71.241  1.00  0.00    -0.244 C  
HETATM   32  C   UNL     1      -9.542   4.663  71.233  1.00  0.00    -0.238 C  
HETATM   33  C   UNL     1      -9.874   3.341  71.919  1.00  0.00    -0.238 C  
HETATM   34  C   UNL     1     -10.555   3.561  73.266  1.00  0.00    -0.277 C  
HETATM   35  C   UNL     1     -11.732   4.527  73.137  1.00  0.00    -0.044 C  
ENDBRANCH  29  30
ENDBRANCH  28  29
ENDBRANCH  27  28
ENDBRANCH  22  27
ENDBRANCH  20  21
ENDBRANCH  10  20
ENDBRANCH   6   9
ENDBRANCH   2   3
TORSDOF 8
ENDMDL
MODEL       23
REMARK 921   NORMALIZED FREE ENERGY PREDICTED BY IDOCK:   -6.59 KCAL/MOL
REMARK 922        TOTAL FREE ENERGY PREDICTED BY IDOCK:  -11.42 KCAL/MOL
REMARK 923 INTER-LIGAND FREE ENERGY PREDICTED BY IDOCK:  -10.00 KCAL/MOL
REMARK 924 INTRA-LIGAND FREE ENERGY PREDICTED BY IDOCK:   -1.42 KCAL/MOL
REMARK 927      BINDING AFFINITY PREDICTED BY RF-SCORE:    0.00 PKD
ROOT
HETATM    1  C   UNL     1      -6.660   8.685  62.448  1.00  0.00    -0.095 C  
HETATM    2  O   UNL     1      -7.022   9.983  62.905  1.00  0.00    -0.120 OA 
ENDROOT
BRANCH   2   3
HETATM    3  C   UNL     1      -7.712  10.050  64.081  1.00  0.00    -0.144 A  
HETATM    4  C   UNL     1      -7.172  10.302  65.341  1.00  0.00    -0.143 A  
HETATM    5  C   UNL     1      -7.993  10.310  66.480  1.00  0.00    -0.118 A  
HETATM    6  C   UNL     1      -9.373  10.077  66.389  1.00  0.00    -0.211 A  
HETATM    7  C   UNL     1      -9.082   9.835  63.973  1.00  0.00    -0.280 A  
HETATM    8  C   UNL     1      -9.907   9.853  65.108  1.00  0.00    -0.348 A  
BRANCH   6   9
HETATM    9  C   UNL     1     -10.215  10.015  67.610  1.00  0.00    -0.204 A  
HETATM   10  C   UNL     1     -11.272  10.815  68.035  1.00  0.00    -0.307 A  
HETATM   11  C   UNL     1     -11.752  10.479  69.368  1.00  0.00    -0.295 A  
HETATM   12  C   UNL     1     -13.047  10.497  71.459  1.00  0.00    -0.532 A  
HETATM   13  C   UNL     1     -11.094   9.347  69.855  1.00  0.00    -0.200 A  
HETATM   14  H   UNL     1     -13.462   9.205  73.596  1.00  0.00     0.000 HD 
HETATM   15  C   UNL     1     -12.747  11.051  70.209  1.00  0.00    -0.256 A  
HETATM   16  S   UNL     1      -9.864   8.819  68.792  1.00  0.00    -0.176 SA 
HETATM   17  C   UNL     1     -11.433   8.745  71.086  1.00  0.00    -0.344 A  
HETATM   18  C   UNL     1     -12.415   9.340  71.867  1.00  0.00    -0.382 A  
HETATM   19  O   UNL     1     -12.791   8.798  73.061  1.00  0.00    -0.272 OA 
BRANCH  10  20
HETATM   20  O   UNL     1     -11.804  11.732  67.177  1.00  0.00    -0.599 OA 
BRANCH  20  21
HETATM   21  C   UNL     1     -11.186  12.904  66.814  1.00  0.00    -0.298 A  
HETATM   22  C   UNL     1      -9.868  15.218  65.905  1.00  0.00    -0.354 A  
HETATM   23  C   UNL     1     -10.535  14.387  65.000  1.00  0.00    -0.454 A  
HETATM   24  C   UNL     1     -10.509  13.721  67.711  1.00  0.00    -0.240 A  
HETATM   25  C   UNL     1     -11.194  13.235  65.455  1.00  0.00    -0.306 A  
HETATM   26  C   UNL     1      -9.893  14.886  67.267  1.00  0.00    -0.229 A  
BRANCH  22  27
HETATM   27  O   UNL     1      -9.201  16.307  65.384  1.00  0.00    -0.316 OA 
BRANCH  27  28
HETATM   28  C   UNL     1      -8.109  16.735  66.210  1.00  0.00    -0.330 C  
BRANCH  28  29
HETATM   29  C   UNL     1      -7.753  18.216  66.047  1.00  0.00    -0.169 C  
BRANCH  29  30
HETATM   30  N   UNL     1      -7.668  18.892  67.362  1.00  0.00    -0.231 NA 
HETATM   31  C   UNL     1      -7.974  20.332  67.347  1.00  0.00    -0.329 C  
HETATM   32  C   UNL     1      -9.458  20.663  67.174  1.00  0.00    -0.505 C  
HETATM   33  C   UNL     1     -10.335  19.891  68.155  1.00  0.00    -0.533 C  
HETATM   34  C   UNL     1      -9.974  18.410  68.188  1.00  0.00    -0.388 C  
HETATM   35  C   UNL     1      -8.471  18.213  68.385  1.00  0.00    -0.299 C  
ENDBRANCH  29  30
ENDBRANCH  28  29
ENDBRANCH  27  28
ENDBRANCH  22  27
ENDBRANCH  20  21
ENDBRANCH  10  20
ENDBRANCH   6   9
ENDBRANCH   2   3
TORSDOF 8
ENDMDL
MODEL       24
REMARK 921   NORMALIZED FREE ENERGY PREDICTED BY IDOCK:   -6.49 KCAL/MOL
REMARK 922        TOTAL FREE ENERGY PREDICTED BY IDOCK:  -11.28 KCAL/MOL
REMARK 923 INTER-LIGAND FREE ENERGY PREDICTED BY IDOCK:   -9.38 KCAL/MOL
REMARK 924 INTRA-LIGAND FREE ENERGY PREDICTED BY IDOCK:   -1.89 KCAL/MOL
REMARK 927      BINDING AFFINITY PREDICTED BY RF-SCORE:    0.00 PKD
ROOT
HETATM    1  C   UNL     1     -10.180  19.863  66.205  1.00  0.00    -0.502 C  
HETATM    2  O   UNL     1     -10.169  18.579  65.592  1.00  0.00    -0.552 OA 
ENDROOT
BRANCH   2   3
HETATM    3  C   UNL     1     -10.439  17.511  66.397  1.00  0.00    -0.277 A  
HETATM    4  C   UNL     1     -10.576  17.537  67.783  1.00  0.00    -0.375 A  
HETATM    5  C   UNL     1     -10.822  16.354  68.499  1.00  0.00    -0.339 A  
HETATM    6  C   UNL     1     -10.947  15.119  67.848  1.00  0.00    -0.302 A  
HETATM    7  C   UNL     1     -10.579  16.295  65.736  1.00  0.00    -0.336 A  
HETATM    8  C   UNL     1     -10.836  15.113  66.446  1.00  0.00    -0.326 A  
BRANCH   6   9
HETATM    9  C   UNL     1     -11.132  13.866  68.624  1.00  0.00    -0.265 A  
HETATM   10  C   UNL     1     -10.485  12.636  68.545  1.00  0.00    -0.234 A  
HETATM   11  C   UNL     1     -11.059  11.624  69.418  1.00  0.00    -0.268 A  
HETATM   12  C   UNL     1     -11.462   9.490  70.574  1.00  0.00    -0.337 A  
HETATM   13  C   UNL     1     -12.066  12.176  70.214  1.00  0.00    -0.302 A  
HETATM   14  H   UNL     1     -12.779   8.420  72.452  1.00  0.00     0.000 HD 
HETATM   15  C   UNL     1     -10.770  10.245  69.621  1.00  0.00    -0.299 A  
HETATM   16  S   UNL     1     -12.376  13.807  69.806  1.00  0.00    -0.179 SA 
HETATM   17  C   UNL     1     -12.726  11.439  71.221  1.00  0.00    -0.498 A  
HETATM   18  C   UNL     1     -12.403  10.097  71.381  1.00  0.00    -0.416 A  
HETATM   19  O   UNL     1     -13.001   9.338  72.343  1.00  0.00    -0.403 OA 
BRANCH  10  20
HETATM   20  O   UNL     1      -9.369  12.516  67.770  1.00  0.00    -0.184 OA 
BRANCH  20  21
HETATM   21  C   UNL     1      -9.211  11.582  66.776  1.00  0.00    -0.181 A  
HETATM   22  C   UNL     1      -8.708   9.735  64.714  1.00  0.00    -0.192 A  
HETATM   23  C   UNL     1      -7.684  10.107  65.589  1.00  0.00    -0.143 A  
HETATM   24  C   UNL     1     -10.225  11.224  65.896  1.00  0.00    -0.298 A  
HETATM   25  C   UNL     1      -7.937  11.025  66.618  1.00  0.00    -0.156 A  
HETATM   26  C   UNL     1      -9.987  10.281  64.902  1.00  0.00    -0.393 A  
BRANCH  22  27
HETATM   27  O   UNL     1      -8.379   8.864  63.696  1.00  0.00    -0.174 OA 
BRANCH  27  28
HETATM   28  C   UNL     1      -7.594   7.752  64.149  1.00  0.00    -0.113 C  
BRANCH  28  29
HETATM   29  C   UNL     1      -8.411   6.481  64.403  1.00  0.00     0.077 C  
BRANCH  29  30
HETATM   30  N   UNL     1      -8.225   5.997  65.791  1.00  0.00    -0.129 NA 
HETATM   31  C   UNL     1      -8.519   6.984  66.843  1.00  0.00    -0.119 C  
HETATM   32  C   UNL     1     -10.009   7.270  67.047  1.00  0.00    -0.293 C  
HETATM   33  C   UNL     1     -10.820   5.987  67.208  1.00  0.00    -0.403 C  
HETATM   34  C   UNL     1     -10.470   4.961  66.136  1.00  0.00    -0.346 C  
HETATM   35  C   UNL     1      -8.959   4.753  66.044  1.00  0.00    -0.126 C  
ENDBRANCH  29  30
ENDBRANCH  28  29
ENDBRANCH  27  28
ENDBRANCH  22  27
ENDBRANCH  20  21
ENDBRANCH  10  20
ENDBRANCH   6   9
ENDBRANCH   2   3
TORSDOF 8
ENDMDL
MODEL       25
REMARK 921   NORMALIZED FREE ENERGY PREDICTED BY IDOCK:   -6.48 KCAL/MOL
REMARK 922        TOTAL FREE ENERGY PREDICTED BY IDOCK:  -11.27 KCAL/MOL
REMARK 923 INTER-LIGAND FREE ENERGY PREDICTED BY IDOCK:   -9.79 KCAL/MOL
REMARK 924 INTRA-LIGAND FREE ENERGY PREDICTED BY IDOCK:   -1.47 KCAL/MOL
REMARK 927      BINDING AFFINITY PREDICTED BY RF-SCORE:    0.00 PKD
ROOT
HETATM    1  C   UNL     1      -8.695  10.868  62.387  1.00  0.00    -0.309 C  
HETATM    2  O   UNL     1      -7.693  10.547  63.345  1.00  0.00    -0.110 OA 
ENDROOT
BRANCH   2   3
HETATM    3  C   UNL     1      -8.119  10.275  64.613  1.00  0.00    -0.154 A  
HETATM    4  C   UNL     1      -7.400  10.482  65.788  1.00  0.00    -0.137 A  
HETATM    5  C   UNL     1      -7.945  10.124  67.032  1.00  0.00    -0.110 A  
HETATM    6  C   UNL     1      -9.225   9.562  67.133  1.00  0.00    -0.158 A  
HETATM    7  C   UNL     1      -9.398   9.734  64.700  1.00  0.00    -0.318 A  
HETATM    8  C   UNL     1      -9.951   9.386  65.942  1.00  0.00    -0.327 A  
BRANCH   6   9
HETATM    9  C   UNL     1      -9.758   9.120  68.448  1.00  0.00    -0.152 A  
HETATM   10  C   UNL     1     -10.876   9.532  69.167  1.00  0.00    -0.173 A  
HETATM   11  C   UNL     1     -10.974   8.921  70.484  1.00  0.00    -0.280 A  
HETATM   12  C   UNL     1     -11.780   8.325  72.731  1.00  0.00    -0.305 A  
HETATM   13  C   UNL     1      -9.964   7.972  70.661  1.00  0.00    -0.189 A  
HETATM   14  H   UNL     1     -11.409   6.727  74.659  1.00  0.00     0.000 HD 
HETATM   15  C   UNL     1     -11.891   9.084  71.560  1.00  0.00    -0.415 A  
HETATM   16  S   UNL     1      -8.881   7.943  69.338  1.00  0.00    -0.145 SA 
HETATM   17  C   UNL     1      -9.881   7.158  71.811  1.00  0.00    -0.171 A  
HETATM   18  C   UNL     1     -10.803   7.355  72.831  1.00  0.00    -0.354 A  
HETATM   19  O   UNL     1     -10.778   6.592  73.961  1.00  0.00    -0.262 OA 
BRANCH  10  20
HETATM   20  O   UNL     1     -11.788  10.356  68.574  1.00  0.00    -0.280 OA 
BRANCH  20  21
HETATM   21  C   UNL     1     -11.719  11.727  68.588  1.00  0.00    -0.330 A  
HETATM   22  C   UNL     1     -11.712  14.536  68.757  1.00  0.00    -0.327 A  
HETATM   23  C   UNL     1     -11.884  13.763  69.909  1.00  0.00    -0.394 A  
HETATM   24  C   UNL     1     -11.565  12.496  67.441  1.00  0.00    -0.434 A  
HETATM   25  C   UNL     1     -11.884  12.363  69.824  1.00  0.00    -0.387 A  
HETATM   26  C   UNL     1     -11.521  13.883  67.531  1.00  0.00    -0.368 A  
BRANCH  22  27
HETATM   27  O   UNL     1     -11.770  15.906  68.906  1.00  0.00    -0.390 OA 
BRANCH  27  28
HETATM   28  C   UNL     1     -10.521  16.471  69.333  1.00  0.00    -0.320 C  
BRANCH  28  29
HETATM   29  C   UNL     1      -9.566  16.800  68.182  1.00  0.00    -0.242 C  
BRANCH  29  30
HETATM   30  N   UNL     1      -8.877  18.091  68.414  1.00  0.00    -0.288 NA 
HETATM   31  C   UNL     1      -8.039  18.563  67.299  1.00  0.00    -0.241 C  
HETATM   32  C   UNL     1      -8.823  19.096  66.097  1.00  0.00    -0.224 C  
HETATM   33  C   UNL     1      -9.875  20.120  66.510  1.00  0.00    -0.574 C  
HETATM   34  C   UNL     1     -10.704  19.633  67.693  1.00  0.00    -0.500 C  
HETATM   35  C   UNL     1      -9.807  19.146  68.831  1.00  0.00    -0.424 C  
ENDBRANCH  29  30
ENDBRANCH  28  29
ENDBRANCH  27  28
ENDBRANCH  22  27
ENDBRANCH  20  21
ENDBRANCH  10  20
ENDBRANCH   6   9
ENDBRANCH   2   3
TORSDOF 8
ENDMDL
MODEL       26
REMARK 921   NORMALIZED FREE ENERGY PREDICTED BY IDOCK:   -6.47 KCAL/MOL
REMARK 922        TOTAL FREE ENERGY PREDICTED BY IDOCK:  -11.25 KCAL/MOL
REMARK 923 INTER-LIGAND FREE ENERGY PREDICTED BY IDOCK:   -9.75 KCAL/MOL
REMARK 924 INTRA-LIGAND FREE ENERGY PREDICTED BY IDOCK:   -1.50 KCAL/MOL
REMARK 927      BINDING AFFINITY PREDICTED BY RF-SCORE:    0.00 PKD
ROOT
HETATM    1  C   UNL     1     -10.010  10.919  62.959  1.00  0.00    -0.274 C  
HETATM    2  O   UNL     1      -9.198  10.685  64.104  1.00  0.00    -0.205 OA 
ENDROOT
BRANCH   2   3
HETATM    3  C   UNL     1      -9.602  11.264  65.272  1.00  0.00    -0.232 A  
HETATM    4  C   UNL     1      -8.837  11.410  66.428  1.00  0.00    -0.193 A  
HETATM    5  C   UNL     1      -9.388  11.997  67.579  1.00  0.00    -0.179 A  
HETATM    6  C   UNL     1     -10.710  12.463  67.600  1.00  0.00    -0.248 A  
HETATM    7  C   UNL     1     -10.910  11.738  65.273  1.00  0.00    -0.343 A  
HETATM    8  C   UNL     1     -11.460  12.336  66.418  1.00  0.00    -0.434 A  
BRANCH   6   9
HETATM    9  C   UNL     1     -11.302  13.013  68.846  1.00  0.00    -0.287 A  
HETATM   10  C   UNL     1     -12.200  12.461  69.755  1.00  0.00    -0.131 A  
HETATM   11  C   UNL     1     -12.621  13.392  70.791  1.00  0.00    -0.369 A  
HETATM   12  C   UNL     1     -13.740  14.343  72.764  1.00  0.00    -0.466 A  
HETATM   13  C   UNL     1     -11.924  14.598  70.680  1.00  0.00    -0.315 A  
HETATM   14  H   UNL     1     -13.779  16.358  74.297  1.00  0.00     0.000 HD 
HETATM   15  C   UNL     1     -13.547  13.288  71.866  1.00  0.00    -0.473 A  
HETATM   16  S   UNL     1     -10.918  14.625  69.297  1.00  0.00    -0.261 SA 
HETATM   17  C   UNL     1     -12.066  15.645  71.616  1.00  0.00    -0.496 A  
HETATM   18  C   UNL     1     -12.980  15.490  72.650  1.00  0.00    -0.445 A  
HETATM   19  O   UNL     1     -13.153  16.464  73.589  1.00  0.00    -0.609 OA 
BRANCH  10  20
HETATM   20  O   UNL     1     -12.519  11.138  69.660  1.00  0.00    -0.259 OA 
BRANCH  20  21
HETATM   21  C   UNL     1     -12.087  10.171  70.535  1.00  0.00    -0.291 A  
HETATM   22  C   UNL     1     -11.334   8.255  72.452  1.00  0.00    -0.388 A  
HETATM   23  C   UNL     1     -12.672   8.641  72.333  1.00  0.00    -0.423 A  
HETATM   24  C   UNL     1     -10.755   9.798  70.665  1.00  0.00    -0.394 A  
HETATM   25  C   UNL     1     -13.046   9.594  71.375  1.00  0.00    -0.471 A  
HETATM   26  C   UNL     1     -10.390   8.822  71.584  1.00  0.00    -0.391 A  
BRANCH  22  27
HETATM   27  O   UNL     1     -11.028   7.349  73.447  1.00  0.00    -0.378 OA 
BRANCH  27  28
HETATM   28  C   UNL     1      -9.622   7.285  73.725  1.00  0.00    -0.285 C  
BRANCH  28  29
HETATM   29  C   UNL     1      -8.925   6.067  73.112  1.00  0.00    -0.130 C  
BRANCH  29  30
HETATM   30  N   UNL     1      -7.459   6.136  73.309  1.00  0.00    -0.092 NA 
HETATM   31  C   UNL     1      -6.668   5.237  72.453  1.00  0.00    -0.069 C  
HETATM   32  C   UNL     1      -6.580   5.671  70.988  1.00  0.00    -0.048 C  
HETATM   33  C   UNL     1      -6.157   7.130  70.848  1.00  0.00    -0.036 C  
HETATM   34  C   UNL     1      -6.956   8.040  71.774  1.00  0.00    -0.069 C  
HETATM   35  C   UNL     1      -6.952   7.509  73.207  1.00  0.00    -0.068 C  
ENDBRANCH  29  30
ENDBRANCH  28  29
ENDBRANCH  27  28
ENDBRANCH  22  27
ENDBRANCH  20  21
ENDBRANCH  10  20
ENDBRANCH   6   9
ENDBRANCH   2   3
TORSDOF 8
ENDMDL
MODEL       27
REMARK 921   NORMALIZED FREE ENERGY PREDICTED BY IDOCK:   -6.47 KCAL/MOL
REMARK 922        TOTAL FREE ENERGY PREDICTED BY IDOCK:  -11.24 KCAL/MOL
REMARK 923 INTER-LIGAND FREE ENERGY PREDICTED BY IDOCK:  -11.26 KCAL/MOL
REMARK 924 INTRA-LIGAND FREE ENERGY PREDICTED BY IDOCK:    0.02 KCAL/MOL
REMARK 927      BINDING AFFINITY PREDICTED BY RF-SCORE:    0.00 PKD
ROOT
HETATM    1  C   UNL     1     -13.485  15.956  73.032  1.00  0.00    -0.568 C  
HETATM    2  O   UNL     1     -13.721  15.433  71.730  1.00  0.00    -0.450 OA 
ENDROOT
BRANCH   2   3
HETATM    3  C   UNL     1     -13.299  14.156  71.494  1.00  0.00    -0.351 A  
HETATM    4  C   UNL     1     -13.618  13.030  72.249  1.00  0.00    -0.643 A  
HETATM    5  C   UNL     1     -13.086  11.774  71.916  1.00  0.00    -0.482 A  
HETATM    6  C   UNL     1     -12.234  11.609  70.816  1.00  0.00    -0.443 A  
HETATM    7  C   UNL     1     -12.468  14.006  70.389  1.00  0.00    -0.418 A  
HETATM    8  C   UNL     1     -11.945  12.750  70.046  1.00  0.00    -0.371 A  
BRANCH   6   9
HETATM    9  C   UNL     1     -11.620  10.289  70.520  1.00  0.00    -0.338 A  
HETATM   10  C   UNL     1     -10.580   9.934  69.667  1.00  0.00    -0.250 A  
HETATM   11  C   UNL     1     -10.367   8.497  69.581  1.00  0.00    -0.218 A  
HETATM   12  C   UNL     1      -9.449   6.303  68.951  1.00  0.00    -0.130 A  
HETATM   13  C   UNL     1     -11.202   7.823  70.476  1.00  0.00    -0.257 A  
HETATM   14  H   UNL     1      -9.527   3.837  69.516  1.00  0.00     0.000 HD 
HETATM   15  C   UNL     1      -9.480   7.695  68.811  1.00  0.00    -0.152 A  
HETATM   16  S   UNL     1     -12.278   8.890  71.267  1.00  0.00    -0.280 SA 
HETATM   17  C   UNL     1     -11.136   6.427  70.671  1.00  0.00    -0.376 A  
HETATM   18  C   UNL     1     -10.249   5.691  69.896  1.00  0.00    -0.250 A  
HETATM   19  O   UNL     1     -10.134   4.340  70.046  1.00  0.00    -0.196 OA 
BRANCH  10  20
HETATM   20  O   UNL     1      -9.826  10.912  69.087  1.00  0.00    -0.205 OA 
BRANCH  20  21
HETATM   21  C   UNL     1     -10.233  11.679  68.024  1.00  0.00    -0.190 A  
HETATM   22  C   UNL     1     -11.041  13.406  65.955  1.00  0.00    -0.280 A  
HETATM   23  C   UNL     1     -10.028  13.792  66.837  1.00  0.00    -0.264 A  
HETATM   24  C   UNL     1     -11.251  11.302  67.156  1.00  0.00    -0.344 A  
HETATM   25  C   UNL     1      -9.625  12.929  67.866  1.00  0.00    -0.215 A  
HETATM   26  C   UNL     1     -11.622  12.139  66.109  1.00  0.00    -0.418 A  
BRANCH  22  27
HETATM   27  O   UNL     1     -11.422  14.322  64.996  1.00  0.00    -0.333 OA 
BRANCH  27  28
HETATM   28  C   UNL     1     -10.498  15.414  64.874  1.00  0.00    -0.292 C  
BRANCH  28  29
HETATM   29  C   UNL     1     -10.892  16.651  65.685  1.00  0.00    -0.137 C  
BRANCH  29  30
HETATM   30  N   UNL     1      -9.710  17.495  65.979  1.00  0.00    -0.516 NA 
HETATM   31  C   UNL     1      -9.991  18.931  66.139  1.00  0.00    -0.356 C  
HETATM   32  C   UNL     1     -10.690  19.299  67.450  1.00  0.00    -0.594 C  
HETATM   33  C   UNL     1      -9.980  18.705  68.663  1.00  0.00    -0.431 C  
HETATM   34  C   UNL     1      -9.659  17.228  68.461  1.00  0.00    -0.291 C  
HETATM   35  C   UNL     1      -8.948  16.996  67.129  1.00  0.00    -0.222 C  
ENDBRANCH  29  30
ENDBRANCH  28  29
ENDBRANCH  27  28
ENDBRANCH  22  27
ENDBRANCH  20  21
ENDBRANCH  10  20
ENDBRANCH   6   9
ENDBRANCH   2   3
TORSDOF 8
ENDMDL
MODEL       28
REMARK 921   NORMALIZED FREE ENERGY PREDICTED BY IDOCK:   -6.39 KCAL/MOL
REMARK 922        TOTAL FREE ENERGY PREDICTED BY IDOCK:  -11.14 KCAL/MOL
REMARK 923 INTER-LIGAND FREE ENERGY PREDICTED BY IDOCK:   -9.45 KCAL/MOL
REMARK 924 INTRA-LIGAND FREE ENERGY PREDICTED BY IDOCK:   -1.69 KCAL/MOL
REMARK 927      BINDING AFFINITY PREDICTED BY RF-SCORE:    0.00 PKD
ROOT
HETATM    1  C   UNL     1     -10.195   7.239  73.579  1.00  0.00    -0.358 C  
HETATM    2  O   UNL     1      -9.296   8.205  73.046  1.00  0.00    -0.251 OA 
ENDROOT
BRANCH   2   3
HETATM    3  C   UNL     1      -9.682   8.836  71.899  1.00  0.00    -0.316 A  
HETATM    4  C   UNL     1     -10.985   9.179  71.545  1.00  0.00    -0.434 A  
HETATM    5  C   UNL     1     -11.250   9.799  70.313  1.00  0.00    -0.347 A  
HETATM    6  C   UNL     1     -10.221  10.101  69.410  1.00  0.00    -0.246 A  
HETATM    7  C   UNL     1      -8.648   9.145  71.021  1.00  0.00    -0.236 A  
HETATM    8  C   UNL     1      -8.908   9.775  69.794  1.00  0.00    -0.241 A  
BRANCH   6   9
HETATM    9  C   UNL     1     -10.524  10.688  68.080  1.00  0.00    -0.196 A  
HETATM   10  C   UNL     1      -9.931  10.492  66.836  1.00  0.00    -0.200 A  
HETATM   11  C   UNL     1     -10.462  11.364  65.798  1.00  0.00    -0.314 A  
HETATM   12  C   UNL     1     -10.837  12.447  63.623  1.00  0.00    -0.509 A  
HETATM   13  C   UNL     1     -11.529  12.119  66.291  1.00  0.00    -0.374 A  
HETATM   14  H   UNL     1     -12.379  14.029  62.386  1.00  0.00     0.000 HD 
HETATM   15  C   UNL     1     -10.126  11.552  64.429  1.00  0.00    -0.328 A  
HETATM   16  S   UNL     1     -11.766  11.868  67.965  1.00  0.00    -0.270 SA 
HETATM   17  C   UNL     1     -12.293  12.978  65.471  1.00  0.00    -0.527 A  
HETATM   18  C   UNL     1     -11.925  13.122  64.139  1.00  0.00    -0.436 A  
HETATM   19  O   UNL     1     -12.631  13.931  63.297  1.00  0.00    -0.824 OA 
BRANCH  10  20
HETATM   20  O   UNL     1      -9.021   9.488  66.679  1.00  0.00    -0.141 OA 
BRANCH  20  21
HETATM   21  C   UNL     1      -9.340   8.155  66.610  1.00  0.00    -0.197 A  
HETATM   22  C   UNL     1      -9.907   5.416  66.295  1.00  0.00    -0.164 A  
HETATM   23  C   UNL     1      -8.708   5.947  65.809  1.00  0.00    -0.153 A  
HETATM   24  C   UNL     1     -10.539   7.631  67.078  1.00  0.00    -0.406 A  
HETATM   25  C   UNL     1      -8.426   7.311  65.970  1.00  0.00    -0.148 A  
HETATM   26  C   UNL     1     -10.800   6.270  66.959  1.00  0.00    -0.458 A  
BRANCH  22  27
HETATM   27  O   UNL     1     -10.142   4.078  66.062  1.00  0.00    -0.171 OA 
BRANCH  27  28
HETATM   28  C   UNL     1      -9.146   3.229  66.651  1.00  0.00    -0.165 C  
BRANCH  28  29
HETATM   29  C   UNL     1      -9.475   2.788  68.080  1.00  0.00    -0.155 C  
BRANCH  29  30
HETATM   30  N   UNL     1      -8.422   3.221  69.027  1.00  0.00    -0.061 NA 
HETATM   31  C   UNL     1      -8.380   4.668  69.298  1.00  0.00    -0.079 C  
HETATM   32  C   UNL     1      -9.515   5.181  70.187  1.00  0.00    -0.229 C  
HETATM   33  C   UNL     1      -9.661   4.354  71.461  1.00  0.00    -0.244 C  
HETATM   34  C   UNL     1      -9.659   2.858  71.165  1.00  0.00    -0.226 C  
HETATM   35  C   UNL     1      -8.470   2.472  70.287  1.00  0.00    -0.047 C  
ENDBRANCH  29  30
ENDBRANCH  28  29
ENDBRANCH  27  28
ENDBRANCH  22  27
ENDBRANCH  20  21
ENDBRANCH  10  20
ENDBRANCH   6   9
ENDBRANCH   2   3
TORSDOF 8
ENDMDL
MODEL       29
REMARK 921   NORMALIZED FREE ENERGY PREDICTED BY IDOCK:   -6.37 KCAL/MOL
REMARK 922        TOTAL FREE ENERGY PREDICTED BY IDOCK:  -11.10 KCAL/MOL
REMARK 923 INTER-LIGAND FREE ENERGY PREDICTED BY IDOCK:   -9.82 KCAL/MOL
REMARK 924 INTRA-LIGAND FREE ENERGY PREDICTED BY IDOCK:   -1.28 KCAL/MOL
REMARK 927      BINDING AFFINITY PREDICTED BY RF-SCORE:    0.00 PKD
ROOT
HETATM    1  C   UNL     1      -6.119  10.403  62.492  1.00  0.00    -0.139 C  
HETATM    2  O   UNL     1      -7.532  10.574  62.505  1.00  0.00    -0.141 OA 
ENDROOT
BRANCH   2   3
HETATM    3  C   UNL     1      -8.176  10.281  63.672  1.00  0.00    -0.158 A  
HETATM    4  C   UNL     1      -9.549  10.348  63.896  1.00  0.00    -0.370 A  
HETATM    5  C   UNL     1     -10.082  10.051  65.161  1.00  0.00    -0.268 A  
HETATM    6  C   UNL     1      -9.258   9.670  66.229  1.00  0.00    -0.213 A  
HETATM    7  C   UNL     1      -7.348   9.887  64.718  1.00  0.00    -0.136 A  
HETATM    8  C   UNL     1      -7.877   9.578  65.981  1.00  0.00    -0.100 A  
BRANCH   6   9
HETATM    9  C   UNL     1      -9.828   9.431  67.580  1.00  0.00    -0.174 A  
HETATM   10  C   UNL     1     -10.873  10.054  68.255  1.00  0.00    -0.241 A  
HETATM   11  C   UNL     1     -11.034   9.591  69.626  1.00  0.00    -0.233 A  
HETATM   12  C   UNL     1     -11.881   9.328  71.920  1.00  0.00    -0.426 A  
HETATM   13  C   UNL     1     -10.152   8.541  69.895  1.00  0.00    -0.195 A  
HETATM   14  H   UNL     1     -11.697   7.890  73.996  1.00  0.00     0.000 HD 
HETATM   15  C   UNL     1     -11.908   9.976  70.680  1.00  0.00    -0.411 A  
HETATM   16  S   UNL     1      -9.099   8.242  68.582  1.00  0.00    -0.139 SA 
HETATM   17  C   UNL     1     -10.161   7.839  71.120  1.00  0.00    -0.214 A  
HETATM   18  C   UNL     1     -11.037   8.253  72.115  1.00  0.00    -0.328 A  
HETATM   19  O   UNL     1     -11.097   7.607  73.315  1.00  0.00    -0.382 OA 
BRANCH  10  20
HETATM   20  O   UNL     1     -11.678  10.927  67.584  1.00  0.00    -0.566 OA 
BRANCH  20  21
HETATM   21  C   UNL     1     -11.534  12.293  67.612  1.00  0.00    -0.336 A  
HETATM   22  C   UNL     1     -11.195  15.083  67.482  1.00  0.00    -0.330 A  
HETATM   23  C   UNL     1     -11.725  14.388  66.391  1.00  0.00    -0.397 A  
HETATM   24  C   UNL     1     -10.992  12.982  68.690  1.00  0.00    -0.297 A  
HETATM   25  C   UNL     1     -11.897  12.997  66.459  1.00  0.00    -0.464 A  
HETATM   26  C   UNL     1     -10.862  14.365  68.640  1.00  0.00    -0.260 A  
BRANCH  22  27
HETATM   27  O   UNL     1     -11.009  16.441  67.330  1.00  0.00    -0.263 OA 
BRANCH  27  28
HETATM   28  C   UNL     1     -10.349  16.777  66.101  1.00  0.00    -0.330 C  
BRANCH  28  29
HETATM   29  C   UNL     1      -8.846  17.026  66.254  1.00  0.00    -0.254 C  
BRANCH  29  30
HETATM   30  N   UNL     1      -8.526  18.466  66.112  1.00  0.00    -0.482 NA 
HETATM   31  C   UNL     1      -9.336  19.371  66.943  1.00  0.00    -0.329 C  
HETATM   32  C   UNL     1      -8.986  19.350  68.433  1.00  0.00    -0.403 C  
HETATM   33  C   UNL     1      -7.489  19.523  68.670  1.00  0.00    -0.380 C  
HETATM   34  C   UNL     1      -6.665  18.609  67.770  1.00  0.00    -0.218 C  
HETATM   35  C   UNL     1      -7.099  18.737  66.310  1.00  0.00    -0.246 C  
ENDBRANCH  29  30
ENDBRANCH  28  29
ENDBRANCH  27  28
ENDBRANCH  22  27
ENDBRANCH  20  21
ENDBRANCH  10  20
ENDBRANCH   6   9
ENDBRANCH   2   3
TORSDOF 8
ENDMDL
MODEL       30
REMARK 921   NORMALIZED FREE ENERGY PREDICTED BY IDOCK:   -6.37 KCAL/MOL
REMARK 922        TOTAL FREE ENERGY PREDICTED BY IDOCK:  -11.10 KCAL/MOL
REMARK 923 INTER-LIGAND FREE ENERGY PREDICTED BY IDOCK:   -9.97 KCAL/MOL
REMARK 924 INTRA-LIGAND FREE ENERGY PREDICTED BY IDOCK:   -1.13 KCAL/MOL
REMARK 927      BINDING AFFINITY PREDICTED BY RF-SCORE:    0.00 PKD
ROOT
HETATM    1  C   UNL     1     -14.133   8.354  71.780  1.00  0.00    -0.438 C  
HETATM    2  O   UNL     1     -13.359   9.358  72.428  1.00  0.00    -0.452 OA 
ENDROOT
BRANCH   2   3
HETATM    3  C   UNL     1     -12.977  10.426  71.668  1.00  0.00    -0.475 A  
HETATM    4  C   UNL     1     -13.347  11.754  71.867  1.00  0.00    -0.401 A  
HETATM    5  C   UNL     1     -12.909  12.756  70.986  1.00  0.00    -0.262 A  
HETATM    6  C   UNL     1     -12.082  12.459  69.894  1.00  0.00    -0.317 A  
HETATM    7  C   UNL     1     -12.142  10.118  70.599  1.00  0.00    -0.411 A  
HETATM    8  C   UNL     1     -11.693  11.119  69.723  1.00  0.00    -0.419 A  
BRANCH   6   9
HETATM    9  C   UNL     1     -11.688  13.517  68.929  1.00  0.00    -0.339 A  
HETATM   10  C   UNL     1     -11.602  13.504  67.540  1.00  0.00    -0.350 A  
HETATM   11  C   UNL     1     -11.053  14.731  66.982  1.00  0.00    -0.333 A  
HETATM   12  C   UNL     1     -10.244  16.413  65.381  1.00  0.00    -0.218 A  
HETATM   13  C   UNL     1     -10.845  15.677  67.989  1.00  0.00    -0.308 A  
HETATM   14  H   UNL     1      -9.502  18.825  65.177  1.00  0.00     0.000 HD 
HETATM   15  C   UNL     1     -10.735  15.132  65.655  1.00  0.00    -0.374 A  
HETATM   16  S   UNL     1     -11.176  15.038  69.540  1.00  0.00    -0.293 SA 
HETATM   17  C   UNL     1     -10.409  16.991  67.716  1.00  0.00    -0.335 A  
HETATM   18  C   UNL     1     -10.117  17.333  66.402  1.00  0.00    -0.316 A  
HETATM   19  O   UNL     1      -9.702  18.591  66.076  1.00  0.00    -0.494 OA 
BRANCH  10  20
HETATM   20  O   UNL     1     -12.102  12.439  66.849  1.00  0.00    -0.564 OA 
BRANCH  20  21
HETATM   21  C   UNL     1     -11.381  11.687  65.955  1.00  0.00    -0.199 A  
HETATM   22  C   UNL     1      -9.761  10.139  64.252  1.00  0.00    -0.258 A  
HETATM   23  C   UNL     1      -9.736   9.925  65.633  1.00  0.00    -0.346 A  
HETATM   24  C   UNL     1     -11.394  11.911  64.583  1.00  0.00    -0.355 A  
HETATM   25  C   UNL     1     -10.546  10.695  66.480  1.00  0.00    -0.257 A  
HETATM   26  C   UNL     1     -10.625  11.118  63.739  1.00  0.00    -0.422 A  
BRANCH  22  27
HETATM   27  O   UNL     1      -8.905   9.379  63.483  1.00  0.00    -0.223 OA 
BRANCH  27  28
HETATM   28  C   UNL     1      -8.271   8.331  64.229  1.00  0.00    -0.113 C  
BRANCH  28  29
HETATM   29  C   UNL     1      -8.163   7.007  63.467  1.00  0.00     0.100 C  
BRANCH  29  30
HETATM   30  N   UNL     1      -7.649   5.928  64.343  1.00  0.00    -0.081 NA 
HETATM   31  C   UNL     1      -7.968   6.077  65.773  1.00  0.00    -0.113 C  
HETATM   32  C   UNL     1      -9.429   5.794  66.131  1.00  0.00    -0.144 C  
HETATM   33  C   UNL     1      -9.908   4.461  65.563  1.00  0.00    -0.225 C  
HETATM   34  C   UNL     1      -9.531   4.306  64.093  1.00  0.00    -0.134 C  
HETATM   35  C   UNL     1      -8.047   4.598  63.872  1.00  0.00    -0.101 C  
ENDBRANCH  29  30
ENDBRANCH  28  29
ENDBRANCH  27  28
ENDBRANCH  22  27
ENDBRANCH  20  21
ENDBRANCH  10  20
ENDBRANCH   6   9
ENDBRANCH   2   3
TORSDOF 8
ENDMDL
MODEL       31
REMARK 921   NORMALIZED FREE ENERGY PREDICTED BY IDOCK:   -6.35 KCAL/MOL
REMARK 922        TOTAL FREE ENERGY PREDICTED BY IDOCK:  -11.08 KCAL/MOL
REMARK 923 INTER-LIGAND FREE ENERGY PREDICTED BY IDOCK:   -9.26 KCAL/MOL
REMARK 924 INTRA-LIGAND FREE ENERGY PREDICTED BY IDOCK:   -1.82 KCAL/MOL
REMARK 927      BINDING AFFINITY PREDICTED BY RF-SCORE:    0.00 PKD
ROOT
HETATM    1  C   UNL     1     -13.225   7.409  71.354  1.00  0.00    -0.339 C  
HETATM    2  O   UNL     1     -12.423   8.354  72.053  1.00  0.00    -0.321 OA 
ENDROOT
BRANCH   2   3
HETATM    3  C   UNL     1     -12.202   9.551  71.434  1.00  0.00    -0.371 A  
HETATM    4  C   UNL     1     -12.750  10.779  71.795  1.00  0.00    -0.464 A  
HETATM    5  C   UNL     1     -12.467  11.934  71.049  1.00  0.00    -0.390 A  
HETATM    6  C   UNL     1     -11.621  11.893  69.931  1.00  0.00    -0.333 A  
HETATM    7  C   UNL     1     -11.347   9.497  70.338  1.00  0.00    -0.318 A  
HETATM    8  C   UNL     1     -11.053  10.652  69.596  1.00  0.00    -0.342 A  
BRANCH   6   9
HETATM    9  C   UNL     1     -11.390  13.107  69.108  1.00  0.00    -0.281 A  
HETATM   10  C   UNL     1     -11.151  13.257  67.745  1.00  0.00    -0.265 A  
HETATM   11  C   UNL     1     -10.856  14.629  67.357  1.00  0.00    -0.298 A  
HETATM   12  C   UNL     1     -10.305  16.608  66.005  1.00  0.00    -0.352 A  
HETATM   13  C   UNL     1     -10.995  15.488  68.449  1.00  0.00    -0.297 A  
HETATM   14  H   UNL     1     -10.149  19.134  66.079  1.00  0.00     0.000 HD 
HETATM   15  C   UNL     1     -10.500  15.227  66.116  1.00  0.00    -0.318 A  
HETATM   16  S   UNL     1     -11.331  14.634  69.892  1.00  0.00    -0.241 SA 
HETATM   17  C   UNL     1     -10.862  16.889  68.334  1.00  0.00    -0.347 A  
HETATM   18  C   UNL     1     -10.518  17.422  67.099  1.00  0.00    -0.305 A  
HETATM   19  O   UNL     1     -10.385  18.769  66.925  1.00  0.00    -0.361 OA 
BRANCH  10  20
HETATM   20  O   UNL     1     -11.299  12.183  66.917  1.00  0.00    -0.302 OA 
BRANCH  20  21
HETATM   21  C   UNL     1     -10.258  11.481  66.363  1.00  0.00    -0.224 A  
HETATM   22  C   UNL     1      -8.251   9.907  65.174  1.00  0.00    -0.144 A  
HETATM   23  C   UNL     1      -9.525   9.972  64.602  1.00  0.00    -0.367 A  
HETATM   24  C   UNL     1      -8.996  11.403  66.940  1.00  0.00    -0.171 A  
HETATM   25  C   UNL     1     -10.523  10.759  65.194  1.00  0.00    -0.299 A  
HETATM   26  C   UNL     1      -7.993  10.658  66.330  1.00  0.00    -0.149 A  
BRANCH  22  27
HETATM   27  O   UNL     1      -7.332   9.077  64.567  1.00  0.00    -0.095 OA 
BRANCH  27  28
HETATM   28  C   UNL     1      -7.013   7.926  65.363  1.00  0.00    -0.059 C  
BRANCH  28  29
HETATM   29  C   UNL     1      -8.114   6.862  65.379  1.00  0.00    -0.133 C  
BRANCH  29  30
HETATM   30  N   UNL     1      -8.239   6.245  66.721  1.00  0.00    -0.109 NA 
HETATM   31  C   UNL     1      -8.567   7.179  67.811  1.00  0.00    -0.126 C  
HETATM   32  C   UNL     1     -10.014   7.676  67.806  1.00  0.00    -0.219 C  
HETATM   33  C   UNL     1     -11.013   6.527  67.703  1.00  0.00    -0.426 C  
HETATM   34  C   UNL     1     -10.633   5.548  66.597  1.00  0.00    -0.365 C  
HETATM   35  C   UNL     1      -9.173   5.115  66.723  1.00  0.00    -0.123 C  
ENDBRANCH  29  30
ENDBRANCH  28  29
ENDBRANCH  27  28
ENDBRANCH  22  27
ENDBRANCH  20  21
ENDBRANCH  10  20
ENDBRANCH   6   9
ENDBRANCH   2   3
TORSDOF 8
ENDMDL
MODEL       32
REMARK 921   NORMALIZED FREE ENERGY PREDICTED BY IDOCK:   -6.35 KCAL/MOL
REMARK 922        TOTAL FREE ENERGY PREDICTED BY IDOCK:  -11.08 KCAL/MOL
REMARK 923 INTER-LIGAND FREE ENERGY PREDICTED BY IDOCK:   -9.63 KCAL/MOL
REMARK 924 INTRA-LIGAND FREE ENERGY PREDICTED BY IDOCK:   -1.45 KCAL/MOL
REMARK 927      BINDING AFFINITY PREDICTED BY RF-SCORE:    0.00 PKD
ROOT
HETATM    1  C   UNL     1     -12.433  15.686  74.084  1.00  0.00    -0.661 C  
HETATM    2  O   UNL     1     -12.445  16.307  72.804  1.00  0.00    -0.454 OA 
ENDROOT
BRANCH   2   3
HETATM    3  C   UNL     1     -12.235  15.496  71.726  1.00  0.00    -0.394 A  
HETATM    4  C   UNL     1     -12.848  14.268  71.486  1.00  0.00    -0.419 A  
HETATM    5  C   UNL     1     -12.515  13.515  70.348  1.00  0.00    -0.345 A  
HETATM    6  C   UNL     1     -11.572  13.974  69.418  1.00  0.00    -0.349 A  
HETATM    7  C   UNL     1     -11.311  15.973  70.802  1.00  0.00    -0.427 A  
HETATM    8  C   UNL     1     -10.984  15.228  69.659  1.00  0.00    -0.291 A  
BRANCH   6   9
HETATM    9  C   UNL     1     -11.175  13.133  68.260  1.00  0.00    -0.274 A  
HETATM   10  C   UNL     1     -10.313  12.044  68.172  1.00  0.00    -0.198 A  
HETATM   11  C   UNL     1     -10.109  11.576  66.809  1.00  0.00    -0.245 A  
HETATM   12  C   UNL     1      -9.310  10.278  64.878  1.00  0.00    -0.306 A  
HETATM   13  C   UNL     1     -10.928  12.279  65.922  1.00  0.00    -0.302 A  
HETATM   14  H   UNL     1      -9.661   9.913  62.398  1.00  0.00     0.000 HD 
HETATM   15  C   UNL     1      -9.289  10.558  66.249  1.00  0.00    -0.202 A  
HETATM   16  S   UNL     1     -11.788  13.531  66.706  1.00  0.00    -0.413 SA 
HETATM   17  C   UNL     1     -11.004  11.963  64.548  1.00  0.00    -0.376 A  
HETATM   18  C   UNL     1     -10.185  10.957  64.053  1.00  0.00    -0.357 A  
HETATM   19  O   UNL     1     -10.221  10.601  62.736  1.00  0.00    -0.115 OA 
BRANCH  10  20
HETATM   20  O   UNL     1      -9.833  11.476  69.316  1.00  0.00     0.025 OA 
BRANCH  20  21
HETATM   21  C   UNL     1     -10.300  10.302  69.854  1.00  0.00    -0.233 A  
HETATM   22  C   UNL     1     -11.194   7.806  70.798  1.00  0.00    -0.271 A  
HETATM   23  C   UNL     1     -10.024   7.893  70.038  1.00  0.00    -0.191 A  
HETATM   24  C   UNL     1     -11.471  10.214  70.596  1.00  0.00    -0.432 A  
HETATM   25  C   UNL     1      -9.578   9.138  69.570  1.00  0.00    -0.171 A  
HETATM   26  C   UNL     1     -11.890   8.986  71.097  1.00  0.00    -0.362 A  
BRANCH  22  27
HETATM   27  O   UNL     1     -11.600   6.546  71.184  1.00  0.00    -0.307 OA 
BRANCH  27  28
HETATM   28  C   UNL     1     -11.379   6.296  72.580  1.00  0.00    -0.275 C  
BRANCH  28  29
HETATM   29  C   UNL     1     -11.678   4.855  73.005  1.00  0.00    -0.127 C  
BRANCH  29  30
HETATM   30  N   UNL     1     -10.465   4.197  73.544  1.00  0.00    -0.165 NA 
HETATM   31  C   UNL     1     -10.692   2.884  74.171  1.00  0.00    -0.175 C  
HETATM   32  C   UNL     1     -10.977   1.750  73.184  1.00  0.00    -0.260 C  
HETATM   33  C   UNL     1      -9.941   1.690  72.067  1.00  0.00    -0.213 C  
HETATM   34  C   UNL     1      -9.687   3.065  71.458  1.00  0.00    -0.223 C  
HETATM   35  C   UNL     1      -9.397   4.102  72.543  1.00  0.00    -0.120 C  
ENDBRANCH  29  30
ENDBRANCH  28  29
ENDBRANCH  27  28
ENDBRANCH  22  27
ENDBRANCH  20  21
ENDBRANCH  10  20
ENDBRANCH   6   9
ENDBRANCH   2   3
TORSDOF 8
ENDMDL
MODEL       33
REMARK 921   NORMALIZED FREE ENERGY PREDICTED BY IDOCK:   -6.33 KCAL/MOL
REMARK 922        TOTAL FREE ENERGY PREDICTED BY IDOCK:  -11.04 KCAL/MOL
REMARK 923 INTER-LIGAND FREE ENERGY PREDICTED BY IDOCK:  -10.55 KCAL/MOL
REMARK 924 INTRA-LIGAND FREE ENERGY PREDICTED BY IDOCK:   -0.49 KCAL/MOL
REMARK 927      BINDING AFFINITY PREDICTED BY RF-SCORE:    0.00 PKD
ROOT
HETATM    1  C   UNL     1      -7.358   4.509  67.910  1.00  0.00    -0.066 C  
HETATM    2  O   UNL     1      -8.662   4.304  68.443  1.00  0.00    -0.093 OA 
ENDROOT
BRANCH   2   3
HETATM    3  C   UNL     1      -9.337   5.416  68.858  1.00  0.00    -0.127 A  
HETATM    4  C   UNL     1     -10.693   5.488  69.171  1.00  0.00    -0.260 A  
HETATM    5  C   UNL     1     -11.273   6.708  69.555  1.00  0.00    -0.383 A  
HETATM    6  C   UNL     1     -10.512   7.882  69.646  1.00  0.00    -0.226 A  
HETATM    7  C   UNL     1      -8.566   6.569  68.961  1.00  0.00    -0.125 A  
HETATM    8  C   UNL     1      -9.140   7.787  69.355  1.00  0.00    -0.146 A  
BRANCH   6   9
HETATM    9  C   UNL     1     -11.153   9.179  69.980  1.00  0.00    -0.190 A  
HETATM   10  C   UNL     1     -11.146  10.402  69.315  1.00  0.00    -0.253 A  
HETATM   11  C   UNL     1     -11.811  11.466  70.053  1.00  0.00    -0.440 A  
HETATM   12  C   UNL     1     -12.723  13.665  70.672  1.00  0.00    -0.303 A  
HETATM   13  C   UNL     1     -12.398  10.962  71.217  1.00  0.00    -0.343 A  
HETATM   14  H   UNL     1     -14.200  14.845  72.355  1.00  0.00     0.000 HD 
HETATM   15  C   UNL     1     -11.990  12.854  69.798  1.00  0.00    -0.365 A  
HETATM   16  S   UNL     1     -12.029   9.310  71.451  1.00  0.00    -0.376 SA 
HETATM   17  C   UNL     1     -13.191  11.758  72.072  1.00  0.00    -0.460 A  
HETATM   18  C   UNL     1     -13.338  13.107  71.774  1.00  0.00    -0.389 A  
HETATM   19  O   UNL     1     -14.100  13.922  72.559  1.00  0.00    -0.658 OA 
BRANCH  10  20
HETATM   20  O   UNL     1     -10.628  10.476  68.055  1.00  0.00    -0.184 OA 
BRANCH  20  21
HETATM   21  C   UNL     1     -10.621  11.613  67.285  1.00  0.00    -0.228 A  
HETATM   22  C   UNL     1     -10.516  14.031  65.850  1.00  0.00    -0.309 A  
HETATM   23  C   UNL     1      -9.460  13.665  66.691  1.00  0.00    -0.285 A  
HETATM   24  C   UNL     1     -11.678  11.984  66.462  1.00  0.00    -0.330 A  
HETATM   25  C   UNL     1      -9.513  12.458  67.403  1.00  0.00    -0.186 A  
HETATM   26  C   UNL     1     -11.607  13.159  65.722  1.00  0.00    -0.383 A  
BRANCH  22  27
HETATM   27  O   UNL     1     -10.421  15.253  65.217  1.00  0.00    -0.358 OA 
BRANCH  27  28
HETATM   28  C   UNL     1     -10.332  16.350  66.139  1.00  0.00    -0.344 C  
BRANCH  28  29
HETATM   29  C   UNL     1      -8.933  16.964  66.237  1.00  0.00    -0.270 C  
BRANCH  29  30
HETATM   30  N   UNL     1      -8.976  18.427  66.006  1.00  0.00    -0.494 NA 
HETATM   31  C   UNL     1     -10.279  19.064  66.264  1.00  0.00    -0.446 C  
HETATM   32  C   UNL     1     -10.637  19.198  67.746  1.00  0.00    -0.498 C  
HETATM   33  C   UNL     1      -9.508  19.832  68.552  1.00  0.00    -0.398 C  
HETATM   34  C   UNL     1      -8.161  19.189  68.239  1.00  0.00    -0.369 C  
HETATM   35  C   UNL     1      -7.915  19.132  66.732  1.00  0.00    -0.269 C  
ENDBRANCH  29  30
ENDBRANCH  28  29
ENDBRANCH  27  28
ENDBRANCH  22  27
ENDBRANCH  20  21
ENDBRANCH  10  20
ENDBRANCH   6   9
ENDBRANCH   2   3
TORSDOF 8
ENDMDL
MODEL       34
REMARK 921   NORMALIZED FREE ENERGY PREDICTED BY IDOCK:   -6.31 KCAL/MOL
REMARK 922        TOTAL FREE ENERGY PREDICTED BY IDOCK:  -11.01 KCAL/MOL
REMARK 923 INTER-LIGAND FREE ENERGY PREDICTED BY IDOCK:   -9.21 KCAL/MOL
REMARK 924 INTRA-LIGAND FREE ENERGY PREDICTED BY IDOCK:   -1.79 KCAL/MOL
REMARK 927      BINDING AFFINITY PREDICTED BY RF-SCORE:    0.00 PKD
ROOT
HETATM    1  C   UNL     1      -8.959   6.614  72.404  1.00  0.00    -0.135 C  
HETATM    2  O   UNL     1      -8.294   7.868  72.319  1.00  0.00    -0.110 OA 
ENDROOT
BRANCH   2   3
HETATM    3  C   UNL     1      -8.762   8.751  71.389  1.00  0.00    -0.214 A  
HETATM    4  C   UNL     1     -10.084   9.164  71.236  1.00  0.00    -0.388 A  
HETATM    5  C   UNL     1     -10.439  10.055  70.210  1.00  0.00    -0.331 A  
HETATM    6  C   UNL     1      -9.483  10.564  69.320  1.00  0.00    -0.191 A  
HETATM    7  C   UNL     1      -7.799   9.261  70.524  1.00  0.00    -0.169 A  
HETATM    8  C   UNL     1      -8.149  10.161  69.505  1.00  0.00    -0.176 A  
BRANCH   6   9
HETATM    9  C   UNL     1      -9.885  11.446  68.196  1.00  0.00    -0.191 A  
HETATM   10  C   UNL     1      -9.222  12.504  67.580  1.00  0.00    -0.188 A  
HETATM   11  C   UNL     1     -10.029  13.189  66.580  1.00  0.00    -0.270 A  
HETATM   12  C   UNL     1     -10.742  14.767  64.834  1.00  0.00    -0.438 A  
HETATM   13  C   UNL     1     -11.252  12.536  66.406  1.00  0.00    -0.306 A  
HETATM   14  H   UNL     1     -12.579  15.239  63.157  1.00  0.00     0.000 HD 
HETATM   15  C   UNL     1      -9.793  14.330  65.764  1.00  0.00    -0.314 A  
HETATM   16  S   UNL     1     -11.446  11.244  67.508  1.00  0.00    -0.176 SA 
HETATM   17  C   UNL     1     -12.189  12.931  65.427  1.00  0.00    -0.528 A  
HETATM   18  C   UNL     1     -11.908  14.050  64.654  1.00  0.00    -0.417 A  
HETATM   19  O   UNL     1     -12.772  14.473  63.686  1.00  0.00    -0.754 OA 
BRANCH  10  20
HETATM   20  O   UNL     1      -7.912  12.737  67.878  1.00  0.00    -0.132 OA 
BRANCH  20  21
HETATM   21  C   UNL     1      -7.412  13.950  68.284  1.00  0.00    -0.118 A  
HETATM   22  C   UNL     1      -6.570  16.504  69.113  1.00  0.00    -0.200 A  
HETATM   23  C   UNL     1      -7.796  15.993  69.547  1.00  0.00    -0.065 A  
HETATM   24  C   UNL     1      -6.201  14.465  67.840  1.00  0.00    -0.167 A  
HETATM   25  C   UNL     1      -8.214  14.719  69.135  1.00  0.00    -0.106 A  
HETATM   26  C   UNL     1      -5.766  15.709  68.282  1.00  0.00    -0.119 A  
BRANCH  22  27
HETATM   27  O   UNL     1      -6.243  17.781  69.517  1.00  0.00    -0.238 OA 
BRANCH  27  28
HETATM   28  C   UNL     1      -6.335  18.740  68.452  1.00  0.00    -0.216 C  
BRANCH  28  29
HETATM   29  C   UNL     1      -7.557  19.658  68.551  1.00  0.00    -0.337 C  
BRANCH  29  30
HETATM   30  N   UNL     1      -8.103  19.964  67.208  1.00  0.00    -0.294 NA 
HETATM   31  C   UNL     1      -8.026  18.862  66.234  1.00  0.00    -0.273 C  
HETATM   32  C   UNL     1      -9.025  17.728  66.479  1.00  0.00    -0.280 C  
HETATM   33  C   UNL     1     -10.448  18.249  66.659  1.00  0.00    -0.382 C  
HETATM   34  C   UNL     1     -10.501  19.418  67.637  1.00  0.00    -0.573 C  
HETATM   35  C   UNL     1      -9.471  20.487  67.274  1.00  0.00    -0.418 C  
ENDBRANCH  29  30
ENDBRANCH  28  29
ENDBRANCH  27  28
ENDBRANCH  22  27
ENDBRANCH  20  21
ENDBRANCH  10  20
ENDBRANCH   6   9
ENDBRANCH   2   3
TORSDOF 8
ENDMDL
MODEL       35
REMARK 921   NORMALIZED FREE ENERGY PREDICTED BY IDOCK:   -6.27 KCAL/MOL
REMARK 922        TOTAL FREE ENERGY PREDICTED BY IDOCK:  -10.95 KCAL/MOL
REMARK 923 INTER-LIGAND FREE ENERGY PREDICTED BY IDOCK:   -9.85 KCAL/MOL
REMARK 924 INTRA-LIGAND FREE ENERGY PREDICTED BY IDOCK:   -1.10 KCAL/MOL
REMARK 927      BINDING AFFINITY PREDICTED BY RF-SCORE:    0.00 PKD
ROOT
HETATM    1  C   UNL     1      -6.988   6.361  67.167  1.00  0.00    -0.071 C  
HETATM    2  O   UNL     1      -8.373   6.153  67.417  1.00  0.00    -0.109 OA 
ENDROOT
BRANCH   2   3
HETATM    3  C   UNL     1      -9.097   7.242  67.809  1.00  0.00    -0.124 A  
HETATM    4  C   UNL     1     -10.168   7.810  67.124  1.00  0.00    -0.365 A  
HETATM    5  C   UNL     1     -10.808   8.956  67.623  1.00  0.00    -0.112 A  
HETATM    6  C   UNL     1     -10.401   9.555  68.824  1.00  0.00    -0.228 A  
HETATM    7  C   UNL     1      -8.694   7.814  69.011  1.00  0.00    -0.135 A  
HETATM    8  C   UNL     1      -9.338   8.953  69.519  1.00  0.00    -0.155 A  
BRANCH   6   9
HETATM    9  C   UNL     1     -11.038  10.809  69.301  1.00  0.00    -0.256 A  
HETATM   10  C   UNL     1     -10.932  12.120  68.846  1.00  0.00    -0.224 A  
HETATM   11  C   UNL     1     -11.639  13.081  69.680  1.00  0.00    -0.322 A  
HETATM   12  C   UNL     1     -12.549  15.191  70.557  1.00  0.00    -0.429 A  
HETATM   13  C   UNL     1     -12.352  12.425  70.688  1.00  0.00    -0.279 A  
HETATM   14  H   UNL     1     -14.155  16.152  72.263  1.00  0.00     0.000 HD 
HETATM   15  C   UNL     1     -11.756  14.498  69.637  1.00  0.00    -0.356 A  
HETATM   16  S   UNL     1     -12.051  10.742  70.686  1.00  0.00    -0.396 SA 
HETATM   17  C   UNL     1     -13.204  13.108  71.581  1.00  0.00    -0.435 A  
HETATM   18  C   UNL     1     -13.285  14.492  71.493  1.00  0.00    -0.358 A  
HETATM   19  O   UNL     1     -14.099  15.205  72.324  1.00  0.00    -0.473 OA 
BRANCH  10  20
HETATM   20  O   UNL     1     -10.291  12.370  67.668  1.00  0.00    -0.211 OA 
BRANCH  20  21
HETATM   21  C   UNL     1     -10.343  13.566  66.996  1.00  0.00    -0.252 A  
HETATM   22  C   UNL     1     -10.360  16.098  65.768  1.00  0.00    -0.378 A  
HETATM   23  C   UNL     1      -9.283  15.714  66.572  1.00  0.00    -0.325 A  
HETATM   24  C   UNL     1     -11.421  13.955  66.210  1.00  0.00    -0.347 A  
HETATM   25  C   UNL     1      -9.274  14.450  67.180  1.00  0.00    -0.230 A  
HETATM   26  C   UNL     1     -11.410  15.189  65.570  1.00  0.00    -0.274 A  
BRANCH  22  27
HETATM   27  O   UNL     1     -10.326  17.371  65.239  1.00  0.00    -0.616 OA 
BRANCH  27  28
HETATM   28  C   UNL     1     -10.248  18.389  66.248  1.00  0.00    -0.406 C  
BRANCH  28  29
HETATM   29  C   UNL     1      -8.996  19.265  66.147  1.00  0.00    -0.255 C  
BRANCH  29  30
HETATM   30  N   UNL     1      -8.661  19.870  67.457  1.00  0.00    -0.328 NA 
HETATM   31  C   UNL     1      -8.636  18.931  68.592  1.00  0.00    -0.340 C  
HETATM   32  C   UNL     1      -7.425  17.996  68.614  1.00  0.00    -0.291 C  
HETATM   33  C   UNL     1      -6.112  18.756  68.458  1.00  0.00    -0.225 C  
HETATM   34  C   UNL     1      -6.172  19.754  67.306  1.00  0.00    -0.202 C  
HETATM   35  C   UNL     1      -7.413  20.639  67.408  1.00  0.00    -0.337 C  
ENDBRANCH  29  30
ENDBRANCH  28  29
ENDBRANCH  27  28
ENDBRANCH  22  27
ENDBRANCH  20  21
ENDBRANCH  10  20
ENDBRANCH   6   9
ENDBRANCH   2   3
TORSDOF 8
ENDMDL
MODEL       36
REMARK 921   NORMALIZED FREE ENERGY PREDICTED BY IDOCK:   -6.23 KCAL/MOL
REMARK 922        TOTAL FREE ENERGY PREDICTED BY IDOCK:  -10.90 KCAL/MOL
REMARK 923 INTER-LIGAND FREE ENERGY PREDICTED BY IDOCK:  -10.10 KCAL/MOL
REMARK 924 INTRA-LIGAND FREE ENERGY PREDICTED BY IDOCK:   -0.80 KCAL/MOL
REMARK 927      BINDING AFFINITY PREDICTED BY RF-SCORE:    0.00 PKD
ROOT
HETATM    1  C   UNL     1      -9.610   4.382  71.077  1.00  0.00    -0.179 C  
HETATM    2  O   UNL     1     -10.318   5.024  70.022  1.00  0.00    -0.275 OA 
ENDROOT
BRANCH   2   3
HETATM    3  C   UNL     1     -10.790   6.280  70.275  1.00  0.00    -0.304 A  
HETATM    4  C   UNL     1     -12.027   6.601  70.828  1.00  0.00    -0.412 A  
HETATM    5  C   UNL     1     -12.405   7.942  71.004  1.00  0.00    -0.180 A  
HETATM    6  C   UNL     1     -11.552   8.995  70.643  1.00  0.00    -0.265 A  
HETATM    7  C   UNL     1      -9.926   7.314  69.928  1.00  0.00    -0.183 A  
HETATM    8  C   UNL     1     -10.295   8.655  70.113  1.00  0.00    -0.219 A  
BRANCH   6   9
HETATM    9  C   UNL     1     -11.994  10.407  70.766  1.00  0.00    -0.363 A  
HETATM   10  C   UNL     1     -11.800  11.503  69.930  1.00  0.00    -0.355 A  
HETATM   11  C   UNL     1     -12.303  12.751  70.486  1.00  0.00    -0.355 A  
HETATM   12  C   UNL     1     -12.879  15.127  70.750  1.00  0.00    -0.473 A  
HETATM   13  C   UNL     1     -12.965  12.518  71.694  1.00  0.00    -0.302 A  
HETATM   14  H   UNL     1     -14.173  16.749  72.201  1.00  0.00     0.000 HD 
HETATM   15  C   UNL     1     -12.272  14.096  70.025  1.00  0.00    -0.418 A  
HETATM   16  S   UNL     1     -12.848  10.882  72.178  1.00  0.00     0.198 SA 
HETATM   17  C   UNL     1     -13.635  13.540  72.401  1.00  0.00    -0.709 A  
HETATM   18  C   UNL     1     -13.577  14.836  71.905  1.00  0.00    -0.398 A  
HETATM   19  O   UNL     1     -14.213  15.862  72.540  1.00  0.00    -0.495 OA 
BRANCH  10  20
HETATM   20  O   UNL     1     -11.271  11.311  68.687  1.00  0.00    -0.206 OA 
BRANCH  20  21
HETATM   21  C   UNL     1     -10.778  12.315  67.891  1.00  0.00    -0.215 A  
HETATM   22  C   UNL     1      -9.668  14.436  66.412  1.00  0.00    -0.302 A  
HETATM   23  C   UNL     1      -8.913  13.798  67.400  1.00  0.00    -0.224 A  
HETATM   24  C   UNL     1     -11.533  12.961  66.920  1.00  0.00    -0.393 A  
HETATM   25  C   UNL     1      -9.467  12.739  68.134  1.00  0.00    -0.219 A  
HETATM   26  C   UNL     1     -10.971  13.982  66.161  1.00  0.00    -0.295 A  
BRANCH  22  27
HETATM   27  O   UNL     1      -9.079  15.500  65.761  1.00  0.00    -0.286 OA 
BRANCH  27  28
HETATM   28  C   UNL     1      -8.054  16.130  66.543  1.00  0.00    -0.296 C  
BRANCH  28  29
HETATM   29  C   UNL     1      -7.982  17.649  66.361  1.00  0.00    -0.274 C  
BRANCH  29  30
HETATM   30  N   UNL     1      -8.278  18.352  67.630  1.00  0.00    -0.251 NA 
HETATM   31  C   UNL     1      -7.132  18.512  68.541  1.00  0.00    -0.277 C  
HETATM   32  C   UNL     1      -6.109  19.559  68.096  1.00  0.00    -0.245 C  
HETATM   33  C   UNL     1      -6.768  20.891  67.750  1.00  0.00    -0.372 C  
HETATM   34  C   UNL     1      -7.978  20.703  66.842  1.00  0.00    -0.242 C  
HETATM   35  C   UNL     1      -8.930  19.647  67.404  1.00  0.00    -0.315 C  
ENDBRANCH  29  30
ENDBRANCH  28  29
ENDBRANCH  27  28
ENDBRANCH  22  27
ENDBRANCH  20  21
ENDBRANCH  10  20
ENDBRANCH   6   9
ENDBRANCH   2   3
TORSDOF 8
ENDMDL
MODEL       37
REMARK 921   NORMALIZED FREE ENERGY PREDICTED BY IDOCK:   -6.20 KCAL/MOL
REMARK 922        TOTAL FREE ENERGY PREDICTED BY IDOCK:  -10.86 KCAL/MOL
REMARK 923 INTER-LIGAND FREE ENERGY PREDICTED BY IDOCK:   -9.42 KCAL/MOL
REMARK 924 INTRA-LIGAND FREE ENERGY PREDICTED BY IDOCK:   -1.44 KCAL/MOL
REMARK 927      BINDING AFFINITY PREDICTED BY RF-SCORE:    0.00 PKD
ROOT
HETATM    1  C   UNL     1     -11.170   7.719  72.849  1.00  0.00    -0.376 C  
HETATM    2  O   UNL     1     -12.210   8.659  72.605  1.00  0.00    -0.361 OA 
ENDROOT
BRANCH   2   3
HETATM    3  C   UNL     1     -11.970   9.609  71.654  1.00  0.00    -0.394 A  
HETATM    4  C   UNL     1     -10.915   9.616  70.744  1.00  0.00    -0.397 A  
HETATM    5  C   UNL     1     -10.763  10.677  69.836  1.00  0.00    -0.260 A  
HETATM    6  C   UNL     1     -11.666  11.748  69.807  1.00  0.00    -0.408 A  
HETATM    7  C   UNL     1     -12.884  10.657  71.625  1.00  0.00    -0.570 A  
HETATM    8  C   UNL     1     -12.742  11.713  70.711  1.00  0.00    -0.291 A  
BRANCH   6   9
HETATM    9  C   UNL     1     -11.451  12.899  68.892  1.00  0.00    -0.304 A  
HETATM   10  C   UNL     1     -11.386  12.964  67.503  1.00  0.00    -0.308 A  
HETATM   11  C   UNL     1     -11.036  14.284  67.002  1.00  0.00    -0.305 A  
HETATM   12  C   UNL     1     -10.514  16.143  65.478  1.00  0.00    -0.407 A  
HETATM   13  C   UNL     1     -10.957  15.203  68.052  1.00  0.00    -0.295 A  
HETATM   14  H   UNL     1     -10.147  18.646  65.386  1.00  0.00     0.000 HD 
HETATM   15  C   UNL     1     -10.803  14.791  65.693  1.00  0.00    -0.344 A  
HETATM   16  S   UNL     1     -11.164  14.449  69.572  1.00  0.00    -0.235 SA 
HETATM   17  C   UNL     1     -10.729  16.579  67.840  1.00  0.00    -0.337 A  
HETATM   18  C   UNL     1     -10.511  17.023  66.541  1.00  0.00    -0.250 A  
HETATM   19  O   UNL     1     -10.295  18.343  66.275  1.00  0.00    -0.391 OA 
BRANCH  10  20
HETATM   20  O   UNL     1     -11.730  11.869  66.765  1.00  0.00    -0.548 OA 
BRANCH  20  21
HETATM   21  C   UNL     1     -10.846  11.118  66.031  1.00  0.00    -0.166 A  
HETATM   22  C   UNL     1      -9.150   9.602  64.375  1.00  0.00    -0.229 A  
HETATM   23  C   UNL     1      -9.847  10.696  63.854  1.00  0.00    -0.398 A  
HETATM   24  C   UNL     1     -10.165  10.021  66.545  1.00  0.00    -0.291 A  
HETATM   25  C   UNL     1     -10.690  11.452  64.681  1.00  0.00    -0.378 A  
HETATM   26  C   UNL     1      -9.296   9.297  65.736  1.00  0.00    -0.306 A  
BRANCH  22  27
HETATM   27  O   UNL     1      -8.376   8.873  63.496  1.00  0.00    -0.178 OA 
BRANCH  27  28
HETATM   28  C   UNL     1      -7.440   8.014  64.162  1.00  0.00    -0.107 C  
BRANCH  28  29
HETATM   29  C   UNL     1      -7.433   6.578  63.631  1.00  0.00    -0.082 C  
BRANCH  29  30
HETATM   30  N   UNL     1      -8.563   5.798  64.187  1.00  0.00     0.019 NA 
HETATM   31  C   UNL     1      -8.857   4.536  63.488  1.00  0.00    -0.139 C  
HETATM   32  C   UNL     1      -7.844   3.417  63.742  1.00  0.00    -0.080 C  
HETATM   33  C   UNL     1      -7.583   3.211  65.231  1.00  0.00    -0.080 C  
HETATM   34  C   UNL     1      -7.323   4.532  65.947  1.00  0.00    -0.077 C  
HETATM   35  C   UNL     1      -8.411   5.556  65.626  1.00  0.00    -0.141 C  
ENDBRANCH  29  30
ENDBRANCH  28  29
ENDBRANCH  27  28
ENDBRANCH  22  27
ENDBRANCH  20  21
ENDBRANCH  10  20
ENDBRANCH   6   9
ENDBRANCH   2   3
TORSDOF 8
ENDMDL
MODEL       38
REMARK 921   NORMALIZED FREE ENERGY PREDICTED BY IDOCK:   -6.20 KCAL/MOL
REMARK 922        TOTAL FREE ENERGY PREDICTED BY IDOCK:  -10.85 KCAL/MOL
REMARK 923 INTER-LIGAND FREE ENERGY PREDICTED BY IDOCK:   -8.69 KCAL/MOL
REMARK 924 INTRA-LIGAND FREE ENERGY PREDICTED BY IDOCK:   -2.16 KCAL/MOL
REMARK 927      BINDING AFFINITY PREDICTED BY RF-SCORE:    0.00 PKD
ROOT
HETATM    1  C   UNL     1      -8.265   4.320  67.724  1.00  0.00    -0.095 C  
HETATM    2  O   UNL     1      -7.452   5.464  67.962  1.00  0.00    -0.075 OA 
ENDROOT
BRANCH   2   3
HETATM    3  C   UNL     1      -7.949   6.667  67.551  1.00  0.00    -0.115 A  
HETATM    4  C   UNL     1      -7.221   7.841  67.368  1.00  0.00    -0.091 A  
HETATM    5  C   UNL     1      -7.864   9.025  66.973  1.00  0.00    -0.098 A  
HETATM    6  C   UNL     1      -9.246   9.063  66.739  1.00  0.00    -0.198 A  
HETATM    7  C   UNL     1      -9.318   6.685  67.306  1.00  0.00    -0.144 A  
HETATM    8  C   UNL     1      -9.962   7.864  66.899  1.00  0.00    -0.332 A  
BRANCH   6   9
HETATM    9  C   UNL     1      -9.923  10.339  66.394  1.00  0.00    -0.229 A  
HETATM   10  C   UNL     1     -10.366  11.387  67.197  1.00  0.00    -0.212 A  
HETATM   11  C   UNL     1     -11.095  12.410  66.462  1.00  0.00    -0.346 A  
HETATM   12  C   UNL     1     -12.365  14.448  65.931  1.00  0.00    -0.342 A  
HETATM   13  C   UNL     1     -11.076  12.138  65.092  1.00  0.00    -0.322 A  
HETATM   14  H   UNL     1     -13.240  15.849  64.012  1.00  0.00     0.000 HD 
HETATM   15  C   UNL     1     -11.764  13.599  66.866  1.00  0.00    -0.423 A  
HETATM   16  S   UNL     1     -10.326  10.640  64.752  1.00  0.00    -0.200 SA 
HETATM   17  C   UNL     1     -11.624  13.019  64.136  1.00  0.00    -0.462 A  
HETATM   18  C   UNL     1     -12.263  14.169  64.583  1.00  0.00    -0.445 A  
HETATM   19  O   UNL     1     -12.803  15.062  63.705  1.00  0.00    -0.651 OA 
BRANCH  10  20
HETATM   20  O   UNL     1     -10.017  11.413  68.515  1.00  0.00    -0.190 OA 
BRANCH  20  21
HETATM   21  C   UNL     1     -10.635  10.679  69.497  1.00  0.00    -0.230 A  
HETATM   22  C   UNL     1     -11.806   9.018  71.443  1.00  0.00    -0.325 A  
HETATM   23  C   UNL     1     -10.485   8.806  71.042  1.00  0.00    -0.293 A  
HETATM   24  C   UNL     1     -11.955  10.879  69.884  1.00  0.00    -0.430 A  
HETATM   25  C   UNL     1      -9.901   9.636  70.073  1.00  0.00    -0.286 A  
HETATM   26  C   UNL     1     -12.520  10.084  70.876  1.00  0.00    -0.431 A  
BRANCH  22  27
HETATM   27  O   UNL     1     -12.332   8.136  72.364  1.00  0.00    -0.337 OA 
BRANCH  27  28
HETATM   28  C   UNL     1     -12.162   6.764  71.978  1.00  0.00    -0.291 C  
BRANCH  28  29
HETATM   29  C   UNL     1     -11.305   5.950  72.951  1.00  0.00    -0.226 C  
BRANCH  29  30
HETATM   30  N   UNL     1     -10.712   4.770  72.281  1.00  0.00    -0.161 NA 
HETATM   31  C   UNL     1     -10.117   5.033  70.960  1.00  0.00    -0.227 C  
HETATM   32  C   UNL     1      -8.786   5.788  71.002  1.00  0.00    -0.143 C  
HETATM   33  C   UNL     1      -7.796   5.148  71.970  1.00  0.00    -0.111 C  
HETATM   34  C   UNL     1      -8.442   4.843  73.317  1.00  0.00    -0.103 C  
HETATM   35  C   UNL     1      -9.749   4.072  73.140  1.00  0.00    -0.126 C  
ENDBRANCH  29  30
ENDBRANCH  28  29
ENDBRANCH  27  28
ENDBRANCH  22  27
ENDBRANCH  20  21
ENDBRANCH  10  20
ENDBRANCH   6   9
ENDBRANCH   2   3
TORSDOF 8
ENDMDL
MODEL       39
REMARK 921   NORMALIZED FREE ENERGY PREDICTED BY IDOCK:   -6.18 KCAL/MOL
REMARK 922        TOTAL FREE ENERGY PREDICTED BY IDOCK:  -10.82 KCAL/MOL
REMARK 923 INTER-LIGAND FREE ENERGY PREDICTED BY IDOCK:   -9.48 KCAL/MOL
REMARK 924 INTRA-LIGAND FREE ENERGY PREDICTED BY IDOCK:   -1.34 KCAL/MOL
REMARK 927      BINDING AFFINITY PREDICTED BY RF-SCORE:    0.00 PKD
ROOT
HETATM    1  C   UNL     1     -13.726  13.928  72.343  1.00  0.00    -0.576 C  
HETATM    2  O   UNL     1     -13.554  12.516  72.296  1.00  0.00    -0.530 OA 
ENDROOT
BRANCH   2   3
HETATM    3  C   UNL     1     -12.712  12.031  71.337  1.00  0.00    -0.275 A  
HETATM    4  C   UNL     1     -12.224  12.731  70.237  1.00  0.00    -0.351 A  
HETATM    5  C   UNL     1     -11.388  12.100  69.302  1.00  0.00    -0.327 A  
HETATM    6  C   UNL     1     -11.010  10.758  69.449  1.00  0.00    -0.305 A  
HETATM    7  C   UNL     1     -12.330  10.704  71.507  1.00  0.00    -0.414 A  
HETATM    8  C   UNL     1     -11.486  10.073  70.580  1.00  0.00    -0.425 A  
BRANCH   6   9
HETATM    9  C   UNL     1     -10.186  10.083  68.414  1.00  0.00    -0.172 A  
HETATM   10  C   UNL     1      -9.195  10.574  67.569  1.00  0.00    -0.142 A  
HETATM   11  C   UNL     1      -8.716   9.592  66.608  1.00  0.00    -0.146 A  
HETATM   12  C   UNL     1      -7.461   8.534  64.775  1.00  0.00    -0.095 A  
HETATM   13  C   UNL     1      -9.302   8.346  66.845  1.00  0.00    -0.174 A  
HETATM   14  H   UNL     1      -6.995   6.310  63.659  1.00  0.00     0.000 HD 
HETATM   15  C   UNL     1      -7.777   9.662  65.540  1.00  0.00    -0.112 A  
HETATM   16  S   UNL     1     -10.474   8.422  68.087  1.00  0.00    -0.131 SA 
HETATM   17  C   UNL     1      -8.944   7.189  66.120  1.00  0.00    -0.168 A  
HETATM   18  C   UNL     1      -8.019   7.311  65.091  1.00  0.00    -0.128 A  
HETATM   19  O   UNL     1      -7.627   6.226  64.363  1.00  0.00    -0.085 OA 
BRANCH  10  20
HETATM   20  O   UNL     1      -8.712  11.835  67.765  1.00  0.00    -0.144 OA 
BRANCH  20  21
HETATM   21  C   UNL     1      -9.068  12.927  67.013  1.00  0.00    -0.228 A  
HETATM   22  C   UNL     1      -9.806  15.267  65.634  1.00  0.00    -0.348 A  
HETATM   23  C   UNL     1      -8.991  15.345  66.767  1.00  0.00    -0.288 A  
HETATM   24  C   UNL     1      -9.891  12.850  65.896  1.00  0.00    -0.239 A  
HETATM   25  C   UNL     1      -8.621  14.178  67.451  1.00  0.00    -0.219 A  
HETATM   26  C   UNL     1     -10.222  14.002  65.191  1.00  0.00    -0.396 A  
BRANCH  22  27
HETATM   27  O   UNL     1     -10.170  16.456  65.038  1.00  0.00    -0.566 OA 
BRANCH  27  28
HETATM   28  C   UNL     1     -10.720  17.398  65.970  1.00  0.00    -0.122 C  
BRANCH  28  29
HETATM   29  C   UNL     1     -10.075  18.785  65.901  1.00  0.00    -0.188 C  
BRANCH  29  30
HETATM   30  N   UNL     1     -10.192  19.492  67.197  1.00  0.00    -0.394 NA 
HETATM   31  C   UNL     1      -9.847  18.690  68.382  1.00  0.00    -0.384 C  
HETATM   32  C   UNL     1      -8.349  18.430  68.559  1.00  0.00    -0.344 C  
HETATM   33  C   UNL     1      -7.532  19.715  68.467  1.00  0.00    -0.369 C  
HETATM   34  C   UNL     1      -7.933  20.553  67.258  1.00  0.00    -0.361 C  
HETATM   35  C   UNL     1      -9.447  20.755  67.206  1.00  0.00    -0.327 C  
ENDBRANCH  29  30
ENDBRANCH  28  29
ENDBRANCH  27  28
ENDBRANCH  22  27
ENDBRANCH  20  21
ENDBRANCH  10  20
ENDBRANCH   6   9
ENDBRANCH   2   3
TORSDOF 8
ENDMDL
MODEL       40
REMARK 921   NORMALIZED FREE ENERGY PREDICTED BY IDOCK:   -6.17 KCAL/MOL
REMARK 922        TOTAL FREE ENERGY PREDICTED BY IDOCK:  -10.81 KCAL/MOL
REMARK 923 INTER-LIGAND FREE ENERGY PREDICTED BY IDOCK:   -8.59 KCAL/MOL
REMARK 924 INTRA-LIGAND FREE ENERGY PREDICTED BY IDOCK:   -2.23 KCAL/MOL
REMARK 927      BINDING AFFINITY PREDICTED BY RF-SCORE:    0.00 PKD
ROOT
HETATM    1  C   UNL     1      -5.706  10.468  63.034  1.00  0.00    -0.146 C  
HETATM    2  O   UNL     1      -7.102  10.471  62.761  1.00  0.00    -0.134 OA 
ENDROOT
BRANCH   2   3
HETATM    3  C   UNL     1      -7.937  10.306  63.828  1.00  0.00    -0.128 A  
HETATM    4  C   UNL     1      -9.328  10.239  63.785  1.00  0.00    -0.339 A  
HETATM    5  C   UNL     1     -10.073  10.100  64.967  1.00  0.00    -0.305 A  
HETATM    6  C   UNL     1      -9.448  10.014  66.219  1.00  0.00    -0.241 A  
HETATM    7  C   UNL     1      -7.302  10.204  65.062  1.00  0.00    -0.139 A  
HETATM    8  C   UNL     1      -8.043  10.054  66.244  1.00  0.00    -0.117 A  
BRANCH   6   9
HETATM    9  C   UNL     1     -10.252   9.944  67.466  1.00  0.00    -0.216 A  
HETATM   10  C   UNL     1     -11.303  10.733  67.924  1.00  0.00    -0.299 A  
HETATM   11  C   UNL     1     -11.738  10.393  69.271  1.00  0.00    -0.212 A  
HETATM   12  C   UNL     1     -12.968  10.398  71.401  1.00  0.00    -0.545 A  
HETATM   13  C   UNL     1     -11.054   9.268  69.737  1.00  0.00    -0.150 A  
HETATM   14  H   UNL     1     -13.304   9.102  73.549  1.00  0.00     0.000 HD 
HETATM   15  C   UNL     1     -12.711  10.955  70.143  1.00  0.00    -0.227 A  
HETATM   16  S   UNL     1      -9.853   8.752  68.636  1.00  0.00    -0.173 SA 
HETATM   17  C   UNL     1     -11.349   8.661  70.977  1.00  0.00    -0.322 A  
HETATM   18  C   UNL     1     -12.312   9.247  71.789  1.00  0.00    -0.379 A  
HETATM   19  O   UNL     1     -12.645   8.701  72.994  1.00  0.00    -0.232 OA 
BRANCH  10  20
HETATM   20  O   UNL     1     -11.870  11.646  67.083  1.00  0.00    -0.608 OA 
BRANCH  20  21
HETATM   21  C   UNL     1     -11.576  12.987  67.082  1.00  0.00    -0.358 A  
HETATM   22  C   UNL     1     -10.812  15.694  66.982  1.00  0.00    -0.294 A  
HETATM   23  C   UNL     1     -10.533  14.844  65.907  1.00  0.00    -0.327 A  
HETATM   24  C   UNL     1     -11.838  13.828  68.157  1.00  0.00    -0.411 A  
HETATM   25  C   UNL     1     -10.917  13.496  65.957  1.00  0.00    -0.281 A  
HETATM   26  C   UNL     1     -11.497  15.174  68.090  1.00  0.00    -0.356 A  
BRANCH  22  27
HETATM   27  O   UNL     1     -10.364  16.995  66.886  1.00  0.00    -0.308 OA 
BRANCH  27  28
HETATM   28  C   UNL     1      -9.440  17.341  67.928  1.00  0.00    -0.266 C  
BRANCH  28  29
HETATM   29  C   UNL     1      -8.037  16.760  67.728  1.00  0.00    -0.179 C  
BRANCH  29  30
HETATM   30  N   UNL     1      -7.664  15.867  68.849  1.00  0.00    -0.179 NA 
HETATM   31  C   UNL     1      -8.216  14.503  68.773  1.00  0.00    -0.146 C  
HETATM   32  C   UNL     1      -7.553  13.609  67.723  1.00  0.00    -0.167 C  
HETATM   33  C   UNL     1      -6.033  13.616  67.842  1.00  0.00    -0.147 C  
HETATM   34  C   UNL     1      -5.483  15.033  67.964  1.00  0.00    -0.140 C  
HETATM   35  C   UNL     1      -6.213  15.815  69.055  1.00  0.00    -0.119 C  
ENDBRANCH  29  30
ENDBRANCH  28  29
ENDBRANCH  27  28
ENDBRANCH  22  27
ENDBRANCH  20  21
ENDBRANCH  10  20
ENDBRANCH   6   9
ENDBRANCH   2   3
TORSDOF 8
ENDMDL
MODEL       41
REMARK 921   NORMALIZED FREE ENERGY PREDICTED BY IDOCK:   -6.15 KCAL/MOL
REMARK 922        TOTAL FREE ENERGY PREDICTED BY IDOCK:  -10.78 KCAL/MOL
REMARK 923 INTER-LIGAND FREE ENERGY PREDICTED BY IDOCK:   -8.86 KCAL/MOL
REMARK 924 INTRA-LIGAND FREE ENERGY PREDICTED BY IDOCK:   -1.92 KCAL/MOL
REMARK 927      BINDING AFFINITY PREDICTED BY RF-SCORE:    0.00 PKD
ROOT
HETATM    1  C   UNL     1     -11.359   6.691  72.393  1.00  0.00    -0.272 C  
HETATM    2  O   UNL     1     -11.430   8.028  72.876  1.00  0.00    -0.411 OA 
ENDROOT
BRANCH   2   3
HETATM    3  C   UNL     1     -11.450   9.019  71.937  1.00  0.00    -0.370 A  
HETATM    4  C   UNL     1     -12.490   9.917  71.708  1.00  0.00    -0.487 A  
HETATM    5  C   UNL     1     -12.396  10.872  70.682  1.00  0.00    -0.470 A  
HETATM    6  C   UNL     1     -11.257  10.961  69.869  1.00  0.00    -0.355 A  
HETATM    7  C   UNL     1     -10.306   9.107  71.150  1.00  0.00    -0.387 A  
HETATM    8  C   UNL     1     -10.204  10.068  70.132  1.00  0.00    -0.297 A  
BRANCH   6   9
HETATM    9  C   UNL     1     -11.203  11.926  68.741  1.00  0.00    -0.259 A  
HETATM   10  C   UNL     1     -11.191  11.725  67.364  1.00  0.00    -0.297 A  
HETATM   11  C   UNL     1     -11.008  12.951  66.602  1.00  0.00    -0.302 A  
HETATM   12  C   UNL     1     -10.749  14.520  64.725  1.00  0.00    -0.414 A  
HETATM   13  C   UNL     1     -10.998  14.060  67.452  1.00  0.00    -0.293 A  
HETATM   14  H   UNL     1     -10.668  16.981  64.138  1.00  0.00     0.000 HD 
HETATM   15  C   UNL     1     -10.877  13.213  65.210  1.00  0.00    -0.314 A  
HETATM   16  S   UNL     1     -11.069  13.601  69.097  1.00  0.00    -0.197 SA 
HETATM   17  C   UNL     1     -10.933  15.385  66.969  1.00  0.00    -0.306 A  
HETATM   18  C   UNL     1     -10.810  15.586  65.600  1.00  0.00    -0.346 A  
HETATM   19  O   UNL     1     -10.752  16.843  65.075  1.00  0.00    -0.700 OA 
BRANCH  10  20
HETATM   20  O   UNL     1     -11.435  10.477  66.868  1.00  0.00    -0.175 OA 
BRANCH  20  21
HETATM   21  C   UNL     1     -10.459   9.570  66.537  1.00  0.00    -0.131 A  
HETATM   22  C   UNL     1      -8.490   7.625  66.028  1.00  0.00    -0.144 A  
HETATM   23  C   UNL     1      -9.646   7.286  66.737  1.00  0.00    -0.240 A  
HETATM   24  C   UNL     1      -9.302   9.910  65.846  1.00  0.00    -0.245 A  
HETATM   25  C   UNL     1     -10.628   8.256  66.987  1.00  0.00    -0.328 A  
HETATM   26  C   UNL     1      -8.349   8.939  65.559  1.00  0.00    -0.142 A  
BRANCH  22  27
HETATM   27  O   UNL     1      -7.545   6.635  65.858  1.00  0.00    -0.082 OA 
BRANCH  27  28
HETATM   28  C   UNL     1      -7.047   6.125  67.104  1.00  0.00    -0.070 C  
BRANCH  28  29
HETATM   29  C   UNL     1      -7.464   4.680  67.392  1.00  0.00    -0.078 C  
BRANCH  29  30
HETATM   30  N   UNL     1      -7.070   4.274  68.761  1.00  0.00    -0.051 NA 
HETATM   31  C   UNL     1      -7.351   5.265  69.813  1.00  0.00    -0.064 C  
HETATM   32  C   UNL     1      -8.831   5.397  70.182  1.00  0.00    -0.142 C  
HETATM   33  C   UNL     1      -9.470   4.043  70.472  1.00  0.00    -0.248 C  
HETATM   34  C   UNL     1      -9.133   3.018  69.394  1.00  0.00    -0.198 C  
HETATM   35  C   UNL     1      -7.628   2.970  69.132  1.00  0.00    -0.047 C  
ENDBRANCH  29  30
ENDBRANCH  28  29
ENDBRANCH  27  28
ENDBRANCH  22  27
ENDBRANCH  20  21
ENDBRANCH  10  20
ENDBRANCH   6   9
ENDBRANCH   2   3
TORSDOF 8
ENDMDL
MODEL       42
REMARK 921   NORMALIZED FREE ENERGY PREDICTED BY IDOCK:   -6.09 KCAL/MOL
REMARK 922        TOTAL FREE ENERGY PREDICTED BY IDOCK:  -10.69 KCAL/MOL
REMARK 923 INTER-LIGAND FREE ENERGY PREDICTED BY IDOCK:   -8.95 KCAL/MOL
REMARK 924 INTRA-LIGAND FREE ENERGY PREDICTED BY IDOCK:   -1.74 KCAL/MOL
REMARK 927      BINDING AFFINITY PREDICTED BY RF-SCORE:    0.00 PKD
ROOT
HETATM    1  C   UNL     1     -12.785  12.179  63.862  1.00  0.00    -0.377 C  
HETATM    2  O   UNL     1     -13.110  12.922  65.031  1.00  0.00    -0.794 OA 
ENDROOT
BRANCH   2   3
HETATM    3  C   UNL     1     -12.173  13.812  65.473  1.00  0.00    -0.442 A  
HETATM    4  C   UNL     1     -11.226  14.469  64.692  1.00  0.00    -0.359 A  
HETATM    5  C   UNL     1     -10.294  15.338  65.281  1.00  0.00    -0.430 A  
HETATM    6  C   UNL     1     -10.292  15.581  66.661  1.00  0.00    -0.287 A  
HETATM    7  C   UNL     1     -12.195  14.057  66.843  1.00  0.00    -0.415 A  
HETATM    8  C   UNL     1     -11.272  14.934  67.433  1.00  0.00    -0.343 A  
BRANCH   6   9
HETATM    9  C   UNL     1      -9.253  16.444  67.280  1.00  0.00    -0.215 A  
HETATM   10  C   UNL     1      -7.907  16.209  67.546  1.00  0.00    -0.147 A  
HETATM   11  C   UNL     1      -7.266  17.290  68.280  1.00  0.00    -0.211 A  
HETATM   12  C   UNL     1      -5.574  18.637  69.452  1.00  0.00    -0.225 A  
HETATM   13  C   UNL     1      -8.146  18.362  68.444  1.00  0.00    -0.308 A  
HETATM   14  H   UNL     1      -5.138  20.926  70.444  1.00  0.00     0.000 HD 
HETATM   15  C   UNL     1      -5.955  17.455  68.807  1.00  0.00    -0.170 A  
HETATM   16  S   UNL     1      -9.708  17.998  67.852  1.00  0.00    -0.311 SA 
HETATM   17  C   UNL     1      -7.754  19.582  69.037  1.00  0.00    -0.332 A  
HETATM   18  C   UNL     1      -6.461  19.693  69.531  1.00  0.00    -0.339 A  
HETATM   19  O   UNL     1      -6.023  20.850  70.105  1.00  0.00    -0.452 OA 
BRANCH  10  20
HETATM   20  O   UNL     1      -7.311  15.091  67.041  1.00  0.00    -0.143 OA 
BRANCH  20  21
HETATM   21  C   UNL     1      -7.222  13.892  67.704  1.00  0.00    -0.174 A  
HETATM   22  C   UNL     1      -7.235  11.428  69.063  1.00  0.00    -0.118 A  
HETATM   23  C   UNL     1      -8.203  11.701  68.092  1.00  0.00    -0.151 A  
HETATM   24  C   UNL     1      -6.270  13.628  68.681  1.00  0.00    -0.088 A  
HETATM   25  C   UNL     1      -8.194  12.928  67.414  1.00  0.00    -0.187 A  
HETATM   26  C   UNL     1      -6.252  12.394  69.323  1.00  0.00    -0.101 A  
BRANCH  22  27
HETATM   27  O   UNL     1      -7.331  10.222  69.725  1.00  0.00    -0.134 OA 
BRANCH  27  28
HETATM   28  C   UNL     1      -6.902   9.113  68.921  1.00  0.00    -0.056 C  
BRANCH  28  29
HETATM   29  C   UNL     1      -7.935   7.987  68.818  1.00  0.00    -0.119 C  
BRANCH  29  30
HETATM   30  N   UNL     1      -9.256   8.429  69.323  1.00  0.00    -0.154 NA 
HETATM   31  C   UNL     1     -10.376   8.255  68.383  1.00  0.00    -0.199 C  
HETATM   32  C   UNL     1     -10.831   6.805  68.200  1.00  0.00    -0.296 C  
HETATM   33  C   UNL     1     -11.079   6.111  69.535  1.00  0.00    -0.490 C  
HETATM   34  C   UNL     1      -9.929   6.338  70.510  1.00  0.00    -0.221 C  
HETATM   35  C   UNL     1      -9.583   7.823  70.618  1.00  0.00    -0.166 C  
ENDBRANCH  29  30
ENDBRANCH  28  29
ENDBRANCH  27  28
ENDBRANCH  22  27
ENDBRANCH  20  21
ENDBRANCH  10  20
ENDBRANCH   6   9
ENDBRANCH   2   3
TORSDOF 8
ENDMDL
MODEL       43
REMARK 921   NORMALIZED FREE ENERGY PREDICTED BY IDOCK:   -6.09 KCAL/MOL
REMARK 922        TOTAL FREE ENERGY PREDICTED BY IDOCK:  -10.69 KCAL/MOL
REMARK 923 INTER-LIGAND FREE ENERGY PREDICTED BY IDOCK:   -8.88 KCAL/MOL
REMARK 924 INTRA-LIGAND FREE ENERGY PREDICTED BY IDOCK:   -1.80 KCAL/MOL
REMARK 927      BINDING AFFINITY PREDICTED BY RF-SCORE:    0.00 PKD
ROOT
HETATM    1  C   UNL     1     -13.367  13.432  72.139  1.00  0.00    -0.520 C  
HETATM    2  O   UNL     1     -13.784  12.077  72.262  1.00  0.00    -0.300 OA 
ENDROOT
BRANCH   2   3
HETATM    3  C   UNL     1     -12.931  11.125  71.781  1.00  0.00    -0.421 A  
HETATM    4  C   UNL     1     -11.942  11.315  70.819  1.00  0.00    -0.383 A  
HETATM    5  C   UNL     1     -11.152  10.238  70.386  1.00  0.00    -0.391 A  
HETATM    6  C   UNL     1     -11.323   8.949  70.910  1.00  0.00    -0.336 A  
HETATM    7  C   UNL     1     -13.101   9.855  72.323  1.00  0.00    -0.419 A  
HETATM    8  C   UNL     1     -12.306   8.779  71.900  1.00  0.00    -0.429 A  
BRANCH   6   9
HETATM    9  C   UNL     1     -10.531   7.806  70.388  1.00  0.00    -0.221 A  
HETATM   10  C   UNL     1      -9.491   7.758  69.465  1.00  0.00    -0.160 A  
HETATM   11  C   UNL     1      -9.067   6.404  69.140  1.00  0.00    -0.131 A  
HETATM   12  C   UNL     1      -7.858   4.510  68.139  1.00  0.00    -0.080 A  
HETATM   13  C   UNL     1      -9.747   5.475  69.931  1.00  0.00    -0.174 A  
HETATM   14  H   UNL     1      -7.534   2.004  68.293  1.00  0.00     0.000 HD 
HETATM   15  C   UNL     1      -8.106   5.885  68.229  1.00  0.00    -0.109 A  
HETATM   16  S   UNL     1     -10.933   6.220  70.910  1.00  0.00    -0.301 SA 
HETATM   17  C   UNL     1      -9.460   4.093  69.893  1.00  0.00    -0.265 A  
HETATM   18  C   UNL     1      -8.510   3.638  68.987  1.00  0.00    -0.073 A  
HETATM   19  O   UNL     1      -8.184   2.315  68.912  1.00  0.00    -0.051 OA 
BRANCH  10  20
HETATM   20  O   UNL     1      -8.922   8.922  69.037  1.00  0.00    -0.135 OA 
BRANCH  20  21
HETATM   21  C   UNL     1      -9.067   9.438  67.773  1.00  0.00    -0.125 A  
HETATM   22  C   UNL     1      -9.327  10.669  65.256  1.00  0.00    -0.214 A  
HETATM   23  C   UNL     1      -8.386  11.140  66.175  1.00  0.00    -0.144 A  
HETATM   24  C   UNL     1     -10.014   8.980  66.865  1.00  0.00    -0.313 A  
HETATM   25  C   UNL     1      -8.255  10.524  67.428  1.00  0.00    -0.118 A  
HETATM   26  C   UNL     1     -10.114   9.562  65.606  1.00  0.00    -0.157 A  
BRANCH  22  27
HETATM   27  O   UNL     1      -9.435  11.351  64.062  1.00  0.00    -0.208 OA 
BRANCH  27  28
HETATM   28  C   UNL     1     -10.580  12.216  64.019  1.00  0.00    -0.389 C  
BRANCH  28  29
HETATM   29  C   UNL     1     -10.305  13.632  64.533  1.00  0.00    -0.330 C  
BRANCH  29  30
HETATM   30  N   UNL     1     -11.473  14.167  65.272  1.00  0.00    -0.319 NA 
HETATM   31  C   UNL     1     -12.322  13.153  65.919  1.00  0.00    -0.398 C  
HETATM   32  C   UNL     1     -11.709  12.516  67.169  1.00  0.00    -0.425 C  
HETATM   33  C   UNL     1     -11.200  13.564  68.154  1.00  0.00    -0.302 C  
HETATM   34  C   UNL     1     -10.359  14.630  67.458  1.00  0.00    -0.234 C  
HETATM   35  C   UNL     1     -11.087  15.198  66.241  1.00  0.00    -0.309 C  
ENDBRANCH  29  30
ENDBRANCH  28  29
ENDBRANCH  27  28
ENDBRANCH  22  27
ENDBRANCH  20  21
ENDBRANCH  10  20
ENDBRANCH   6   9
ENDBRANCH   2   3
TORSDOF 8
ENDMDL
MODEL       44
REMARK 921   NORMALIZED FREE ENERGY PREDICTED BY IDOCK:   -6.06 KCAL/MOL
REMARK 922        TOTAL FREE ENERGY PREDICTED BY IDOCK:  -10.65 KCAL/MOL
REMARK 923 INTER-LIGAND FREE ENERGY PREDICTED BY IDOCK:   -8.91 KCAL/MOL
REMARK 924 INTRA-LIGAND FREE ENERGY PREDICTED BY IDOCK:   -1.74 KCAL/MOL
REMARK 927      BINDING AFFINITY PREDICTED BY RF-SCORE:    0.00 PKD
ROOT
HETATM    1  C   UNL     1      -5.709  14.097  67.779  1.00  0.00    -0.054 C  
HETATM    2  O   UNL     1      -5.879  12.918  67.001  1.00  0.00    -0.306 OA 
ENDROOT
BRANCH   2   3
HETATM    3  C   UNL     1      -6.596  11.904  67.570  1.00  0.00    -0.110 A  
HETATM    4  C   UNL     1      -7.145  10.810  66.907  1.00  0.00    -0.114 A  
HETATM    5  C   UNL     1      -7.894   9.851  67.610  1.00  0.00    -0.098 A  
HETATM    6  C   UNL     1      -8.101   9.956  68.992  1.00  0.00    -0.111 A  
HETATM    7  C   UNL     1      -6.778  12.013  68.945  1.00  0.00    -0.093 A  
HETATM    8  C   UNL     1      -7.515  11.051  69.653  1.00  0.00     0.029 A  
BRANCH   6   9
HETATM    9  C   UNL     1      -8.956   8.976  69.709  1.00  0.00    -0.154 A  
HETATM   10  C   UNL     1     -10.330   8.756  69.666  1.00  0.00    -0.213 A  
HETATM   11  C   UNL     1     -10.787   7.764  70.627  1.00  0.00    -0.241 A  
HETATM   12  C   UNL     1     -12.242   6.265  71.926  1.00  0.00    -0.256 A  
HETATM   13  C   UNL     1      -9.702   7.188  71.292  1.00  0.00    -0.170 A  
HETATM   14  H   UNL     1     -12.216   4.351  73.583  1.00  0.00     0.000 HD 
HETATM   15  C   UNL     1     -12.078   7.275  70.971  1.00  0.00    -0.361 A  
HETATM   16  S   UNL     1      -8.224   7.929  70.856  1.00  0.00    -0.105 SA 
HETATM   17  C   UNL     1      -9.851   6.127  72.210  1.00  0.00    -0.175 A  
HETATM   18  C   UNL     1     -11.133   5.683  72.508  1.00  0.00    -0.276 A  
HETATM   19  O   UNL     1     -11.339   4.654  73.380  1.00  0.00    -0.323 OA 
BRANCH  10  20
HETATM   20  O   UNL     1     -11.079   9.384  68.713  1.00  0.00    -0.096 OA 
BRANCH  20  21
HETATM   21  C   UNL     1     -11.381  10.723  68.722  1.00  0.00    -0.288 A  
HETATM   22  C   UNL     1     -11.860  13.494  68.607  1.00  0.00    -0.369 A  
HETATM   23  C   UNL     1     -11.490  12.796  67.454  1.00  0.00    -0.396 A  
HETATM   24  C   UNL     1     -11.733  11.420  69.871  1.00  0.00    -0.424 A  
HETATM   25  C   UNL     1     -11.254  11.415  67.512  1.00  0.00    -0.356 A  
HETATM   26  C   UNL     1     -12.010  12.781  69.806  1.00  0.00    -0.362 A  
BRANCH  22  27
HETATM   27  O   UNL     1     -12.030  14.857  68.489  1.00  0.00    -0.309 OA 
BRANCH  27  28
HETATM   28  C   UNL     1     -10.899  15.507  67.891  1.00  0.00    -0.307 C  
BRANCH  28  29
HETATM   29  C   UNL     1     -10.567  16.867  68.512  1.00  0.00    -0.367 C  
BRANCH  29  30
HETATM   30  N   UNL     1      -9.411  17.495  67.833  1.00  0.00    -0.260 NA 
HETATM   31  C   UNL     1      -9.591  17.745  66.393  1.00  0.00    -0.283 C  
HETATM   32  C   UNL     1     -10.529  18.908  66.063  1.00  0.00    -0.507 C  
HETATM   33  C   UNL     1     -10.165  20.173  66.833  1.00  0.00    -0.566 C  
HETATM   34  C   UNL     1      -9.940  19.888  68.314  1.00  0.00    -0.552 C  
HETATM   35  C   UNL     1      -8.972  18.721  68.509  1.00  0.00    -0.341 C  
ENDBRANCH  29  30
ENDBRANCH  28  29
ENDBRANCH  27  28
ENDBRANCH  22  27
ENDBRANCH  20  21
ENDBRANCH  10  20
ENDBRANCH   6   9
ENDBRANCH   2   3
TORSDOF 8
ENDMDL
MODEL       45
REMARK 921   NORMALIZED FREE ENERGY PREDICTED BY IDOCK:   -6.04 KCAL/MOL
REMARK 922        TOTAL FREE ENERGY PREDICTED BY IDOCK:  -10.62 KCAL/MOL
REMARK 923 INTER-LIGAND FREE ENERGY PREDICTED BY IDOCK:   -9.34 KCAL/MOL
REMARK 924 INTRA-LIGAND FREE ENERGY PREDICTED BY IDOCK:   -1.27 KCAL/MOL
REMARK 927      BINDING AFFINITY PREDICTED BY RF-SCORE:    0.00 PKD
ROOT
HETATM    1  C   UNL     1     -12.553   8.951  72.283  1.00  0.00    -0.385 C  
HETATM    2  O   UNL     1     -13.483  10.024  72.189  1.00  0.00    -0.428 OA 
ENDROOT
BRANCH   2   3
HETATM    3  C   UNL     1     -13.035  11.176  71.609  1.00  0.00    -0.443 A  
HETATM    4  C   UNL     1     -13.297  12.474  72.042  1.00  0.00    -0.528 A  
HETATM    5  C   UNL     1     -12.800  13.578  71.330  1.00  0.00    -0.440 A  
HETATM    6  C   UNL     1     -12.022  13.413  70.176  1.00  0.00    -0.396 A  
HETATM    7  C   UNL     1     -12.249  10.996  70.475  1.00  0.00    -0.472 A  
HETATM    8  C   UNL     1     -11.741  12.097  69.768  1.00  0.00    -0.381 A  
BRANCH   6   9
HETATM    9  C   UNL     1     -11.566  14.590  69.392  1.00  0.00    -0.303 A  
HETATM   10  C   UNL     1     -11.367  14.757  68.025  1.00  0.00    -0.316 A  
HETATM   11  C   UNL     1     -10.793  16.049  67.678  1.00  0.00    -0.311 A  
HETATM   12  C   UNL     1      -9.882  17.928  66.379  1.00  0.00    -0.339 A  
HETATM   13  C   UNL     1     -10.682  16.857  68.812  1.00  0.00    -0.333 A  
HETATM   14  H   UNL     1      -9.163  20.350  66.551  1.00  0.00     0.000 HD 
HETATM   15  C   UNL     1     -10.374  16.620  66.444  1.00  0.00    -0.310 A  
HETATM   16  S   UNL     1     -11.129  16.020  70.234  1.00  0.00    -0.368 SA 
HETATM   17  C   UNL     1     -10.247  18.198  68.748  1.00  0.00    -0.353 A  
HETATM   18  C   UNL     1      -9.853  18.709  67.517  1.00  0.00    -0.320 A  
HETATM   19  O   UNL     1      -9.432  20.000  67.393  1.00  0.00    -0.340 OA 
BRANCH  10  20
HETATM   20  O   UNL     1     -11.793  13.789  67.163  1.00  0.00    -0.363 OA 
BRANCH  20  21
HETATM   21  C   UNL     1     -10.970  12.865  66.566  1.00  0.00    -0.275 A  
HETATM   22  C   UNL     1      -9.434  10.850  65.344  1.00  0.00    -0.214 A  
HETATM   23  C   UNL     1     -10.789  10.987  65.032  1.00  0.00    -0.194 A  
HETATM   24  C   UNL     1      -9.626  12.718  66.889  1.00  0.00    -0.235 A  
HETATM   25  C   UNL     1     -11.553  11.994  65.640  1.00  0.00    -0.356 A  
HETATM   26  C   UNL     1      -8.858  11.748  66.254  1.00  0.00    -0.142 A  
BRANCH  22  27
HETATM   27  O   UNL     1      -8.754   9.809  64.746  1.00  0.00    -0.164 OA 
BRANCH  27  28
HETATM   28  C   UNL     1      -7.725   9.264  65.585  1.00  0.00    -0.095 C  
BRANCH  28  29
HETATM   29  C   UNL     1      -8.193   8.096  66.458  1.00  0.00    -0.107 C  
BRANCH  29  30
HETATM   30  N   UNL     1      -8.502   6.905  65.632  1.00  0.00    -0.146 NA 
HETATM   31  C   UNL     1      -7.438   5.889  65.574  1.00  0.00    -0.082 C  
HETATM   32  C   UNL     1      -7.273   5.069  66.856  1.00  0.00    -0.077 C  
HETATM   33  C   UNL     1      -8.601   4.495  67.341  1.00  0.00    -0.104 C  
HETATM   34  C   UNL     1      -9.701   5.550  67.354  1.00  0.00    -0.147 C  
HETATM   35  C   UNL     1      -9.775   6.284  66.015  1.00  0.00     0.121 C  
ENDBRANCH  29  30
ENDBRANCH  28  29
ENDBRANCH  27  28
ENDBRANCH  22  27
ENDBRANCH  20  21
ENDBRANCH  10  20
ENDBRANCH   6   9
ENDBRANCH   2   3
TORSDOF 8
ENDMDL
MODEL       46
REMARK 921   NORMALIZED FREE ENERGY PREDICTED BY IDOCK:   -5.97 KCAL/MOL
REMARK 922        TOTAL FREE ENERGY PREDICTED BY IDOCK:  -10.52 KCAL/MOL
REMARK 923 INTER-LIGAND FREE ENERGY PREDICTED BY IDOCK:   -9.19 KCAL/MOL
REMARK 924 INTRA-LIGAND FREE ENERGY PREDICTED BY IDOCK:   -1.32 KCAL/MOL
REMARK 927      BINDING AFFINITY PREDICTED BY RF-SCORE:    0.00 PKD
ROOT
HETATM    1  C   UNL     1      -9.175  10.962  62.736  1.00  0.00    -0.339 C  
HETATM    2  O   UNL     1     -10.505  11.075  63.227  1.00  0.00    -0.337 OA 
ENDROOT
BRANCH   2   3
HETATM    3  C   UNL     1     -10.654  11.570  64.490  1.00  0.00    -0.329 A  
HETATM    4  C   UNL     1      -9.764  11.407  65.550  1.00  0.00    -0.263 A  
HETATM    5  C   UNL     1     -10.056  11.942  66.815  1.00  0.00    -0.225 A  
HETATM    6  C   UNL     1     -11.236  12.662  67.050  1.00  0.00    -0.348 A  
HETATM    7  C   UNL     1     -11.821  12.296  64.704  1.00  0.00    -0.435 A  
HETATM    8  C   UNL     1     -12.110  12.843  65.964  1.00  0.00    -0.484 A  
BRANCH   6   9
HETATM    9  C   UNL     1     -11.566  13.157  68.411  1.00  0.00    -0.337 A  
HETATM   10  C   UNL     1     -12.188  12.531  69.487  1.00  0.00    -0.080 A  
HETATM   11  C   UNL     1     -12.428  13.421  70.614  1.00  0.00    -0.385 A  
HETATM   12  C   UNL     1     -13.134  14.272  72.811  1.00  0.00    -0.589 A  
HETATM   13  C   UNL     1     -11.868  14.678  70.374  1.00  0.00    -0.303 A  
HETATM   14  H   UNL     1     -12.971  16.269  74.358  1.00  0.00     0.000 HD 
HETATM   15  C   UNL     1     -13.073  13.239  71.869  1.00  0.00    -0.483 A  
HETATM   16  S   UNL     1     -11.211  14.792  68.800  1.00  0.00    -0.287 SA 
HETATM   17  C   UNL     1     -11.869  15.706  71.342  1.00  0.00    -0.482 A  
HETATM   18  C   UNL     1     -12.508  15.475  72.553  1.00  0.00    -0.409 A  
HETATM   19  O   UNL     1     -12.534  16.427  73.529  1.00  0.00    -0.484 OA 
BRANCH  10  20
HETATM   20  O   UNL     1     -12.420  11.188  69.437  1.00  0.00    -0.323 OA 
BRANCH  20  21
HETATM   21  C   UNL     1     -11.534  10.231  69.868  1.00  0.00    -0.273 A  
HETATM   22  C   UNL     1      -9.766   8.166  70.595  1.00  0.00    -0.170 A  
HETATM   23  C   UNL     1      -9.951   8.492  69.248  1.00  0.00    -0.195 A  
HETATM   24  C   UNL     1     -11.362   9.896  71.206  1.00  0.00    -0.404 A  
HETATM   25  C   UNL     1     -10.831   9.523  68.888  1.00  0.00    -0.177 A  
HETATM   26  C   UNL     1     -10.458   8.904  71.567  1.00  0.00    -0.393 A  
BRANCH  22  27
HETATM   27  O   UNL     1      -8.924   7.111  70.876  1.00  0.00    -0.150 OA 
BRANCH  27  28
HETATM   28  C   UNL     1      -9.552   6.097  71.675  1.00  0.00    -0.151 C  
BRANCH  28  29
HETATM   29  C   UNL     1      -8.744   4.801  71.776  1.00  0.00    -0.123 C  
BRANCH  29  30
HETATM   30  N   UNL     1      -7.417   5.047  72.388  1.00  0.00    -0.091 NA 
HETATM   31  C   UNL     1      -7.147   4.290  73.622  1.00  0.00    -0.066 C  
HETATM   32  C   UNL     1      -6.870   2.801  73.406  1.00  0.00    -0.027 C  
HETATM   33  C   UNL     1      -5.809   2.566  72.335  1.00  0.00    -0.008 C  
HETATM   34  C   UNL     1      -6.082   3.390  71.081  1.00  0.00    -0.015 C  
HETATM   35  C   UNL     1      -6.323   4.858  71.429  1.00  0.00    -0.026 C  
ENDBRANCH  29  30
ENDBRANCH  28  29
ENDBRANCH  27  28
ENDBRANCH  22  27
ENDBRANCH  20  21
ENDBRANCH  10  20
ENDBRANCH   6   9
ENDBRANCH   2   3
TORSDOF 8
ENDMDL
MODEL       47
REMARK 921   NORMALIZED FREE ENERGY PREDICTED BY IDOCK:   -5.96 KCAL/MOL
REMARK 922        TOTAL FREE ENERGY PREDICTED BY IDOCK:  -10.51 KCAL/MOL
REMARK 923 INTER-LIGAND FREE ENERGY PREDICTED BY IDOCK:   -8.43 KCAL/MOL
REMARK 924 INTRA-LIGAND FREE ENERGY PREDICTED BY IDOCK:   -2.08 KCAL/MOL
REMARK 927      BINDING AFFINITY PREDICTED BY RF-SCORE:    0.00 PKD
ROOT
HETATM    1  C   UNL     1      -8.523   9.272  62.764  1.00  0.00    -0.211 C  
HETATM    2  O   UNL     1      -7.646   8.623  63.679  1.00  0.00    -0.115 OA 
ENDROOT
BRANCH   2   3
HETATM    3  C   UNL     1      -8.157   8.315  64.907  1.00  0.00    -0.150 A  
HETATM    4  C   UNL     1      -9.378   8.744  65.423  1.00  0.00    -0.095 A  
HETATM    5  C   UNL     1      -9.771   8.380  66.721  1.00  0.00    -0.309 A  
HETATM    6  C   UNL     1      -8.962   7.570  67.530  1.00  0.00    -0.127 A  
HETATM    7  C   UNL     1      -7.351   7.496  65.691  1.00  0.00    -0.067 A  
HETATM    8  C   UNL     1      -7.746   7.121  66.984  1.00  0.00    -0.107 A  
BRANCH   6   9
HETATM    9  C   UNL     1      -9.357   7.254  68.926  1.00  0.00    -0.144 A  
HETATM   10  C   UNL     1      -9.221   7.985  70.103  1.00  0.00    -0.152 A  
HETATM   11  C   UNL     1      -9.637   7.253  71.290  1.00  0.00    -0.164 A  
HETATM   12  C   UNL     1     -10.129   6.683  73.631  1.00  0.00    -0.300 A  
HETATM   13  C   UNL     1     -10.181   6.015  70.937  1.00  0.00    -0.206 A  
HETATM   14  H   UNL     1     -11.234   4.945  75.105  1.00  0.00     0.000 HD 
HETATM   15  C   UNL     1      -9.621   7.570  72.677  1.00  0.00    -0.220 A  
HETATM   16  S   UNL     1     -10.054   5.721  69.258  1.00  0.00    -0.228 SA 
HETATM   17  C   UNL     1     -10.753   5.140  71.886  1.00  0.00    -0.219 A  
HETATM   18  C   UNL     1     -10.715   5.500  73.227  1.00  0.00    -0.274 A  
HETATM   19  O   UNL     1     -11.260   4.699  74.187  1.00  0.00    -0.257 OA 
BRANCH  10  20
HETATM   20  O   UNL     1      -8.823   9.289  70.039  1.00  0.00    -0.161 OA 
BRANCH  20  21
HETATM   21  C   UNL     1      -9.626  10.326  69.634  1.00  0.00    -0.162 A  
HETATM   22  C   UNL     1     -11.424  12.335  68.826  1.00  0.00    -0.311 A  
HETATM   23  C   UNL     1     -11.794  11.414  69.810  1.00  0.00    -0.435 A  
HETATM   24  C   UNL     1      -9.264  11.231  68.644  1.00  0.00    -0.163 A  
HETATM   25  C   UNL     1     -10.897  10.416  70.214  1.00  0.00    -0.308 A  
HETATM   26  C   UNL     1     -10.137  12.249  68.274  1.00  0.00    -0.218 A  
BRANCH  22  27
HETATM   27  O   UNL     1     -12.371  13.261  68.442  1.00  0.00    -0.158 OA 
BRANCH  27  28
HETATM   28  C   UNL     1     -11.909  14.125  67.394  1.00  0.00    -0.413 C  
BRANCH  28  29
HETATM   29  C   UNL     1     -12.657  13.946  66.070  1.00  0.00    -0.423 C  
BRANCH  29  30
HETATM   30  N   UNL     1     -11.802  14.324  64.920  1.00  0.00    -0.389 NA 
HETATM   31  C   UNL     1     -10.411  13.846  64.990  1.00  0.00    -0.410 C  
HETATM   32  C   UNL     1     -10.242  12.346  64.737  1.00  0.00    -0.303 C  
HETATM   33  C   UNL     1     -10.949  11.899  63.461  1.00  0.00    -0.505 C  
HETATM   34  C   UNL     1     -12.373  12.439  63.386  1.00  0.00    -0.603 C  
HETATM   35  C   UNL     1     -12.404  13.946  63.637  1.00  0.00    -0.122 C  
ENDBRANCH  29  30
ENDBRANCH  28  29
ENDBRANCH  27  28
ENDBRANCH  22  27
ENDBRANCH  20  21
ENDBRANCH  10  20
ENDBRANCH   6   9
ENDBRANCH   2   3
TORSDOF 8
ENDMDL
MODEL       48
REMARK 921   NORMALIZED FREE ENERGY PREDICTED BY IDOCK:   -5.96 KCAL/MOL
REMARK 922        TOTAL FREE ENERGY PREDICTED BY IDOCK:  -10.50 KCAL/MOL
REMARK 923 INTER-LIGAND FREE ENERGY PREDICTED BY IDOCK:   -9.25 KCAL/MOL
REMARK 924 INTRA-LIGAND FREE ENERGY PREDICTED BY IDOCK:   -1.25 KCAL/MOL
REMARK 927      BINDING AFFINITY PREDICTED BY RF-SCORE:    0.00 PKD
ROOT
HETATM    1  C   UNL     1     -12.371  16.413  74.334  1.00  0.00    -0.423 C  
HETATM    2  O   UNL     1     -13.450  15.921  73.549  1.00  0.00    -0.497 OA 
ENDROOT
BRANCH   2   3
HETATM    3  C   UNL     1     -13.142  14.998  72.591  1.00  0.00    -0.416 A  
HETATM    4  C   UNL     1     -13.544  13.664  72.570  1.00  0.00    -0.675 A  
HETATM    5  C   UNL     1     -13.126  12.808  71.538  1.00  0.00    -0.380 A  
HETATM    6  C   UNL     1     -12.308  13.266  70.496  1.00  0.00    -0.389 A  
HETATM    7  C   UNL     1     -12.345  15.471  71.553  1.00  0.00    -0.465 A  
HETATM    8  C   UNL     1     -11.935  14.621  70.514  1.00  0.00    -0.376 A  
BRANCH   6   9
HETATM    9  C   UNL     1     -11.813  12.332  69.452  1.00  0.00    -0.310 A  
HETATM   10  C   UNL     1     -11.820  10.942  69.390  1.00  0.00    -0.328 A  
HETATM   11  C   UNL     1     -11.120  10.411  68.231  1.00  0.00    -0.338 A  
HETATM   12  C   UNL     1     -10.158   8.844  66.596  1.00  0.00    -0.357 A  
HETATM   13  C   UNL     1     -10.699  11.448  67.394  1.00  0.00    -0.232 A  
HETATM   14  H   UNL     1      -9.057   8.714  64.320  1.00  0.00     0.000 HD 
HETATM   15  C   UNL     1     -10.829   9.086  67.800  1.00  0.00    -0.125 A  
HETATM   16  S   UNL     1     -11.027  12.983  68.071  1.00  0.00    -0.263 SA 
HETATM   17  C   UNL     1     -10.079  11.213  66.148  1.00  0.00    -0.284 A  
HETATM   18  C   UNL     1      -9.821   9.900  65.773  1.00  0.00    -0.287 A  
HETATM   19  O   UNL     1      -9.233   9.612  64.576  1.00  0.00    -0.248 OA 
BRANCH  10  20
HETATM   20  O   UNL     1     -12.527  10.234  70.319  1.00  0.00    -0.252 OA 
BRANCH  20  21
HETATM   21  C   UNL     1     -12.038   9.149  71.003  1.00  0.00    -0.263 A  
HETATM   22  C   UNL     1     -11.220   6.873  72.443  1.00  0.00    -0.266 A  
HETATM   23  C   UNL     1     -12.378   6.832  71.661  1.00  0.00    -0.409 A  
HETATM   24  C   UNL     1     -10.896   9.195  71.793  1.00  0.00    -0.416 A  
HETATM   25  C   UNL     1     -12.783   7.966  70.942  1.00  0.00     0.032 A  
HETATM   26  C   UNL     1     -10.470   8.058  72.471  1.00  0.00    -0.383 A  
BRANCH  22  27
HETATM   27  O   UNL     1     -10.906   5.739  73.161  1.00  0.00    -0.246 OA 
BRANCH  27  28
HETATM   28  C   UNL     1     -10.262   4.736  72.361  1.00  0.00    -0.194 C  
BRANCH  28  29
HETATM   29  C   UNL     1      -8.739   4.878  72.301  1.00  0.00    -0.124 C  
BRANCH  29  30
HETATM   30  N   UNL     1      -8.223   4.523  70.958  1.00  0.00    -0.087 NA 
HETATM   31  C   UNL     1      -8.231   5.619  69.974  1.00  0.00    -0.110 C  
HETATM   32  C   UNL     1      -7.156   6.684  70.203  1.00  0.00    -0.075 C  
HETATM   33  C   UNL     1      -5.771   6.070  70.380  1.00  0.00    -0.014 C  
HETATM   34  C   UNL     1      -5.791   4.909  71.369  1.00  0.00    -0.016 C  
HETATM   35  C   UNL     1      -6.893   3.909  71.022  1.00  0.00    -0.032 C  
ENDBRANCH  29  30
ENDBRANCH  28  29
ENDBRANCH  27  28
ENDBRANCH  22  27
ENDBRANCH  20  21
ENDBRANCH  10  20
ENDBRANCH   6   9
ENDBRANCH   2   3
TORSDOF 8
ENDMDL
MODEL       49
REMARK 921   NORMALIZED FREE ENERGY PREDICTED BY IDOCK:   -5.94 KCAL/MOL
REMARK 922        TOTAL FREE ENERGY PREDICTED BY IDOCK:  -10.48 KCAL/MOL
REMARK 923 INTER-LIGAND FREE ENERGY PREDICTED BY IDOCK:   -8.80 KCAL/MOL
REMARK 924 INTRA-LIGAND FREE ENERGY PREDICTED BY IDOCK:   -1.67 KCAL/MOL
REMARK 927      BINDING AFFINITY PREDICTED BY RF-SCORE:    0.00 PKD
ROOT
HETATM    1  C   UNL     1     -10.596   7.400  73.215  1.00  0.00    -0.392 C  
HETATM    2  O   UNL     1     -11.705   8.206  72.832  1.00  0.00    -0.373 OA 
ENDROOT
BRANCH   2   3
HETATM    3  C   UNL     1     -11.525   9.024  71.754  1.00  0.00    -0.372 A  
HETATM    4  C   UNL     1     -10.361   9.152  71.000  1.00  0.00    -0.363 A  
HETATM    5  C   UNL     1     -10.299  10.060  69.931  1.00  0.00    -0.315 A  
HETATM    6  C   UNL     1     -11.400  10.854  69.582  1.00  0.00    -0.362 A  
HETATM    7  C   UNL     1     -12.633   9.791  71.407  1.00  0.00    -0.482 A  
HETATM    8  C   UNL     1     -12.578  10.692  70.332  1.00  0.00    -0.395 A  
BRANCH   6   9
HETATM    9  C   UNL     1     -11.296  11.863  68.497  1.00  0.00    -0.276 A  
HETATM   10  C   UNL     1     -11.121  11.716  67.124  1.00  0.00    -0.299 A  
HETATM   11  C   UNL     1     -10.948  12.980  66.424  1.00  0.00    -0.301 A  
HETATM   12  C   UNL     1     -10.605  14.634  64.636  1.00  0.00    -0.268 A  
HETATM   13  C   UNL     1     -11.113  14.054  67.303  1.00  0.00    -0.302 A  
HETATM   14  H   UNL     1     -10.645  17.116  64.137  1.00  0.00     0.000 HD 
HETATM   15  C   UNL     1     -10.687  13.305  65.064  1.00  0.00    -0.346 A  
HETATM   16  S   UNL     1     -11.327  13.528  68.915  1.00  0.00    -0.307 SA 
HETATM   17  C   UNL     1     -11.095  15.397  66.871  1.00  0.00    -0.256 A  
HETATM   18  C   UNL     1     -10.840  15.659  65.531  1.00  0.00    -0.346 A  
HETATM   19  O   UNL     1     -10.820  16.937  65.054  1.00  0.00    -0.666 OA 
BRANCH  10  20
HETATM   20  O   UNL     1     -11.215  10.474  66.566  1.00  0.00    -0.033 OA 
BRANCH  20  21
HETATM   21  C   UNL     1     -10.144   9.655  66.309  1.00  0.00    -0.252 A  
HETATM   22  C   UNL     1      -7.985   7.887  65.948  1.00  0.00    -0.106 A  
HETATM   23  C   UNL     1      -9.162   7.444  66.558  1.00  0.00    -0.206 A  
HETATM   24  C   UNL     1      -8.967  10.100  65.717  1.00  0.00    -0.187 A  
HETATM   25  C   UNL     1     -10.238   8.326  66.734  1.00  0.00    -0.375 A  
HETATM   26  C   UNL     1      -7.916   9.215  65.502  1.00  0.00    -0.104 A  
BRANCH  22  27
HETATM   27  O   UNL     1      -6.949   6.981  65.849  1.00  0.00    -0.061 OA 
BRANCH  27  28
HETATM   28  C   UNL     1      -7.331   5.657  66.247  1.00  0.00    -0.078 C  
BRANCH  28  29
HETATM   29  C   UNL     1      -7.344   4.645  65.098  1.00  0.00    -0.072 C  
BRANCH  29  30
HETATM   30  N   UNL     1      -8.180   3.468  65.432  1.00  0.00    -0.097 NA 
HETATM   31  C   UNL     1      -9.434   3.772  66.142  1.00  0.00    -0.175 C  
HETATM   32  C   UNL     1     -10.519   4.406  65.269  1.00  0.00    -0.204 C  
HETATM   33  C   UNL     1     -10.753   3.617  63.984  1.00  0.00    -0.250 C  
HETATM   34  C   UNL     1      -9.441   3.274  63.286  1.00  0.00    -0.097 C  
HETATM   35  C   UNL     1      -8.452   2.633  64.258  1.00  0.00    -0.086 C  
ENDBRANCH  29  30
ENDBRANCH  28  29
ENDBRANCH  27  28
ENDBRANCH  22  27
ENDBRANCH  20  21
ENDBRANCH  10  20
ENDBRANCH   6   9
ENDBRANCH   2   3
TORSDOF 8
ENDMDL
MODEL       50
REMARK 921   NORMALIZED FREE ENERGY PREDICTED BY IDOCK:   -5.91 KCAL/MOL
REMARK 922        TOTAL FREE ENERGY PREDICTED BY IDOCK:  -10.43 KCAL/MOL
REMARK 923 INTER-LIGAND FREE ENERGY PREDICTED BY IDOCK:   -8.72 KCAL/MOL
REMARK 924 INTRA-LIGAND FREE ENERGY PREDICTED BY IDOCK:   -1.71 KCAL/MOL
REMARK 927      BINDING AFFINITY PREDICTED BY RF-SCORE:    0.00 PKD
ROOT
HETATM    1  C   UNL     1     -12.285  13.210  63.524  1.00  0.00    -0.476 C  
HETATM    2  O   UNL     1     -11.380  12.118  63.403  1.00  0.00    -0.424 OA 
ENDROOT
BRANCH   2   3
HETATM    3  C   UNL     1     -10.893  11.593  64.565  1.00  0.00    -0.324 A  
HETATM    4  C   UNL     1     -10.107  10.449  64.687  1.00  0.00    -0.378 A  
HETATM    5  C   UNL     1      -9.698   9.995  65.952  1.00  0.00    -0.309 A  
HETATM    6  C   UNL     1     -10.055  10.677  67.123  1.00  0.00    -0.248 A  
HETATM    7  C   UNL     1     -11.239  12.290  65.717  1.00  0.00    -0.378 A  
HETATM    8  C   UNL     1     -10.823  11.846  66.982  1.00  0.00    -0.303 A  
BRANCH   6   9
HETATM    9  C   UNL     1      -9.678  10.144  68.457  1.00  0.00    -0.154 A  
HETATM   10  C   UNL     1      -8.434   9.963  69.053  1.00  0.00    -0.136 A  
HETATM   11  C   UNL     1      -8.501   9.292  70.342  1.00  0.00    -0.234 A  
HETATM   12  C   UNL     1      -7.847   8.258  72.476  1.00  0.00    -0.176 A  
HETATM   13  C   UNL     1      -9.831   9.088  70.720  1.00  0.00    -0.243 A  
HETATM   14  H   UNL     1      -8.768   7.336  74.647  1.00  0.00     0.000 HD 
HETATM   15  C   UNL     1      -7.504   8.856  71.259  1.00  0.00    -0.127 A  
HETATM   16  S   UNL     1     -10.921   9.569  69.494  1.00  0.00    -0.149 SA 
HETATM   17  C   UNL     1     -10.188   8.544  71.972  1.00  0.00    -0.391 A  
HETATM   18  C   UNL     1      -9.176   8.138  72.832  1.00  0.00    -0.273 A  
HETATM   19  O   UNL     1      -9.461   7.614  74.059  1.00  0.00    -0.249 OA 
BRANCH  10  20
HETATM   20  O   UNL     1      -7.324  10.488  68.457  1.00  0.00    -0.081 OA 
BRANCH  20  21
HETATM   21  C   UNL     1      -6.961  11.811  68.520  1.00  0.00    -0.083 A  
HETATM   22  C   UNL     1      -6.256  14.516  68.838  1.00  0.00    -0.087 A  
HETATM   23  C   UNL     1      -5.970  13.592  69.847  1.00  0.00    -0.130 A  
HETATM   24  C   UNL     1      -7.260  12.733  67.524  1.00  0.00    -0.154 A  
HETATM   25  C   UNL     1      -6.320  12.243  69.686  1.00  0.00    -0.111 A  
HETATM   26  C   UNL     1      -6.875  14.061  67.664  1.00  0.00    -0.195 A  
BRANCH  22  27
HETATM   27  O   UNL     1      -5.928  15.833  69.082  1.00  0.00    -0.106 OA 
BRANCH  27  28
HETATM   28  C   UNL     1      -6.469  16.730  68.100  1.00  0.00    -0.143 C  
BRANCH  28  29
HETATM   29  C   UNL     1      -7.533  17.683  68.653  1.00  0.00    -0.273 C  
BRANCH  29  30
HETATM   30  N   UNL     1      -8.831  17.490  67.965  1.00  0.00    -0.251 NA 
HETATM   31  C   UNL     1      -9.985  18.135  68.612  1.00  0.00    -0.395 C  
HETATM   32  C   UNL     1     -10.030  19.657  68.459  1.00  0.00    -0.542 C  
HETATM   33  C   UNL     1      -9.858  20.091  67.007  1.00  0.00    -0.566 C  
HETATM   34  C   UNL     1      -8.685  19.380  66.340  1.00  0.00    -0.376 C  
HETATM   35  C   UNL     1      -8.767  17.869  66.549  1.00  0.00    -0.256 C  
ENDBRANCH  29  30
ENDBRANCH  28  29
ENDBRANCH  27  28
ENDBRANCH  22  27
ENDBRANCH  20  21
ENDBRANCH  10  20
ENDBRANCH   6   9
ENDBRANCH   2   3
TORSDOF 8
ENDMDL
MODEL       51
REMARK 921   NORMALIZED FREE ENERGY PREDICTED BY IDOCK:   -5.91 KCAL/MOL
REMARK 922        TOTAL FREE ENERGY PREDICTED BY IDOCK:  -10.43 KCAL/MOL
REMARK 923 INTER-LIGAND FREE ENERGY PREDICTED BY IDOCK:   -8.96 KCAL/MOL
REMARK 924 INTRA-LIGAND FREE ENERGY PREDICTED BY IDOCK:   -1.47 KCAL/MOL
REMARK 927      BINDING AFFINITY PREDICTED BY RF-SCORE:    0.00 PKD
ROOT
HETATM    1  C   UNL     1      -7.992  11.071  62.408  1.00  0.00    -0.105 C  
HETATM    2  O   UNL     1      -7.181  10.336  63.317  1.00  0.00    -0.139 OA 
ENDROOT
BRANCH   2   3
HETATM    3  C   UNL     1      -7.692  10.130  64.567  1.00  0.00    -0.138 A  
HETATM    4  C   UNL     1      -7.096  10.496  65.771  1.00  0.00    -0.124 A  
HETATM    5  C   UNL     1      -7.715  10.193  66.995  1.00  0.00    -0.096 A  
HETATM    6  C   UNL     1      -8.948   9.528  67.045  1.00  0.00    -0.150 A  
HETATM    7  C   UNL     1      -8.924   9.486  64.600  1.00  0.00    -0.266 A  
HETATM    8  C   UNL     1      -9.551   9.191  65.820  1.00  0.00    -0.323 A  
BRANCH   6   9
HETATM    9  C   UNL     1      -9.555   9.148  68.346  1.00  0.00    -0.151 A  
HETATM   10  C   UNL     1     -10.716   9.584  68.977  1.00  0.00    -0.202 A  
HETATM   11  C   UNL     1     -10.887   9.040  70.316  1.00  0.00    -0.269 A  
HETATM   12  C   UNL     1     -11.819   8.552  72.539  1.00  0.00    -0.398 A  
HETATM   13  C   UNL     1      -9.881   8.113  70.600  1.00  0.00    -0.181 A  
HETATM   14  H   UNL     1     -11.550   7.058  74.566  1.00  0.00     0.000 HD 
HETATM   15  C   UNL     1     -11.867   9.248  71.326  1.00  0.00    -0.415 A  
HETATM   16  S   UNL     1      -8.722   8.028  69.346  1.00  0.00    -0.137 SA 
HETATM   17  C   UNL     1      -9.860   7.360  71.794  1.00  0.00    -0.187 A  
HETATM   18  C   UNL     1     -10.842   7.598  72.746  1.00  0.00    -0.360 A  
HETATM   19  O   UNL     1     -10.878   6.894  73.914  1.00  0.00    -0.238 OA 
BRANCH  10  20
HETATM   20  O   UNL     1     -11.598  10.367  68.290  1.00  0.00    -0.321 OA 
BRANCH  20  21
HETATM   21  C   UNL     1     -11.745  11.719  68.477  1.00  0.00    -0.330 A  
HETATM   22  C   UNL     1     -11.932  14.517  68.708  1.00  0.00    -0.280 A  
HETATM   23  C   UNL     1     -11.858  13.919  67.447  1.00  0.00    -0.437 A  
HETATM   24  C   UNL     1     -11.801  12.315  69.731  1.00  0.00    -0.388 A  
HETATM   25  C   UNL     1     -11.768  12.524  67.333  1.00  0.00    -0.432 A  
HETATM   26  C   UNL     1     -11.935  13.694  69.844  1.00  0.00    -0.415 A  
BRANCH  22  27
HETATM   27  O   UNL     1     -11.970  15.895  68.748  1.00  0.00    -0.368 OA 
BRANCH  27  28
HETATM   28  C   UNL     1     -10.733  16.472  69.192  1.00  0.00    -0.335 C  
BRANCH  28  29
HETATM   29  C   UNL     1     -10.140  17.491  68.215  1.00  0.00    -0.346 C  
BRANCH  29  30
HETATM   30  N   UNL     1      -8.689  17.261  68.020  1.00  0.00    -0.225 NA 
HETATM   31  C   UNL     1      -8.085  16.269  68.925  1.00  0.00    -0.231 C  
HETATM   32  C   UNL     1      -8.448  14.816  68.608  1.00  0.00    -0.167 C  
HETATM   33  C   UNL     1      -8.221  14.478  67.138  1.00  0.00    -0.214 C  
HETATM   34  C   UNL     1      -8.815  15.538  66.217  1.00  0.00    -0.338 C  
HETATM   35  C   UNL     1      -8.363  16.939  66.627  1.00  0.00    -0.253 C  
ENDBRANCH  29  30
ENDBRANCH  28  29
ENDBRANCH  27  28
ENDBRANCH  22  27
ENDBRANCH  20  21
ENDBRANCH  10  20
ENDBRANCH   6   9
ENDBRANCH   2   3
TORSDOF 8
ENDMDL
MODEL       52
REMARK 921   NORMALIZED FREE ENERGY PREDICTED BY IDOCK:   -5.89 KCAL/MOL
REMARK 922        TOTAL FREE ENERGY PREDICTED BY IDOCK:  -10.40 KCAL/MOL
REMARK 923 INTER-LIGAND FREE ENERGY PREDICTED BY IDOCK:   -9.51 KCAL/MOL
REMARK 924 INTRA-LIGAND FREE ENERGY PREDICTED BY IDOCK:   -0.89 KCAL/MOL
REMARK 927      BINDING AFFINITY PREDICTED BY RF-SCORE:    0.00 PKD
ROOT
HETATM    1  C   UNL     1     -13.359  14.082  72.109  1.00  0.00    -0.453 C  
HETATM    2  O   UNL     1     -13.660  12.700  72.263  1.00  0.00    -0.547 OA 
ENDROOT
BRANCH   2   3
HETATM    3  C   UNL     1     -12.881  11.820  71.568  1.00  0.00    -0.345 A  
HETATM    4  C   UNL     1     -12.064  12.122  70.482  1.00  0.00    -0.383 A  
HETATM    5  C   UNL     1     -11.337  11.111  69.832  1.00  0.00    -0.348 A  
HETATM    6  C   UNL     1     -11.399   9.777  70.259  1.00  0.00    -0.333 A  
HETATM    7  C   UNL     1     -12.940  10.504  72.014  1.00  0.00    -0.490 A  
HETATM    8  C   UNL     1     -12.206   9.493  71.375  1.00  0.00    -0.455 A  
BRANCH   6   9
HETATM    9  C   UNL     1     -10.684   8.708  69.517  1.00  0.00    -0.182 A  
HETATM   10  C   UNL     1      -9.628   8.771  68.613  1.00  0.00    -0.154 A  
HETATM   11  C   UNL     1      -9.300   7.484  68.017  1.00  0.00    -0.142 A  
HETATM   12  C   UNL     1      -8.214   5.749  66.652  1.00  0.00    -0.106 A  
HETATM   13  C   UNL     1     -10.067   6.468  68.590  1.00  0.00    -0.161 A  
HETATM   14  H   UNL     1      -8.084   3.248  66.284  1.00  0.00     0.000 HD 
HETATM   15  C   UNL     1      -8.359   7.090  67.025  1.00  0.00    -0.121 A  
HETATM   16  S   UNL     1     -11.218   7.086  69.694  1.00  0.00    -0.137 SA 
HETATM   17  C   UNL     1      -9.885   5.106  68.268  1.00  0.00    -0.212 A  
HETATM   18  C   UNL     1      -8.950   4.774  67.295  1.00  0.00    -0.112 A  
HETATM   19  O   UNL     1      -8.724   3.474  66.949  1.00  0.00    -0.107 OA 
BRANCH  10  20
HETATM   20  O   UNL     1      -8.963   9.949  68.441  1.00  0.00    -0.119 OA 
BRANCH  20  21
HETATM   21  C   UNL     1      -9.297  10.901  67.510  1.00  0.00    -0.154 A  
HETATM   22  C   UNL     1      -9.991  12.979  65.744  1.00  0.00    -0.254 A  
HETATM   23  C   UNL     1      -9.182  13.240  66.853  1.00  0.00    -0.242 A  
HETATM   24  C   UNL     1     -10.115  10.645  66.416  1.00  0.00    -0.279 A  
HETATM   25  C   UNL     1      -8.834  12.203  67.731  1.00  0.00    -0.172 A  
HETATM   26  C   UNL     1     -10.424  11.663  65.521  1.00  0.00    -0.321 A  
BRANCH  22  27
HETATM   27  O   UNL     1     -10.334  14.053  64.949  1.00  0.00    -0.404 OA 
BRANCH  27  28
HETATM   28  C   UNL     1     -11.046  15.070  65.669  1.00  0.00    -0.349 C  
BRANCH  28  29
HETATM   29  C   UNL     1     -10.384  16.449  65.608  1.00  0.00    -0.350 C  
BRANCH  29  30
HETATM   30  N   UNL     1      -9.890  16.862  66.943  1.00  0.00    -0.265 NA 
HETATM   31  C   UNL     1      -8.440  17.105  67.026  1.00  0.00    -0.211 C  
HETATM   32  C   UNL     1      -7.974  18.400  66.355  1.00  0.00    -0.288 C  
HETATM   33  C   UNL     1      -8.794  19.605  66.805  1.00  0.00    -0.396 C  
HETATM   34  C   UNL     1     -10.291  19.319  66.754  1.00  0.00    -0.527 C  
HETATM   35  C   UNL     1     -10.628  18.013  67.472  1.00  0.00    -0.388 C  
ENDBRANCH  29  30
ENDBRANCH  28  29
ENDBRANCH  27  28
ENDBRANCH  22  27
ENDBRANCH  20  21
ENDBRANCH  10  20
ENDBRANCH   6   9
ENDBRANCH   2   3
TORSDOF 8
ENDMDL
MODEL       53
REMARK 921   NORMALIZED FREE ENERGY PREDICTED BY IDOCK:   -5.88 KCAL/MOL
REMARK 922        TOTAL FREE ENERGY PREDICTED BY IDOCK:  -10.39 KCAL/MOL
REMARK 923 INTER-LIGAND FREE ENERGY PREDICTED BY IDOCK:   -9.01 KCAL/MOL
REMARK 924 INTRA-LIGAND FREE ENERGY PREDICTED BY IDOCK:   -1.38 KCAL/MOL
REMARK 927      BINDING AFFINITY PREDICTED BY RF-SCORE:    0.00 PKD
ROOT
HETATM    1  C   UNL     1      -6.404   5.028  64.130  1.00  0.00    -0.023 C  
HETATM    2  O   UNL     1      -6.533   4.446  65.422  1.00  0.00    -0.037 OA 
ENDROOT
BRANCH   2   3
HETATM    3  C   UNL     1      -7.287   5.131  66.332  1.00  0.00    -0.086 A  
HETATM    4  C   UNL     1      -7.079   5.176  67.708  1.00  0.00    -0.066 A  
HETATM    5  C   UNL     1      -7.954   5.894  68.539  1.00  0.00    -0.102 A  
HETATM    6  C   UNL     1      -9.050   6.593  68.015  1.00  0.00    -0.114 A  
HETATM    7  C   UNL     1      -8.361   5.835  65.795  1.00  0.00    -0.134 A  
HETATM    8  C   UNL     1      -9.230   6.563  66.622  1.00  0.00    -0.172 A  
BRANCH   6   9
HETATM    9  C   UNL     1     -10.009   7.287  68.914  1.00  0.00    -0.166 A  
HETATM   10  C   UNL     1     -10.125   8.627  69.269  1.00  0.00    -0.202 A  
HETATM   11  C   UNL     1     -11.140   8.871  70.283  1.00  0.00    -0.251 A  
HETATM   12  C   UNL     1     -12.608  10.012  71.894  1.00  0.00    -0.454 A  
HETATM   13  C   UNL     1     -11.835   7.695  70.575  1.00  0.00    -0.080 A  
HETATM   14  H   UNL     1     -14.620   9.675  73.393  1.00  0.00     0.000 HD 
HETATM   15  C   UNL     1     -11.555  10.044  70.973  1.00  0.00    -0.476 A  
HETATM   16  S   UNL     1     -11.178   6.348  69.751  1.00  0.00    -0.426 SA 
HETATM   17  C   UNL     1     -12.939   7.664  71.453  1.00  0.00    -0.350 A  
HETATM   18  C   UNL     1     -13.305   8.838  72.099  1.00  0.00    -0.423 A  
HETATM   19  O   UNL     1     -14.370   8.871  72.951  1.00  0.00    -0.548 OA 
BRANCH  10  20
HETATM   20  O   UNL     1      -9.385   9.562  68.606  1.00  0.00    -0.140 OA 
BRANCH  20  21
HETATM   21  C   UNL     1      -9.883  10.749  68.128  1.00  0.00    -0.158 A  
HETATM   22  C   UNL     1     -10.940  13.092  66.982  1.00  0.00    -0.265 A  
HETATM   23  C   UNL     1     -11.487  11.845  66.665  1.00  0.00    -0.382 A  
HETATM   24  C   UNL     1      -9.328  11.987  68.430  1.00  0.00    -0.175 A  
HETATM   25  C   UNL     1     -10.961  10.679  67.240  1.00  0.00    -0.348 A  
HETATM   26  C   UNL     1      -9.876  13.147  67.896  1.00  0.00    -0.231 A  
BRANCH  22  27
HETATM   27  O   UNL     1     -11.473  14.193  66.346  1.00  0.00    -0.331 OA 
BRANCH  27  28
HETATM   28  C   UNL     1     -10.494  14.930  65.599  1.00  0.00    -0.349 C  
BRANCH  28  29
HETATM   29  C   UNL     1     -10.744  16.441  65.575  1.00  0.00    -0.287 C  
BRANCH  29  30
HETATM   30  N   UNL     1      -9.557  17.184  66.059  1.00  0.00    -0.494 NA 
HETATM   31  C   UNL     1      -9.746  18.637  66.208  1.00  0.00    -0.307 C  
HETATM   32  C   UNL     1     -10.603  19.046  67.409  1.00  0.00    -0.559 C  
HETATM   33  C   UNL     1     -10.130  18.384  68.700  1.00  0.00    -0.407 C  
HETATM   34  C   UNL     1      -9.897  16.889  68.515  1.00  0.00    -0.267 C  
HETATM   35  C   UNL     1      -9.016  16.615  67.297  1.00  0.00    -0.200 C  
ENDBRANCH  29  30
ENDBRANCH  28  29
ENDBRANCH  27  28
ENDBRANCH  22  27
ENDBRANCH  20  21
ENDBRANCH  10  20
ENDBRANCH   6   9
ENDBRANCH   2   3
TORSDOF 8
ENDMDL
MODEL       54
REMARK 921   NORMALIZED FREE ENERGY PREDICTED BY IDOCK:   -5.87 KCAL/MOL
REMARK 922        TOTAL FREE ENERGY PREDICTED BY IDOCK:  -10.37 KCAL/MOL
REMARK 923 INTER-LIGAND FREE ENERGY PREDICTED BY IDOCK:   -8.83 KCAL/MOL
REMARK 924 INTRA-LIGAND FREE ENERGY PREDICTED BY IDOCK:   -1.54 KCAL/MOL
REMARK 927      BINDING AFFINITY PREDICTED BY RF-SCORE:    0.00 PKD
ROOT
HETATM    1  C   UNL     1     -13.617   8.759  72.081  1.00  0.00    -0.435 C  
HETATM    2  O   UNL     1     -13.664  10.149  72.379  1.00  0.00    -0.252 OA 
ENDROOT
BRANCH   2   3
HETATM    3  C   UNL     1     -13.052  10.988  71.493  1.00  0.00    -0.396 A  
HETATM    4  C   UNL     1     -12.447  10.622  70.293  1.00  0.00    -0.381 A  
HETATM    5  C   UNL     1     -11.820  11.585  69.486  1.00  0.00    -0.419 A  
HETATM    6  C   UNL     1     -11.793  12.938  69.851  1.00  0.00    -0.373 A  
HETATM    7  C   UNL     1     -13.049  12.330  71.860  1.00  0.00    -0.469 A  
HETATM    8  C   UNL     1     -12.434  13.298  71.050  1.00  0.00    -0.422 A  
BRANCH   6   9
HETATM    9  C   UNL     1     -11.063  13.934  69.025  1.00  0.00    -0.268 A  
HETATM   10  C   UNL     1      -9.810  13.879  68.422  1.00  0.00    -0.229 A  
HETATM   11  C   UNL     1      -9.415  15.132  67.794  1.00  0.00    -0.194 A  
HETATM   12  C   UNL     1      -8.120  16.825  66.568  1.00  0.00    -0.329 A  
HETATM   13  C   UNL     1     -10.455  16.062  67.860  1.00  0.00    -0.292 A  
HETATM   14  H   UNL     1      -8.263  19.135  65.543  1.00  0.00     0.000 HD 
HETATM   15  C   UNL     1      -8.229  15.548  67.129  1.00  0.00    -0.246 A  
HETATM   16  S   UNL     1     -11.781  15.471  68.763  1.00  0.00    -0.326 SA 
HETATM   17  C   UNL     1     -10.379  17.330  67.243  1.00  0.00    -0.331 A  
HETATM   18  C   UNL     1      -9.199  17.685  66.602  1.00  0.00    -0.271 A  
HETATM   19  O   UNL     1      -9.070  18.893  65.981  1.00  0.00    -0.470 OA 
BRANCH  10  20
HETATM   20  O   UNL     1      -9.135  12.694  68.387  1.00  0.00    -0.190 OA 
BRANCH  20  21
HETATM   21  C   UNL     1      -9.037  11.890  67.278  1.00  0.00    -0.178 A  
HETATM   22  C   UNL     1      -8.652  10.300  64.988  1.00  0.00    -0.180 A  
HETATM   23  C   UNL     1      -7.608  10.486  65.898  1.00  0.00    -0.148 A  
HETATM   24  C   UNL     1     -10.070  11.719  66.364  1.00  0.00    -0.239 A  
HETATM   25  C   UNL     1      -7.802  11.276  67.041  1.00  0.00    -0.150 A  
HETATM   26  C   UNL     1      -9.892  10.900  65.255  1.00  0.00    -0.318 A  
BRANCH  22  27
HETATM   27  O   UNL     1      -8.379   9.552  63.863  1.00  0.00    -0.148 OA 
BRANCH  27  28
HETATM   28  C   UNL     1      -7.654   8.349  64.159  1.00  0.00    -0.125 C  
BRANCH  28  29
HETATM   29  C   UNL     1      -8.550   7.160  64.521  1.00  0.00     0.337 C  
BRANCH  29  30
HETATM   30  N   UNL     1      -8.255   6.667  65.887  1.00  0.00    -0.125 NA 
HETATM   31  C   UNL     1      -8.830   7.470  66.979  1.00  0.00    -0.128 C  
HETATM   32  C   UNL     1     -10.342   7.314  67.153  1.00  0.00    -0.367 C  
HETATM   33  C   UNL     1     -10.762   5.850  67.223  1.00  0.00    -0.380 C  
HETATM   34  C   UNL     1     -10.124   5.026  66.110  1.00  0.00    -0.262 C  
HETATM   35  C   UNL     1      -8.614   5.255  66.053  1.00  0.00    -0.124 C  
ENDBRANCH  29  30
ENDBRANCH  28  29
ENDBRANCH  27  28
ENDBRANCH  22  27
ENDBRANCH  20  21
ENDBRANCH  10  20
ENDBRANCH   6   9
ENDBRANCH   2   3
TORSDOF 8
ENDMDL
MODEL       55
REMARK 921   NORMALIZED FREE ENERGY PREDICTED BY IDOCK:   -5.77 KCAL/MOL
REMARK 922        TOTAL FREE ENERGY PREDICTED BY IDOCK:  -10.22 KCAL/MOL
REMARK 923 INTER-LIGAND FREE ENERGY PREDICTED BY IDOCK:   -8.94 KCAL/MOL
REMARK 924 INTRA-LIGAND FREE ENERGY PREDICTED BY IDOCK:   -1.28 KCAL/MOL
REMARK 927      BINDING AFFINITY PREDICTED BY RF-SCORE:    0.00 PKD
ROOT
HETATM    1  C   UNL     1     -10.173  19.956  66.124  1.00  0.00    -0.503 C  
HETATM    2  O   UNL     1      -9.706  18.653  65.793  1.00  0.00    -0.457 OA 
ENDROOT
BRANCH   2   3
HETATM    3  C   UNL     1     -10.128  17.628  66.589  1.00  0.00    -0.335 A  
HETATM    4  C   UNL     1     -10.193  17.637  67.981  1.00  0.00    -0.362 A  
HETATM    5  C   UNL     1     -10.616  16.497  68.683  1.00  0.00    -0.316 A  
HETATM    6  C   UNL     1     -10.994  15.325  68.014  1.00  0.00    -0.299 A  
HETATM    7  C   UNL     1     -10.517  16.478  65.910  1.00  0.00    -0.335 A  
HETATM    8  C   UNL     1     -10.951  15.340  66.609  1.00  0.00    -0.297 A  
BRANCH   6   9
HETATM    9  C   UNL     1     -11.368  14.104  68.772  1.00  0.00    -0.278 A  
HETATM   10  C   UNL     1     -11.148  12.756  68.503  1.00  0.00    -0.266 A  
HETATM   11  C   UNL     1     -11.790  11.863  69.456  1.00  0.00    -0.395 A  
HETATM   12  C   UNL     1     -12.544   9.825  70.608  1.00  0.00    -0.185 A  
HETATM   13  C   UNL     1     -12.388  12.594  70.486  1.00  0.00    -0.268 A  
HETATM   14  H   UNL     1     -13.675   8.987  72.712  1.00  0.00     0.000 HD 
HETATM   15  C   UNL     1     -11.885  10.447  69.541  1.00  0.00    -0.218 A  
HETATM   16  S   UNL     1     -12.283  14.278  70.215  1.00  0.00    -0.359 SA 
HETATM   17  C   UNL     1     -12.999  11.976  71.598  1.00  0.00    -0.439 A  
HETATM   18  C   UNL     1     -13.062  10.589  71.635  1.00  0.00    -0.446 A  
HETATM   19  O   UNL     1     -13.632   9.936  72.688  1.00  0.00    -0.211 OA 
BRANCH  10  20
HETATM   20  O   UNL     1     -10.315  12.405  67.481  1.00  0.00    -0.212 OA 
BRANCH  20  21
HETATM   21  C   UNL     1      -9.639  11.212  67.406  1.00  0.00    -0.168 A  
HETATM   22  C   UNL     1      -8.088   8.868  67.268  1.00  0.00    -0.104 A  
HETATM   23  C   UNL     1      -7.685   9.932  68.081  1.00  0.00    -0.082 A  
HETATM   24  C   UNL     1     -10.031  10.162  66.585  1.00  0.00    -0.272 A  
HETATM   25  C   UNL     1      -8.460  11.098  68.151  1.00  0.00    -0.138 A  
HETATM   26  C   UNL     1      -9.286   8.988  66.549  1.00  0.00    -0.246 A  
BRANCH  22  27
HETATM   27  O   UNL     1      -7.254   7.771  67.209  1.00  0.00    -0.086 OA 
BRANCH  27  28
HETATM   28  C   UNL     1      -7.863   6.583  67.737  1.00  0.00    -0.111 C  
BRANCH  28  29
HETATM   29  C   UNL     1      -8.056   6.610  69.256  1.00  0.00    -0.116 C  
BRANCH  29  30
HETATM   30  N   UNL     1      -8.732   5.379  69.729  1.00  0.00    -0.106 NA 
HETATM   31  C   UNL     1      -8.780   5.214  71.191  1.00  0.00    -0.130 C  
HETATM   32  C   UNL     1      -9.771   6.138  71.903  1.00  0.00    -0.169 C  
HETATM   33  C   UNL     1     -11.156   6.091  71.265  1.00  0.00    -0.337 C  
HETATM   34  C   UNL     1     -11.083   6.221  69.748  1.00  0.00    -0.473 C  
HETATM   35  C   UNL     1     -10.076   5.234  69.158  1.00  0.00    -0.219 C  
ENDBRANCH  29  30
ENDBRANCH  28  29
ENDBRANCH  27  28
ENDBRANCH  22  27
ENDBRANCH  20  21
ENDBRANCH  10  20
ENDBRANCH   6   9
ENDBRANCH   2   3
TORSDOF 8
ENDMDL
MODEL       56
REMARK 921   NORMALIZED FREE ENERGY PREDICTED BY IDOCK:   -5.76 KCAL/MOL
REMARK 922        TOTAL FREE ENERGY PREDICTED BY IDOCK:  -10.20 KCAL/MOL
REMARK 923 INTER-LIGAND FREE ENERGY PREDICTED BY IDOCK:   -9.07 KCAL/MOL
REMARK 924 INTRA-LIGAND FREE ENERGY PREDICTED BY IDOCK:   -1.14 KCAL/MOL
REMARK 927      BINDING AFFINITY PREDICTED BY RF-SCORE:    0.00 PKD
ROOT
HETATM    1  C   UNL     1     -13.595  12.908  72.165  1.00  0.00    -0.495 C  
HETATM    2  O   UNL     1     -13.364  11.504  72.161  1.00  0.00    -0.477 OA 
ENDROOT
BRANCH   2   3
HETATM    3  C   UNL     1     -12.563  11.016  71.169  1.00  0.00    -0.418 A  
HETATM    4  C   UNL     1     -12.139   9.696  71.025  1.00  0.00    -0.421 A  
HETATM    5  C   UNL     1     -11.284   9.332  69.973  1.00  0.00    -0.190 A  
HETATM    6  C   UNL     1     -10.840  10.273  69.033  1.00  0.00    -0.265 A  
HETATM    7  C   UNL     1     -12.145  11.957  70.234  1.00  0.00    -0.409 A  
HETATM    8  C   UNL     1     -11.299  11.594  69.174  1.00  0.00    -0.345 A  
BRANCH   6   9
HETATM    9  C   UNL     1      -9.877   9.888  67.970  1.00  0.00    -0.147 A  
HETATM   10  C   UNL     1      -9.912  10.077  66.591  1.00  0.00    -0.216 A  
HETATM   11  C   UNL     1      -8.810   9.433  65.891  1.00  0.00    -0.193 A  
HETATM   12  C   UNL     1      -7.313   8.659  64.100  1.00  0.00    -0.102 A  
HETATM   13  C   UNL     1      -7.914   8.867  66.802  1.00  0.00    -0.107 A  
HETATM   14  H   UNL     1      -5.080   7.548  63.663  1.00  0.00     0.000 HD 
HETATM   15  C   UNL     1      -8.480   9.311  64.513  1.00  0.00    -0.195 A  
HETATM   16  S   UNL     1      -8.474   9.002  68.412  1.00  0.00    -0.129 SA 
HETATM   17  C   UNL     1      -6.703   8.263  66.399  1.00  0.00    -0.062 A  
HETATM   18  C   UNL     1      -6.427   8.174  65.041  1.00  0.00    -0.048 A  
HETATM   19  O   UNL     1      -5.269   7.609  64.593  1.00  0.00    -0.029 OA 
BRANCH  10  20
HETATM   20  O   UNL     1     -10.869  10.884  66.050  1.00  0.00    -0.195 OA 
BRANCH  20  21
HETATM   21  C   UNL     1     -10.802  12.255  66.021  1.00  0.00    -0.275 A  
HETATM   22  C   UNL     1     -10.798  15.062  65.824  1.00  0.00    -0.350 A  
HETATM   23  C   UNL     1     -11.986  14.347  65.652  1.00  0.00    -0.356 A  
HETATM   24  C   UNL     1      -9.617  12.965  66.176  1.00  0.00    -0.215 A  
HETATM   25  C   UNL     1     -11.987  12.948  65.754  1.00  0.00    -0.496 A  
HETATM   26  C   UNL     1      -9.623  14.355  66.118  1.00  0.00    -0.309 A  
BRANCH  22  27
HETATM   27  O   UNL     1     -10.859  16.431  65.663  1.00  0.00    -0.278 OA 
BRANCH  27  28
HETATM   28  C   UNL     1     -10.356  17.146  66.801  1.00  0.00    -0.302 C  
BRANCH  28  29
HETATM   29  C   UNL     1      -9.515  18.373  66.437  1.00  0.00    -0.295 C  
BRANCH  29  30
HETATM   30  N   UNL     1      -8.169  18.298  67.052  1.00  0.00    -0.233 NA 
HETATM   31  C   UNL     1      -7.047  18.248  66.100  1.00  0.00    -0.269 C  
HETATM   32  C   UNL     1      -6.750  19.575  65.398  1.00  0.00    -0.309 C  
HETATM   33  C   UNL     1      -6.623  20.729  66.387  1.00  0.00    -0.311 C  
HETATM   34  C   UNL     1      -7.770  20.740  67.392  1.00  0.00    -0.323 C  
HETATM   35  C   UNL     1      -7.952  19.365  68.035  1.00  0.00    -0.304 C  
ENDBRANCH  29  30
ENDBRANCH  28  29
ENDBRANCH  27  28
ENDBRANCH  22  27
ENDBRANCH  20  21
ENDBRANCH  10  20
ENDBRANCH   6   9
ENDBRANCH   2   3
TORSDOF 8
ENDMDL
MODEL       57
REMARK 921   NORMALIZED FREE ENERGY PREDICTED BY IDOCK:   -5.74 KCAL/MOL
REMARK 922        TOTAL FREE ENERGY PREDICTED BY IDOCK:  -10.18 KCAL/MOL
REMARK 923 INTER-LIGAND FREE ENERGY PREDICTED BY IDOCK:   -8.48 KCAL/MOL
REMARK 924 INTRA-LIGAND FREE ENERGY PREDICTED BY IDOCK:   -1.70 KCAL/MOL
REMARK 927      BINDING AFFINITY PREDICTED BY RF-SCORE:    0.00 PKD
ROOT
HETATM    1  C   UNL     1      -9.778  12.063  63.631  1.00  0.00    -0.194 C  
HETATM    2  O   UNL     1      -8.911  11.007  64.027  1.00  0.00    -0.146 OA 
ENDROOT
BRANCH   2   3
HETATM    3  C   UNL     1      -9.037  10.557  65.310  1.00  0.00    -0.190 A  
HETATM    4  C   UNL     1      -8.348  11.035  66.422  1.00  0.00    -0.165 A  
HETATM    5  C   UNL     1      -8.547  10.458  67.687  1.00  0.00    -0.118 A  
HETATM    6  C   UNL     1      -9.446   9.399  67.874  1.00  0.00    -0.150 A  
HETATM    7  C   UNL     1      -9.946   9.519  65.483  1.00  0.00    -0.209 A  
HETATM    8  C   UNL     1     -10.156   8.947  66.747  1.00  0.00    -0.350 A  
BRANCH   6   9
HETATM    9  C   UNL     1      -9.591   8.750  69.202  1.00  0.00    -0.162 A  
HETATM   10  C   UNL     1     -10.592   8.847  70.164  1.00  0.00    -0.222 A  
HETATM   11  C   UNL     1     -10.285   8.129  71.392  1.00  0.00    -0.248 A  
HETATM   12  C   UNL     1     -10.463   7.199  73.662  1.00  0.00    -0.412 A  
HETATM   13  C   UNL     1      -9.090   7.417  71.259  1.00  0.00    -0.142 A  
HETATM   14  H   UNL     1      -9.381   5.578  75.278  1.00  0.00     0.000 HD 
HETATM   15  C   UNL     1     -10.968   8.002  72.634  1.00  0.00    -0.448 A  
HETATM   16  S   UNL     1      -8.327   7.731  69.762  1.00  0.00    -0.133 SA 
HETATM   17  C   UNL     1      -8.605   6.555  72.266  1.00  0.00    -0.123 A  
HETATM   18  C   UNL     1      -9.312   6.464  73.458  1.00  0.00    -0.134 A  
HETATM   19  O   UNL     1      -8.897   5.640  74.463  1.00  0.00    -0.116 OA 
BRANCH  10  20
HETATM   20  O   UNL     1     -11.754   9.492  69.858  1.00  0.00    -0.078 OA 
BRANCH  20  21
HETATM   21  C   UNL     1     -11.926  10.853  69.919  1.00  0.00    -0.353 A  
HETATM   22  C   UNL     1     -12.435  13.611  70.154  1.00  0.00    -0.239 A  
HETATM   23  C   UNL     1     -12.702  12.753  71.224  1.00  0.00    -0.364 A  
HETATM   24  C   UNL     1     -11.676  11.704  68.849  1.00  0.00    -0.397 A  
HETATM   25  C   UNL     1     -12.446  11.379  71.107  1.00  0.00    -0.465 A  
HETATM   26  C   UNL     1     -11.889  13.072  68.980  1.00  0.00    -0.362 A  
BRANCH  22  27
HETATM   27  O   UNL     1     -12.756  14.942  70.320  1.00  0.00    -0.328 OA 
BRANCH  27  28
HETATM   28  C   UNL     1     -11.667  15.819  69.996  1.00  0.00    -0.355 C  
BRANCH  28  29
HETATM   29  C   UNL     1     -11.647  16.263  68.530  1.00  0.00    -0.188 C  
BRANCH  29  30
HETATM   30  N   UNL     1     -10.268  16.581  68.089  1.00  0.00    -0.260 NA 
HETATM   31  C   UNL     1      -9.365  15.424  67.974  1.00  0.00    -0.196 C  
HETATM   32  C   UNL     1      -9.638  14.522  66.768  1.00  0.00    -0.274 C  
HETATM   33  C   UNL     1      -9.734  15.317  65.470  1.00  0.00    -0.313 C  
HETATM   34  C   UNL     1     -10.639  16.536  65.620  1.00  0.00    -0.317 C  
HETATM   35  C   UNL     1     -10.252  17.361  66.847  1.00  0.00    -0.322 C  
ENDBRANCH  29  30
ENDBRANCH  28  29
ENDBRANCH  27  28
ENDBRANCH  22  27
ENDBRANCH  20  21
ENDBRANCH  10  20
ENDBRANCH   6   9
ENDBRANCH   2   3
TORSDOF 8
ENDMDL
MODEL       58
REMARK 921   NORMALIZED FREE ENERGY PREDICTED BY IDOCK:   -5.73 KCAL/MOL
REMARK 922        TOTAL FREE ENERGY PREDICTED BY IDOCK:  -10.16 KCAL/MOL
REMARK 923 INTER-LIGAND FREE ENERGY PREDICTED BY IDOCK:   -8.57 KCAL/MOL
REMARK 924 INTRA-LIGAND FREE ENERGY PREDICTED BY IDOCK:   -1.59 KCAL/MOL
REMARK 927      BINDING AFFINITY PREDICTED BY RF-SCORE:    0.00 PKD
ROOT
HETATM    1  C   UNL     1      -5.460   9.544  70.102  1.00  0.00    -0.035 C  
HETATM    2  O   UNL     1      -5.957   9.932  68.826  1.00  0.00    -0.039 OA 
ENDROOT
BRANCH   2   3
HETATM    3  C   UNL     1      -6.411  11.214  68.708  1.00  0.00    -0.052 A  
HETATM    4  C   UNL     1      -6.194  12.253  69.609  1.00  0.00    -0.131 A  
HETATM    5  C   UNL     1      -6.750  13.523  69.383  1.00  0.00    -0.051 A  
HETATM    6  C   UNL     1      -7.526  13.789  68.247  1.00  0.00    -0.120 A  
HETATM    7  C   UNL     1      -7.164  11.468  67.566  1.00  0.00    -0.111 A  
HETATM    8  C   UNL     1      -7.712  12.738  67.331  1.00  0.00    -0.165 A  
BRANCH   6   9
HETATM    9  C   UNL     1      -8.168  15.114  68.059  1.00  0.00    -0.142 A  
HETATM   10  C   UNL     1      -9.444  15.460  67.621  1.00  0.00    -0.205 A  
HETATM   11  C   UNL     1      -9.633  16.894  67.465  1.00  0.00    -0.245 A  
HETATM   12  C   UNL     1     -10.659  19.078  66.986  1.00  0.00    -0.543 A  
HETATM   13  C   UNL     1      -8.503  17.589  67.903  1.00  0.00    -0.230 A  
HETATM   14  H   UNL     1     -10.305  21.575  67.207  1.00  0.00     0.000 HD 
HETATM   15  C   UNL     1     -10.723  17.680  66.998  1.00  0.00    -0.176 A  
HETATM   16  S   UNL     1      -7.238  16.528  68.348  1.00  0.00    -0.178 SA 
HETATM   17  C   UNL     1      -8.452  18.998  67.955  1.00  0.00    -0.329 A  
HETATM   18  C   UNL     1      -9.545  19.719  67.491  1.00  0.00    -0.353 A  
HETATM   19  O   UNL     1      -9.557  21.082  67.525  1.00  0.00    -0.366 OA 
BRANCH  10  20
HETATM   20  O   UNL     1     -10.388  14.486  67.476  1.00  0.00    -0.242 OA 
BRANCH  20  21
HETATM   21  C   UNL     1     -10.989  13.826  68.520  1.00  0.00    -0.262 A  
HETATM   22  C   UNL     1     -12.280  12.341  70.532  1.00  0.00    -0.300 A  
HETATM   23  C   UNL     1     -11.660  11.687  69.464  1.00  0.00    -0.397 A  
HETATM   24  C   UNL     1     -11.620  14.477  69.573  1.00  0.00    -0.350 A  
HETATM   25  C   UNL     1     -11.014  12.428  68.463  1.00  0.00    -0.277 A  
HETATM   26  C   UNL     1     -12.222  13.742  70.588  1.00  0.00    -0.434 A  
BRANCH  22  27
HETATM   27  O   UNL     1     -12.937  11.555  71.454  1.00  0.00    -0.412 OA 
BRANCH  27  28
HETATM   28  C   UNL     1     -13.139  10.211  70.993  1.00  0.00    -0.375 C  
BRANCH  28  29
HETATM   29  C   UNL     1     -12.513   9.146  71.898  1.00  0.00    -0.387 C  
BRANCH  29  30
HETATM   30  N   UNL     1     -11.571   8.290  71.140  1.00  0.00    -0.276 NA 
HETATM   31  C   UNL     1     -10.145   8.531  71.417  1.00  0.00    -0.234 C  
HETATM   32  C   UNL     1      -9.664   8.012  72.774  1.00  0.00    -0.348 C  
HETATM   33  C   UNL     1     -10.064   6.558  73.004  1.00  0.00    -0.206 C  
HETATM   34  C   UNL     1     -11.533   6.318  72.671  1.00  0.00    -0.255 C  
HETATM   35  C   UNL     1     -11.880   6.864  71.287  1.00  0.00    -0.341 C  
ENDBRANCH  29  30
ENDBRANCH  28  29
ENDBRANCH  27  28
ENDBRANCH  22  27
ENDBRANCH  20  21
ENDBRANCH  10  20
ENDBRANCH   6   9
ENDBRANCH   2   3
TORSDOF 8
ENDMDL
MODEL       59
REMARK 921   NORMALIZED FREE ENERGY PREDICTED BY IDOCK:   -5.71 KCAL/MOL
REMARK 922        TOTAL FREE ENERGY PREDICTED BY IDOCK:  -10.14 KCAL/MOL
REMARK 923 INTER-LIGAND FREE ENERGY PREDICTED BY IDOCK:   -8.35 KCAL/MOL
REMARK 924 INTRA-LIGAND FREE ENERGY PREDICTED BY IDOCK:   -1.79 KCAL/MOL
REMARK 927      BINDING AFFINITY PREDICTED BY RF-SCORE:    0.00 PKD
ROOT
HETATM    1  C   UNL     1     -12.409  15.382  63.976  1.00  0.00     0.116 C  
HETATM    2  O   UNL     1     -12.420  14.042  63.496  1.00  0.00    -0.826 OA 
ENDROOT
BRANCH   2   3
HETATM    3  C   UNL     1     -11.734  13.120  64.233  1.00  0.00    -0.395 A  
HETATM    4  C   UNL     1     -10.608  12.409  63.824  1.00  0.00    -0.486 A  
HETATM    5  C   UNL     1     -10.016  11.460  64.673  1.00  0.00    -0.315 A  
HETATM    6  C   UNL     1     -10.526  11.206  65.954  1.00  0.00    -0.310 A  
HETATM    7  C   UNL     1     -12.241  12.891  65.508  1.00  0.00    -0.527 A  
HETATM    8  C   UNL     1     -11.645  11.952  66.364  1.00  0.00    -0.315 A  
BRANCH   6   9
HETATM    9  C   UNL     1      -9.935  10.146  66.810  1.00  0.00    -0.211 A  
HETATM   10  C   UNL     1      -9.251  10.223  68.020  1.00  0.00    -0.135 A  
HETATM   11  C   UNL     1      -8.728   8.942  68.471  1.00  0.00    -0.134 A  
HETATM   12  C   UNL     1      -7.597   7.223  69.819  1.00  0.00    -0.098 A  
HETATM   13  C   UNL     1      -9.143   7.915  67.619  1.00  0.00    -0.133 A  
HETATM   14  H   UNL     1      -7.258   4.724  70.046  1.00  0.00     0.000 HD 
HETATM   15  C   UNL     1      -7.936   8.561  69.590  1.00  0.00    -0.101 A  
HETATM   16  S   UNL     1     -10.005   8.517  66.271  1.00  0.00    -0.067 SA 
HETATM   17  C   UNL     1      -8.860   6.556  67.876  1.00  0.00    -0.114 A  
HETATM   18  C   UNL     1      -8.086   6.238  68.984  1.00  0.00    -0.110 A  
HETATM   19  O   UNL     1      -7.788   4.942  69.287  1.00  0.00    -0.073 OA 
BRANCH  10  20
HETATM   20  O   UNL     1      -9.212  11.409  68.692  1.00  0.00    -0.183 OA 
BRANCH  20  21
HETATM   21  C   UNL     1      -8.454  12.491  68.315  1.00  0.00    -0.165 A  
HETATM   22  C   UNL     1      -7.053  14.767  67.436  1.00  0.00    -0.143 A  
HETATM   23  C   UNL     1      -8.428  14.838  67.677  1.00  0.00    -0.185 A  
HETATM   24  C   UNL     1      -7.091  12.416  68.059  1.00  0.00    -0.099 A  
HETATM   25  C   UNL     1      -9.124  13.703  68.118  1.00  0.00    -0.195 A  
HETATM   26  C   UNL     1      -6.391  13.551  67.664  1.00  0.00    -0.156 A  
BRANCH  22  27
HETATM   27  O   UNL     1      -6.439  15.906  66.959  1.00  0.00    -0.291 OA 
BRANCH  27  28
HETATM   28  C   UNL     1      -6.706  17.060  67.769  1.00  0.00    -0.148 C  
BRANCH  28  29
HETATM   29  C   UNL     1      -7.164  18.284  66.970  1.00  0.00    -0.202 C  
BRANCH  29  30
HETATM   30  N   UNL     1      -7.894  19.241  67.834  1.00  0.00    -0.281 NA 
HETATM   31  C   UNL     1      -8.452  20.413  67.138  1.00  0.00    -0.318 C  
HETATM   32  C   UNL     1      -9.682  20.114  66.279  1.00  0.00    -0.515 C  
HETATM   33  C   UNL     1     -10.743  19.334  67.050  1.00  0.00    -0.565 C  
HETATM   34  C   UNL     1     -10.140  18.151  67.799  1.00  0.00    -0.371 C  
HETATM   35  C   UNL     1      -8.934  18.583  68.632  1.00  0.00    -0.296 C  
ENDBRANCH  29  30
ENDBRANCH  28  29
ENDBRANCH  27  28
ENDBRANCH  22  27
ENDBRANCH  20  21
ENDBRANCH  10  20
ENDBRANCH   6   9
ENDBRANCH   2   3
TORSDOF 8
ENDMDL
MODEL       60
REMARK 921   NORMALIZED FREE ENERGY PREDICTED BY IDOCK:   -5.70 KCAL/MOL
REMARK 922        TOTAL FREE ENERGY PREDICTED BY IDOCK:  -10.12 KCAL/MOL
REMARK 923 INTER-LIGAND FREE ENERGY PREDICTED BY IDOCK:   -8.59 KCAL/MOL
REMARK 924 INTRA-LIGAND FREE ENERGY PREDICTED BY IDOCK:   -1.52 KCAL/MOL
REMARK 927      BINDING AFFINITY PREDICTED BY RF-SCORE:    0.00 PKD
ROOT
HETATM    1  C   UNL     1     -12.745  12.808  71.433  1.00  0.00    -0.255 C  
HETATM    2  O   UNL     1     -13.636  11.735  71.717  1.00  0.00    -0.184 OA 
ENDROOT
BRANCH   2   3
HETATM    3  C   UNL     1     -13.088  10.488  71.808  1.00  0.00    -0.464 A  
HETATM    4  C   UNL     1     -13.701   9.354  72.336  1.00  0.00    -0.469 A  
HETATM    5  C   UNL     1     -13.009   8.134  72.401  1.00  0.00    -0.164 A  
HETATM    6  C   UNL     1     -11.694   8.014  71.932  1.00  0.00    -0.351 A  
HETATM    7  C   UNL     1     -11.789  10.380  71.322  1.00  0.00    -0.381 A  
HETATM    8  C   UNL     1     -11.099   9.159  71.375  1.00  0.00    -0.415 A  
BRANCH   6   9
HETATM    9  C   UNL     1     -10.949   6.736  72.076  1.00  0.00    -0.238 A  
HETATM   10  C   UNL     1     -10.745   5.690  71.181  1.00  0.00    -0.241 A  
HETATM   11  C   UNL     1     -10.048   4.555  71.767  1.00  0.00    -0.254 A  
HETATM   12  C   UNL     1      -8.966   2.363  72.038  1.00  0.00    -0.124 A  
HETATM   13  C   UNL     1      -9.654   4.844  73.076  1.00  0.00    -0.135 A  
HETATM   14  H   UNL     1      -7.557   0.981  73.624  1.00  0.00     0.000 HD 
HETATM   15  C   UNL     1      -9.685   3.276  71.260  1.00  0.00    -0.222 A  
HETATM   16  S   UNL     1     -10.232   6.368  73.592  1.00  0.00    -0.298 SA 
HETATM   17  C   UNL     1      -8.874   3.956  73.847  1.00  0.00    -0.092 A  
HETATM   18  C   UNL     1      -8.543   2.721  73.303  1.00  0.00    -0.079 A  
HETATM   19  O   UNL     1      -7.784   1.826  73.997  1.00  0.00    -0.035 OA 
BRANCH  10  20
HETATM   20  O   UNL     1     -11.109   5.846  69.875  1.00  0.00    -0.366 OA 
BRANCH  20  21
HETATM   21  C   UNL     1     -10.501   6.709  68.997  1.00  0.00    -0.214 A  
HETATM   22  C   UNL     1      -9.345   8.386  67.056  1.00  0.00    -0.159 A  
HETATM   23  C   UNL     1     -10.653   7.920  66.894  1.00  0.00    -0.333 A  
HETATM   24  C   UNL     1      -9.194   7.158  69.150  1.00  0.00    -0.139 A  
HETATM   25  C   UNL     1     -11.229   7.087  67.864  1.00  0.00    -0.021 A  
HETATM   26  C   UNL     1      -8.638   8.019  68.211  1.00  0.00    -0.130 A  
BRANCH  22  27
HETATM   27  O   UNL     1      -8.824   9.162  66.041  1.00  0.00    -0.148 OA 
BRANCH  27  28
HETATM   28  C   UNL     1      -9.831   9.904  65.339  1.00  0.00    -0.313 C  
BRANCH  28  29
HETATM   29  C   UNL     1      -9.488  11.384  65.147  1.00  0.00    -0.199 C  
BRANCH  29  30
HETATM   30  N   UNL     1     -10.301  12.240  66.042  1.00  0.00    -0.240 NA 
HETATM   31  C   UNL     1      -9.978  13.676  65.999  1.00  0.00    -0.302 C  
HETATM   32  C   UNL     1     -10.452  14.396  64.734  1.00  0.00    -0.394 C  
HETATM   33  C   UNL     1     -11.922  14.120  64.436  1.00  0.00    -0.478 C  
HETATM   34  C   UNL     1     -12.247  12.633  64.528  1.00  0.00    -0.514 C  
HETATM   35  C   UNL     1     -11.740  12.039  65.842  1.00  0.00    -0.242 C  
ENDBRANCH  29  30
ENDBRANCH  28  29
ENDBRANCH  27  28
ENDBRANCH  22  27
ENDBRANCH  20  21
ENDBRANCH  10  20
ENDBRANCH   6   9
ENDBRANCH   2   3
TORSDOF 8
ENDMDL
MODEL       61
REMARK 921   NORMALIZED FREE ENERGY PREDICTED BY IDOCK:   -5.69 KCAL/MOL
REMARK 922        TOTAL FREE ENERGY PREDICTED BY IDOCK:  -10.11 KCAL/MOL
REMARK 923 INTER-LIGAND FREE ENERGY PREDICTED BY IDOCK:   -8.00 KCAL/MOL
REMARK 924 INTRA-LIGAND FREE ENERGY PREDICTED BY IDOCK:   -2.10 KCAL/MOL
REMARK 927      BINDING AFFINITY PREDICTED BY RF-SCORE:    0.00 PKD
ROOT
HETATM    1  C   UNL     1      -9.868  18.950  68.657  1.00  0.00    -0.407 C  
HETATM    2  O   UNL     1     -10.920  18.383  67.884  1.00  0.00    -0.289 OA 
ENDROOT
BRANCH   2   3
HETATM    3  C   UNL     1     -10.750  17.095  67.465  1.00  0.00    -0.276 A  
HETATM    4  C   UNL     1     -11.164  15.948  68.138  1.00  0.00    -0.339 A  
HETATM    5  C   UNL     1     -10.894  14.674  67.611  1.00  0.00    -0.284 A  
HETATM    6  C   UNL     1     -10.216  14.516  66.394  1.00  0.00    -0.293 A  
HETATM    7  C   UNL     1     -10.092  16.954  66.248  1.00  0.00    -0.335 A  
HETATM    8  C   UNL     1      -9.831  15.683  65.712  1.00  0.00    -0.386 A  
BRANCH   6   9
HETATM    9  C   UNL     1      -9.873  13.163  65.886  1.00  0.00    -0.233 A  
HETATM   10  C   UNL     1      -9.250  12.084  66.506  1.00  0.00    -0.216 A  
HETATM   11  C   UNL     1      -8.993  10.969  65.606  1.00  0.00    -0.212 A  
HETATM   12  C   UNL     1      -8.265   8.786  64.737  1.00  0.00    -0.163 A  
HETATM   13  C   UNL     1      -9.542  11.220  64.346  1.00  0.00    -0.225 A  
HETATM   14  H   UNL     1      -8.398   7.261  62.720  1.00  0.00     0.000 HD 
HETATM   15  C   UNL     1      -8.343   9.716  65.780  1.00  0.00    -0.132 A  
HETATM   16  S   UNL     1     -10.208  12.791  64.244  1.00  0.00    -0.259 SA 
HETATM   17  C   UNL     1      -9.525  10.264  63.307  1.00  0.00    -0.342 A  
HETATM   18  C   UNL     1      -8.880   9.054  63.530  1.00  0.00     0.018 A  
HETATM   19  O   UNL     1      -8.839   8.089  62.567  1.00  0.00     0.074 OA 
BRANCH  10  20
HETATM   20  O   UNL     1      -9.032  12.120  67.852  1.00  0.00    -0.169 OA 
BRANCH  20  21
HETATM   21  C   UNL     1      -9.681  11.325  68.765  1.00  0.00    -0.174 A  
HETATM   22  C   UNL     1     -10.884   9.558  70.595  1.00  0.00    -0.306 A  
HETATM   23  C   UNL     1      -9.498   9.546  70.413  1.00  0.00    -0.317 A  
HETATM   24  C   UNL     1     -11.060  11.326  68.934  1.00  0.00    -0.295 A  
HETATM   25  C   UNL     1      -8.899  10.429  69.502  1.00  0.00    -0.111 A  
HETATM   26  C   UNL     1     -11.650  10.481  69.868  1.00  0.00    -0.384 A  
BRANCH  22  27
HETATM   27  O   UNL     1     -11.411   8.631  71.469  1.00  0.00    -0.253 OA 
BRANCH  27  28
HETATM   28  C   UNL     1     -11.852   7.435  70.810  1.00  0.00    -0.258 C  
BRANCH  28  29
HETATM   29  C   UNL     1     -10.834   6.293  70.853  1.00  0.00    -0.272 C  
BRANCH  29  30
HETATM   30  N   UNL     1     -10.867   5.501  69.601  1.00  0.00    -0.292 NA 
HETATM   31  C   UNL     1     -11.068   6.284  68.370  1.00  0.00    -0.279 C  
HETATM   32  C   UNL     1      -9.848   7.096  67.929  1.00  0.00    -0.170 C  
HETATM   33  C   UNL     1      -8.583   6.246  67.878  1.00  0.00    -0.115 C  
HETATM   34  C   UNL     1      -8.414   5.410  69.143  1.00  0.00    -0.103 C  
HETATM   35  C   UNL     1      -9.691   4.635  69.464  1.00  0.00    -0.208 C  
ENDBRANCH  29  30
ENDBRANCH  28  29
ENDBRANCH  27  28
ENDBRANCH  22  27
ENDBRANCH  20  21
ENDBRANCH  10  20
ENDBRANCH   6   9
ENDBRANCH   2   3
TORSDOF 8
ENDMDL
MODEL       62
REMARK 921   NORMALIZED FREE ENERGY PREDICTED BY IDOCK:   -5.68 KCAL/MOL
REMARK 922        TOTAL FREE ENERGY PREDICTED BY IDOCK:  -10.09 KCAL/MOL
REMARK 923 INTER-LIGAND FREE ENERGY PREDICTED BY IDOCK:   -7.86 KCAL/MOL
REMARK 924 INTRA-LIGAND FREE ENERGY PREDICTED BY IDOCK:   -2.23 KCAL/MOL
REMARK 927      BINDING AFFINITY PREDICTED BY RF-SCORE:    0.00 PKD
ROOT
HETATM    1  C   UNL     1      -5.858  14.721  70.299  1.00  0.00    -0.151 C  
HETATM    2  O   UNL     1      -5.345  13.914  69.245  1.00  0.00    -0.081 OA 
ENDROOT
BRANCH   2   3
HETATM    3  C   UNL     1      -6.057  12.794  68.925  1.00  0.00    -0.079 A  
HETATM    4  C   UNL     1      -6.433  11.777  69.800  1.00  0.00    -0.094 A  
HETATM    5  C   UNL     1      -7.139  10.657  69.332  1.00  0.00    -0.120 A  
HETATM    6  C   UNL     1      -7.498  10.532  67.982  1.00  0.00    -0.090 A  
HETATM    7  C   UNL     1      -6.422  12.692  67.587  1.00  0.00    -0.146 A  
HETATM    8  C   UNL     1      -7.138  11.580  67.117  1.00  0.00    -0.140 A  
BRANCH   6   9
HETATM    9  C   UNL     1      -8.179   9.308  67.488  1.00  0.00    -0.114 A  
HETATM   10  C   UNL     1      -9.491   8.867  67.637  1.00  0.00    -0.138 A  
HETATM   11  C   UNL     1      -9.720   7.538  67.091  1.00  0.00    -0.228 A  
HETATM   12  C   UNL     1     -10.823   5.442  66.427  1.00  0.00    -0.202 A  
HETATM   13  C   UNL     1      -8.574   7.069  66.444  1.00  0.00    -0.135 A  
HETATM   14  H   UNL     1     -10.503   3.322  65.081  1.00  0.00     0.000 HD 
HETATM   15  C   UNL     1     -10.858   6.684  67.069  1.00  0.00    -0.467 A  
HETATM   16  S   UNL     1      -7.257   8.145  66.624  1.00  0.00    -0.082 SA 
HETATM   17  C   UNL     1      -8.547   5.846  65.740  1.00  0.00    -0.154 A  
HETATM   18  C   UNL     1      -9.687   5.052  65.747  1.00  0.00    -0.141 A  
HETATM   19  O   UNL     1      -9.723   3.865  65.076  1.00  0.00    -0.170 OA 
BRANCH  10  20
HETATM   20  O   UNL     1     -10.424   9.710  68.167  1.00  0.00    -0.199 OA 
BRANCH  20  21
HETATM   21  C   UNL     1     -10.925  10.815  67.525  1.00  0.00    -0.312 A  
HETATM   22  C   UNL     1     -11.803  13.069  66.086  1.00  0.00    -0.409 A  
HETATM   23  C   UNL     1     -11.190  12.004  65.420  1.00  0.00    -0.374 A  
HETATM   24  C   UNL     1     -11.519  11.881  68.190  1.00  0.00    -0.384 A  
HETATM   25  C   UNL     1     -10.756  10.880  66.137  1.00  0.00    -0.225 A  
HETATM   26  C   UNL     1     -11.989  12.976  67.474  1.00  0.00    -0.360 A  
BRANCH  22  27
HETATM   27  O   UNL     1     -12.162  14.163  65.327  1.00  0.00    -0.396 OA 
BRANCH  27  28
HETATM   28  C   UNL     1     -11.028  14.889  64.829  1.00  0.00    -0.375 C  
BRANCH  28  29
HETATM   29  C   UNL     1     -10.777  16.214  65.553  1.00  0.00    -0.342 C  
BRANCH  29  30
HETATM   30  N   UNL     1      -9.334  16.406  65.829  1.00  0.00    -0.491 NA 
HETATM   31  C   UNL     1      -8.984  17.679  66.480  1.00  0.00    -0.262 C  
HETATM   32  C   UNL     1      -9.368  17.763  67.959  1.00  0.00    -0.276 C  
HETATM   33  C   UNL     1      -8.877  16.552  68.746  1.00  0.00    -0.255 C  
HETATM   34  C   UNL     1      -9.210  15.244  68.036  1.00  0.00    -0.188 C  
HETATM   35  C   UNL     1      -8.761  15.281  66.576  1.00  0.00    -0.279 C  
ENDBRANCH  29  30
ENDBRANCH  28  29
ENDBRANCH  27  28
ENDBRANCH  22  27
ENDBRANCH  20  21
ENDBRANCH  10  20
ENDBRANCH   6   9
ENDBRANCH   2   3
TORSDOF 8
ENDMDL
MODEL       63
REMARK 921   NORMALIZED FREE ENERGY PREDICTED BY IDOCK:   -5.67 KCAL/MOL
REMARK 922        TOTAL FREE ENERGY PREDICTED BY IDOCK:  -10.07 KCAL/MOL
REMARK 923 INTER-LIGAND FREE ENERGY PREDICTED BY IDOCK:   -8.08 KCAL/MOL
REMARK 924 INTRA-LIGAND FREE ENERGY PREDICTED BY IDOCK:   -1.99 KCAL/MOL
REMARK 927      BINDING AFFINITY PREDICTED BY RF-SCORE:    0.00 PKD
ROOT
HETATM    1  C   UNL     1     -10.353   4.002  73.903  1.00  0.00    -0.178 C  
HETATM    2  O   UNL     1     -11.533   4.537  73.316  1.00  0.00    -0.297 OA 
ENDROOT
BRANCH   2   3
HETATM    3  C   UNL     1     -11.451   5.805  72.816  1.00  0.00    -0.255 A  
HETATM    4  C   UNL     1     -10.521   6.776  73.181  1.00  0.00    -0.296 A  
HETATM    5  C   UNL     1     -10.568   8.059  72.612  1.00  0.00    -0.419 A  
HETATM    6  C   UNL     1     -11.536   8.400  71.657  1.00  0.00    -0.348 A  
HETATM    7  C   UNL     1     -12.406   6.123  71.857  1.00  0.00    -0.074 A  
HETATM    8  C   UNL     1     -12.449   7.401  71.278  1.00  0.00    -0.381 A  
BRANCH   6   9
HETATM    9  C   UNL     1     -11.620   9.782  71.120  1.00  0.00    -0.392 A  
HETATM   10  C   UNL     1     -10.808  10.464  70.218  1.00  0.00    -0.242 A  
HETATM   11  C   UNL     1     -11.178  11.861  70.049  1.00  0.00     0.043 A  
HETATM   12  C   UNL     1     -11.200  14.196  69.276  1.00  0.00    -0.308 A  
HETATM   13  C   UNL     1     -12.343  12.150  70.765  1.00  0.00    -0.297 A  
HETATM   14  H   UNL     1     -12.554  16.334  69.326  1.00  0.00     0.000 HD 
HETATM   15  C   UNL     1     -10.611  12.927  69.297  1.00  0.00     0.117 A  
HETATM   16  S   UNL     1     -12.864  10.815  71.696  1.00  0.00    -0.423 SA 
HETATM   17  C   UNL     1     -12.979  13.409  70.701  1.00  0.00    -0.057 A  
HETATM   18  C   UNL     1     -12.386  14.414  69.948  1.00  0.00    -0.314 A  
HETATM   19  O   UNL     1     -12.960  15.647  69.841  1.00  0.00    -0.087 OA 
BRANCH  10  20
HETATM   20  O   UNL     1      -9.848   9.779  69.532  1.00  0.00    -0.188 OA 
BRANCH  20  21
HETATM   21  C   UNL     1      -9.524  10.005  68.217  1.00  0.00    -0.140 A  
HETATM   22  C   UNL     1      -8.914  10.287  65.484  1.00  0.00    -0.173 A  
HETATM   23  C   UNL     1     -10.001   9.505  65.885  1.00  0.00    -0.342 A  
HETATM   24  C   UNL     1      -8.433  10.769  67.819  1.00  0.00    -0.120 A  
HETATM   25  C   UNL     1     -10.306   9.368  67.247  1.00  0.00    -0.325 A  
HETATM   26  C   UNL     1      -8.157  10.941  66.467  1.00  0.00    -0.154 A  
BRANCH  22  27
HETATM   27  O   UNL     1      -8.642  10.340  64.133  1.00  0.00    -0.174 OA 
BRANCH  27  28
HETATM   28  C   UNL     1      -9.792  10.691  63.350  1.00  0.00    -0.321 C  
BRANCH  28  29
HETATM   29  C   UNL     1     -10.162  12.175  63.427  1.00  0.00    -0.388 C  
BRANCH  29  30
HETATM   30  N   UNL     1     -11.632  12.355  63.484  1.00  0.00    -0.480 NA 
HETATM   31  C   UNL     1     -12.281  11.828  64.696  1.00  0.00     0.049 C  
HETATM   32  C   UNL     1     -12.041  12.661  65.957  1.00  0.00    -0.429 C  
HETATM   33  C   UNL     1     -12.340  14.140  65.732  1.00  0.00    -0.481 C  
HETATM   34  C   UNL     1     -11.696  14.657  64.450  1.00  0.00    -0.358 C  
HETATM   35  C   UNL     1     -12.026  13.751  63.264  1.00  0.00     0.149 C  
ENDBRANCH  29  30
ENDBRANCH  28  29
ENDBRANCH  27  28
ENDBRANCH  22  27
ENDBRANCH  20  21
ENDBRANCH  10  20
ENDBRANCH   6   9
ENDBRANCH   2   3
TORSDOF 8
ENDMDL
MODEL       64
REMARK 921   NORMALIZED FREE ENERGY PREDICTED BY IDOCK:   -5.63 KCAL/MOL
REMARK 922        TOTAL FREE ENERGY PREDICTED BY IDOCK:  -10.01 KCAL/MOL
REMARK 923 INTER-LIGAND FREE ENERGY PREDICTED BY IDOCK:   -8.14 KCAL/MOL
REMARK 924 INTRA-LIGAND FREE ENERGY PREDICTED BY IDOCK:   -1.87 KCAL/MOL
REMARK 927      BINDING AFFINITY PREDICTED BY RF-SCORE:    0.00 PKD
ROOT
HETATM    1  C   UNL     1     -13.577  15.810  72.898  1.00  0.00    -0.577 C  
HETATM    2  O   UNL     1     -13.685  15.275  71.584  1.00  0.00    -0.428 OA 
ENDROOT
BRANCH   2   3
HETATM    3  C   UNL     1     -13.276  13.984  71.411  1.00  0.00    -0.334 A  
HETATM    4  C   UNL     1     -13.612  12.897  72.214  1.00  0.00    -0.611 A  
HETATM    5  C   UNL     1     -13.092  11.621  71.943  1.00  0.00    -0.490 A  
HETATM    6  C   UNL     1     -12.233  11.398  70.857  1.00  0.00    -0.447 A  
HETATM    7  C   UNL     1     -12.439  13.774  70.319  1.00  0.00    -0.357 A  
HETATM    8  C   UNL     1     -11.926  12.498  70.039  1.00  0.00    -0.372 A  
BRANCH   6   9
HETATM    9  C   UNL     1     -11.632  10.059  70.627  1.00  0.00    -0.340 A  
HETATM   10  C   UNL     1     -10.537   9.667  69.864  1.00  0.00    -0.249 A  
HETATM   11  C   UNL     1     -10.354   8.224  69.813  1.00  0.00    -0.216 A  
HETATM   12  C   UNL     1      -9.446   6.000  69.284  1.00  0.00    -0.152 A  
HETATM   13  C   UNL     1     -11.275   7.583  70.645  1.00  0.00    -0.268 A  
HETATM   14  H   UNL     1      -9.631   3.544  69.869  1.00  0.00     0.000 HD 
HETATM   15  C   UNL     1      -9.429   7.390  69.125  1.00  0.00    -0.149 A  
HETATM   16  S   UNL     1     -12.384   8.687  71.335  1.00  0.00    -0.288 SA 
HETATM   17  C   UNL     1     -11.260   6.188  70.861  1.00  0.00    -0.365 A  
HETATM   18  C   UNL     1     -10.333   5.420  70.168  1.00  0.00    -0.290 A  
HETATM   19  O   UNL     1     -10.266   4.069  70.343  1.00  0.00    -0.021 OA 
BRANCH  10  20
HETATM   20  O   UNL     1      -9.714  10.618  69.336  1.00  0.00    -0.198 OA 
BRANCH  20  21
HETATM   21  C   UNL     1      -9.297  10.644  68.028  1.00  0.00    -0.147 A  
HETATM   22  C   UNL     1      -8.596  10.587  65.303  1.00  0.00    -0.177 A  
HETATM   23  C   UNL     1      -9.941  10.618  65.683  1.00  0.00    -0.327 A  
HETATM   24  C   UNL     1      -7.960  10.597  67.651  1.00  0.00    -0.106 A  
HETATM   25  C   UNL     1     -10.289  10.649  67.041  1.00  0.00    -0.280 A  
HETATM   26  C   UNL     1      -7.614  10.611  66.304  1.00  0.00    -0.137 A  
BRANCH  22  27
HETATM   27  O   UNL     1      -8.325  10.509  63.953  1.00  0.00    -0.161 OA 
BRANCH  27  28
HETATM   28  C   UNL     1      -8.679   9.238  63.389  1.00  0.00    -0.177 C  
BRANCH  28  29
HETATM   29  C   UNL     1      -7.640   8.141  63.637  1.00  0.00    -0.132 C  
BRANCH  29  30
HETATM   30  N   UNL     1      -8.283   6.895  64.116  1.00  0.00    -0.011 NA 
HETATM   31  C   UNL     1      -7.630   5.648  63.687  1.00  0.00    -0.081 C  
HETATM   32  C   UNL     1      -6.310   5.344  64.399  1.00  0.00    -0.026 C  
HETATM   33  C   UNL     1      -6.443   5.440  65.915  1.00  0.00    -0.040 C  
HETATM   34  C   UNL     1      -7.160   6.717  66.339  1.00  0.00    -0.067 C  
HETATM   35  C   UNL     1      -8.469   6.894  65.571  1.00  0.00    -0.116 C  
ENDBRANCH  29  30
ENDBRANCH  28  29
ENDBRANCH  27  28
ENDBRANCH  22  27
ENDBRANCH  20  21
ENDBRANCH  10  20
ENDBRANCH   6   9
ENDBRANCH   2   3
TORSDOF 8
ENDMDL
MODEL       65
REMARK 921   NORMALIZED FREE ENERGY PREDICTED BY IDOCK:   -5.61 KCAL/MOL
REMARK 922        TOTAL FREE ENERGY PREDICTED BY IDOCK:   -9.98 KCAL/MOL
REMARK 923 INTER-LIGAND FREE ENERGY PREDICTED BY IDOCK:   -7.76 KCAL/MOL
REMARK 924 INTRA-LIGAND FREE ENERGY PREDICTED BY IDOCK:   -2.23 KCAL/MOL
REMARK 927      BINDING AFFINITY PREDICTED BY RF-SCORE:    0.00 PKD
ROOT
HETATM    1  C   UNL     1      -9.139   2.761  67.156  1.00  0.00    -0.165 C  
HETATM    2  O   UNL     1      -9.062   3.655  66.052  1.00  0.00    -0.140 OA 
ENDROOT
BRANCH   2   3
HETATM    3  C   UNL     1      -9.419   4.952  66.285  1.00  0.00    -0.158 A  
HETATM    4  C   UNL     1     -10.637   5.392  66.800  1.00  0.00    -0.339 A  
HETATM    5  C   UNL     1     -10.890   6.764  66.959  1.00  0.00    -0.453 A  
HETATM    6  C   UNL     1      -9.931   7.729  66.620  1.00  0.00    -0.299 A  
HETATM    7  C   UNL     1      -8.451   5.897  65.961  1.00  0.00    -0.137 A  
HETATM    8  C   UNL     1      -8.696   7.268  66.129  1.00  0.00    -0.170 A  
BRANCH   6   9
HETATM    9  C   UNL     1     -10.240   9.177  66.724  1.00  0.00    -0.261 A  
HETATM   10  C   UNL     1     -10.959   9.894  67.677  1.00  0.00    -0.200 A  
HETATM   11  C   UNL     1     -11.129  11.299  67.337  1.00  0.00    -0.358 A  
HETATM   12  C   UNL     1     -11.796  13.664  67.441  1.00  0.00    -0.429 A  
HETATM   13  C   UNL     1     -10.425  11.611  66.171  1.00  0.00    -0.247 A  
HETATM   14  H   UNL     1     -11.453  15.916  66.336  1.00  0.00     0.000 HD 
HETATM   15  C   UNL     1     -11.825  12.368  67.967  1.00  0.00    -0.376 A  
HETATM   16  S   UNL     1      -9.716  10.224  65.467  1.00  0.00    -0.285 SA 
HETATM   17  C   UNL     1     -10.338  12.926  65.667  1.00  0.00    -0.295 A  
HETATM   18  C   UNL     1     -11.032  13.935  66.323  1.00  0.00    -0.298 A  
HETATM   19  O   UNL     1     -10.977  15.226  65.887  1.00  0.00    -0.334 OA 
BRANCH  10  20
HETATM   20  O   UNL     1     -11.339   9.276  68.832  1.00  0.00     0.106 OA 
BRANCH  20  21
HETATM   21  C   UNL     1     -10.534   9.130  69.935  1.00  0.00    -0.223 A  
HETATM   22  C   UNL     1      -8.745   8.766  72.077  1.00  0.00    -0.090 A  
HETATM   23  C   UNL     1      -8.273   9.187  70.831  1.00  0.00    -0.220 A  
HETATM   24  C   UNL     1     -11.001   8.694  71.169  1.00  0.00    -0.320 A  
HETATM   25  C   UNL     1      -9.166   9.371  69.765  1.00  0.00    -0.209 A  
HETATM   26  C   UNL     1     -10.123   8.554  72.238  1.00  0.00    -0.386 A  
BRANCH  22  27
HETATM   27  O   UNL     1      -7.808   8.559  73.067  1.00  0.00    -0.336 OA 
BRANCH  27  28
HETATM   28  C   UNL     1      -7.112   7.312  72.921  1.00  0.00    -0.068 C  
BRANCH  28  29
HETATM   29  C   UNL     1      -7.993   6.081  73.156  1.00  0.00    -0.108 C  
BRANCH  29  30
HETATM   30  N   UNL     1      -7.613   4.973  72.250  1.00  0.00    -0.092 NA 
HETATM   31  C   UNL     1      -8.426   3.752  72.378  1.00  0.00    -0.090 C  
HETATM   32  C   UNL     1      -9.836   3.864  71.794  1.00  0.00    -0.249 C  
HETATM   33  C   UNL     1      -9.823   4.408  70.369  1.00  0.00    -0.286 C  
HETATM   34  C   UNL     1      -8.942   5.647  70.246  1.00  0.00    -0.152 C  
HETATM   35  C   UNL     1      -7.559   5.400  70.848  1.00  0.00    -0.089 C  
ENDBRANCH  29  30
ENDBRANCH  28  29
ENDBRANCH  27  28
ENDBRANCH  22  27
ENDBRANCH  20  21
ENDBRANCH  10  20
ENDBRANCH   6   9
ENDBRANCH   2   3
TORSDOF 8
ENDMDL
MODEL       66
REMARK 921   NORMALIZED FREE ENERGY PREDICTED BY IDOCK:   -5.56 KCAL/MOL
REMARK 922        TOTAL FREE ENERGY PREDICTED BY IDOCK:   -9.91 KCAL/MOL
REMARK 923 INTER-LIGAND FREE ENERGY PREDICTED BY IDOCK:   -8.39 KCAL/MOL
REMARK 924 INTRA-LIGAND FREE ENERGY PREDICTED BY IDOCK:   -1.52 KCAL/MOL
REMARK 927      BINDING AFFINITY PREDICTED BY RF-SCORE:    0.00 PKD
ROOT
HETATM    1  C   UNL     1      -6.289  15.270  69.669  1.00  0.00    -0.154 C  
HETATM    2  O   UNL     1      -5.524  14.209  69.108  1.00  0.00    -0.080 OA 
ENDROOT
BRANCH   2   3
HETATM    3  C   UNL     1      -6.194  13.055  68.821  1.00  0.00    -0.079 A  
HETATM    4  C   UNL     1      -6.481  12.024  69.712  1.00  0.00    -0.066 A  
HETATM    5  C   UNL     1      -7.151  10.869  69.277  1.00  0.00    -0.124 A  
HETATM    6  C   UNL     1      -7.560  10.721  67.944  1.00  0.00    -0.091 A  
HETATM    7  C   UNL     1      -6.610  12.930  67.499  1.00  0.00    -0.160 A  
HETATM    8  C   UNL     1      -7.290  11.782  67.063  1.00  0.00    -0.133 A  
BRANCH   6   9
HETATM    9  C   UNL     1      -8.201   9.463  67.481  1.00  0.00    -0.117 A  
HETATM   10  C   UNL     1      -9.524   9.034  67.541  1.00  0.00    -0.137 A  
HETATM   11  C   UNL     1      -9.710   7.667  67.076  1.00  0.00    -0.255 A  
HETATM   12  C   UNL     1     -10.761   5.527  66.471  1.00  0.00    -0.309 A  
HETATM   13  C   UNL     1      -8.512   7.152  66.575  1.00  0.00    -0.125 A  
HETATM   14  H   UNL     1     -10.331   3.313  65.322  1.00  0.00     0.000 HD 
HETATM   15  C   UNL     1     -10.847   6.814  67.013  1.00  0.00    -0.453 A  
HETATM   16  S   UNL     1      -7.211   8.239  66.795  1.00  0.00    -0.083 SA 
HETATM   17  C   UNL     1      -8.429   5.880  65.969  1.00  0.00    -0.137 A  
HETATM   18  C   UNL     1      -9.569   5.088  65.929  1.00  0.00    -0.164 A  
HETATM   19  O   UNL     1      -9.551   3.854  65.349  1.00  0.00    -0.165 OA 
BRANCH  10  20
HETATM   20  O   UNL     1     -10.496   9.913  67.918  1.00  0.00    -0.204 OA 
BRANCH  20  21
HETATM   21  C   UNL     1     -10.701  11.140  67.336  1.00  0.00    -0.250 A  
HETATM   22  C   UNL     1     -11.251  13.691  66.282  1.00  0.00    -0.305 A  
HETATM   23  C   UNL     1     -11.274  13.481  67.664  1.00  0.00    -0.304 A  
HETATM   24  C   UNL     1     -10.695  11.345  65.962  1.00  0.00    -0.318 A  
HETATM   25  C   UNL     1     -10.997  12.210  68.188  1.00  0.00    -0.271 A  
HETATM   26  C   UNL     1     -10.926  12.614  65.443  1.00  0.00    -0.320 A  
BRANCH  22  27
HETATM   27  O   UNL     1     -11.580  14.952  65.832  1.00  0.00    -0.324 OA 
BRANCH  27  28
HETATM   28  C   UNL     1     -10.448  15.672  65.322  1.00  0.00    -0.412 C  
BRANCH  28  29
HETATM   29  C   UNL     1      -9.704  16.487  66.384  1.00  0.00    -0.285 C  
BRANCH  29  30
HETATM   30  N   UNL     1      -9.412  17.855  65.897  1.00  0.00    -0.520 NA 
HETATM   31  C   UNL     1     -10.513  18.821  66.044  1.00  0.00    -0.432 C  
HETATM   32  C   UNL     1     -10.760  19.289  67.480  1.00  0.00    -0.571 C  
HETATM   33  C   UNL     1      -9.476  19.762  68.156  1.00  0.00    -0.454 C  
HETATM   34  C   UNL     1      -8.336  18.770  67.956  1.00  0.00    -0.315 C  
HETATM   35  C   UNL     1      -8.181  18.398  66.482  1.00  0.00    -0.269 C  
ENDBRANCH  29  30
ENDBRANCH  28  29
ENDBRANCH  27  28
ENDBRANCH  22  27
ENDBRANCH  20  21
ENDBRANCH  10  20
ENDBRANCH   6   9
ENDBRANCH   2   3
TORSDOF 8
ENDMDL
MODEL       67
REMARK 921   NORMALIZED FREE ENERGY PREDICTED BY IDOCK:   -5.55 KCAL/MOL
REMARK 922        TOTAL FREE ENERGY PREDICTED BY IDOCK:   -9.90 KCAL/MOL
REMARK 923 INTER-LIGAND FREE ENERGY PREDICTED BY IDOCK:   -7.92 KCAL/MOL
REMARK 924 INTRA-LIGAND FREE ENERGY PREDICTED BY IDOCK:   -1.98 KCAL/MOL
REMARK 927      BINDING AFFINITY PREDICTED BY RF-SCORE:    0.00 PKD
ROOT
HETATM    1  C   UNL     1     -10.449  16.934  68.335  1.00  0.00    -0.355 C  
HETATM    2  O   UNL     1     -11.570  16.090  68.097  1.00  0.00    -0.308 OA 
ENDROOT
BRANCH   2   3
HETATM    3  C   UNL     1     -11.302  14.787  67.790  1.00  0.00    -0.330 A  
HETATM    4  C   UNL     1     -12.030  13.979  66.919  1.00  0.00    -0.479 A  
HETATM    5  C   UNL     1     -11.666  12.638  66.717  1.00  0.00    -0.460 A  
HETATM    6  C   UNL     1     -10.561  12.074  67.370  1.00  0.00    -0.253 A  
HETATM    7  C   UNL     1     -10.193  14.247  68.431  1.00  0.00    -0.245 A  
HETATM    8  C   UNL     1      -9.819  12.910  68.223  1.00  0.00    -0.228 A  
BRANCH   6   9
HETATM    9  C   UNL     1     -10.232  10.635  67.204  1.00  0.00    -0.216 A  
HETATM   10  C   UNL     1     -10.392   9.555  68.067  1.00  0.00    -0.214 A  
HETATM   11  C   UNL     1      -9.823   8.317  67.555  1.00  0.00    -0.231 A  
HETATM   12  C   UNL     1      -9.134   5.963  67.367  1.00  0.00    -0.110 A  
HETATM   13  C   UNL     1      -9.344   8.498  66.254  1.00  0.00    -0.224 A  
HETATM   14  H   UNL     1      -8.190   4.250  65.759  1.00  0.00     0.000 HD 
HETATM   15  C   UNL     1      -9.701   7.010  68.102  1.00  0.00    -0.139 A  
HETATM   16  S   UNL     1      -9.465  10.128  65.754  1.00  0.00    -0.227 SA 
HETATM   17  C   UNL     1      -8.828   7.436  65.482  1.00  0.00     0.002 A  
HETATM   18  C   UNL     1      -8.735   6.177  66.062  1.00  0.00    -0.153 A  
HETATM   19  O   UNL     1      -8.254   5.111  65.361  1.00  0.00    -0.114 OA 
BRANCH  10  20
HETATM   20  O   UNL     1     -11.113   9.715  69.213  1.00  0.00    -0.208 OA 
BRANCH  20  21
HETATM   21  C   UNL     1     -10.837   9.080  70.399  1.00  0.00    -0.246 A  
HETATM   22  C   UNL     1     -10.454   7.806  72.879  1.00  0.00    -0.350 A  
HETATM   23  C   UNL     1     -11.666   7.666  72.196  1.00  0.00    -0.355 A  
HETATM   24  C   UNL     1      -9.638   9.232  71.086  1.00  0.00    -0.305 A  
HETATM   25  C   UNL     1     -11.854   8.299  70.959  1.00  0.00    -0.276 A  
HETATM   26  C   UNL     1      -9.435   8.569  72.291  1.00  0.00    -0.365 A  
BRANCH  22  27
HETATM   27  O   UNL     1     -10.354   7.197  74.112  1.00  0.00    -0.307 OA 
BRANCH  27  28
HETATM   28  C   UNL     1      -9.153   6.423  74.252  1.00  0.00    -0.166 C  
BRANCH  28  29
HETATM   29  C   UNL     1      -9.350   4.925  74.002  1.00  0.00    -0.121 C  
BRANCH  29  30
HETATM   30  N   UNL     1      -8.329   4.403  73.064  1.00  0.00    -0.095 NA 
HETATM   31  C   UNL     1      -8.355   2.945  72.858  1.00  0.00    -0.075 C  
HETATM   32  C   UNL     1      -9.523   2.445  72.005  1.00  0.00    -0.184 C  
HETATM   33  C   UNL     1      -9.648   3.220  70.697  1.00  0.00    -0.223 C  
HETATM   34  C   UNL     1      -9.576   4.726  70.925  1.00  0.00    -0.245 C  
HETATM   35  C   UNL     1      -8.359   5.097  71.772  1.00  0.00    -0.118 C  
ENDBRANCH  29  30
ENDBRANCH  28  29
ENDBRANCH  27  28
ENDBRANCH  22  27
ENDBRANCH  20  21
ENDBRANCH  10  20
ENDBRANCH   6   9
ENDBRANCH   2   3
TORSDOF 8
ENDMDL
MODEL       68
REMARK 921   NORMALIZED FREE ENERGY PREDICTED BY IDOCK:   -5.54 KCAL/MOL
REMARK 922        TOTAL FREE ENERGY PREDICTED BY IDOCK:   -9.88 KCAL/MOL
REMARK 923 INTER-LIGAND FREE ENERGY PREDICTED BY IDOCK:   -8.02 KCAL/MOL
REMARK 924 INTRA-LIGAND FREE ENERGY PREDICTED BY IDOCK:   -1.87 KCAL/MOL
REMARK 927      BINDING AFFINITY PREDICTED BY RF-SCORE:    0.00 PKD
ROOT
HETATM    1  C   UNL     1      -7.009  21.032  67.192  1.00  0.00    -0.345 C  
HETATM    2  O   UNL     1      -6.515  20.298  68.307  1.00  0.00    -0.277 OA 
ENDROOT
BRANCH   2   3
HETATM    3  C   UNL     1      -6.525  18.937  68.199  1.00  0.00    -0.216 A  
HETATM    4  C   UNL     1      -6.697  18.203  67.028  1.00  0.00    -0.206 A  
HETATM    5  C   UNL     1      -6.721  16.800  67.062  1.00  0.00    -0.241 A  
HETATM    6  C   UNL     1      -6.563  16.095  68.264  1.00  0.00    -0.127 A  
HETATM    7  C   UNL     1      -6.349  18.252  69.397  1.00  0.00    -0.256 A  
HETATM    8  C   UNL     1      -6.361  16.849  69.433  1.00  0.00    -0.231 A  
BRANCH   6   9
HETATM    9  C   UNL     1      -6.666  14.614  68.295  1.00  0.00    -0.115 A  
HETATM   10  C   UNL     1      -7.756  13.776  68.508  1.00  0.00    -0.138 A  
HETATM   11  C   UNL     1      -7.399  12.367  68.577  1.00  0.00    -0.105 A  
HETATM   12  C   UNL     1      -7.560   9.923  68.800  1.00  0.00    -0.081 A  
HETATM   13  C   UNL     1      -6.041  12.191  68.298  1.00  0.00    -0.052 A  
HETATM   14  H   UNL     1      -6.248   7.773  68.542  1.00  0.00     0.000 HD 
HETATM   15  C   UNL     1      -8.155  11.189  68.832  1.00  0.00    -0.115 A  
HETATM   16  S   UNL     1      -5.234  13.686  68.104  1.00  0.00    -0.110 SA 
HETATM   17  C   UNL     1      -5.446  10.915  68.201  1.00  0.00    -0.039 A  
HETATM   18  C   UNL     1      -6.229   9.797  68.456  1.00  0.00    -0.046 A  
HETATM   19  O   UNL     1      -5.711   8.538  68.368  1.00  0.00    -0.037 OA 
BRANCH  10  20
HETATM   20  O   UNL     1      -9.013  14.307  68.538  1.00  0.00    -0.188 OA 
BRANCH  20  21
HETATM   21  C   UNL     1      -9.935  14.175  67.529  1.00  0.00    -0.236 A  
HETATM   22  C   UNL     1     -11.848  13.720  65.516  1.00  0.00    -0.363 A  
HETATM   23  C   UNL     1     -11.975  13.097  66.761  1.00  0.00    -0.434 A  
HETATM   24  C   UNL     1      -9.799  14.781  66.286  1.00  0.00    -0.316 A  
HETATM   25  C   UNL     1     -11.023  13.327  67.764  1.00  0.00    -0.278 A  
HETATM   26  C   UNL     1     -10.767  14.588  65.306  1.00  0.00    -0.390 A  
BRANCH  22  27
HETATM   27  O   UNL     1     -12.793  13.412  64.560  1.00  0.00    -0.653 OA 
BRANCH  27  28
HETATM   28  C   UNL     1     -12.217  12.862  63.367  1.00  0.00    -0.490 C  
BRANCH  28  29
HETATM   29  C   UNL     1     -11.497  11.528  63.586  1.00  0.00    -0.278 C  
BRANCH  29  30
HETATM   30  N   UNL     1     -10.040  11.731  63.761  1.00  0.00    -0.357 NA 
HETATM   31  C   UNL     1      -9.478  11.186  65.008  1.00  0.00    -0.227 C  
HETATM   32  C   UNL     1      -9.359   9.660  65.038  1.00  0.00    -0.319 C  
HETATM   33  C   UNL     1      -8.658   9.117  63.797  1.00  0.00    -0.185 C  
HETATM   34  C   UNL     1      -9.224   9.725  62.518  1.00  0.00    -0.281 C  
HETATM   35  C   UNL     1      -9.273  11.250  62.608  1.00  0.00    -0.289 C  
ENDBRANCH  29  30
ENDBRANCH  28  29
ENDBRANCH  27  28
ENDBRANCH  22  27
ENDBRANCH  20  21
ENDBRANCH  10  20
ENDBRANCH   6   9
ENDBRANCH   2   3
TORSDOF 8
ENDMDL
MODEL       69
REMARK 921   NORMALIZED FREE ENERGY PREDICTED BY IDOCK:   -5.54 KCAL/MOL
REMARK 922        TOTAL FREE ENERGY PREDICTED BY IDOCK:   -9.88 KCAL/MOL
REMARK 923 INTER-LIGAND FREE ENERGY PREDICTED BY IDOCK:   -8.52 KCAL/MOL
REMARK 924 INTRA-LIGAND FREE ENERGY PREDICTED BY IDOCK:   -1.36 KCAL/MOL
REMARK 927      BINDING AFFINITY PREDICTED BY RF-SCORE:    0.00 PKD
ROOT
HETATM    1  C   UNL     1     -13.340   9.037  72.311  1.00  0.00    -0.467 C  
HETATM    2  O   UNL     1     -12.026   8.546  72.546  1.00  0.00    -0.389 OA 
ENDROOT
BRANCH   2   3
HETATM    3  C   UNL     1     -11.354   8.046  71.468  1.00  0.00    -0.259 A  
HETATM    4  C   UNL     1     -10.128   8.494  70.980  1.00  0.00    -0.257 A  
HETATM    5  C   UNL     1      -9.560   7.911  69.835  1.00  0.00    -0.168 A  
HETATM    6  C   UNL     1     -10.196   6.862  69.157  1.00  0.00    -0.196 A  
HETATM    7  C   UNL     1     -11.988   6.994  70.816  1.00  0.00    -0.392 A  
HETATM    8  C   UNL     1     -11.418   6.401  69.678  1.00  0.00    -0.446 A  
BRANCH   6   9
HETATM    9  C   UNL     1      -9.620   6.306  67.906  1.00  0.00    -0.118 A  
HETATM   10  C   UNL     1      -8.984   6.929  66.836  1.00  0.00    -0.122 A  
HETATM   11  C   UNL     1      -8.674   6.022  65.740  1.00  0.00    -0.155 A  
HETATM   12  C   UNL     1      -7.866   5.147  63.588  1.00  0.00    -0.088 A  
HETATM   13  C   UNL     1      -9.000   4.708  66.084  1.00  0.00    -0.121 A  
HETATM   14  H   UNL     1      -7.449   3.009  62.299  1.00  0.00     0.000 HD 
HETATM   15  C   UNL     1      -8.096   6.221  64.456  1.00  0.00    -0.102 A  
HETATM   16  S   UNL     1      -9.769   4.622  67.608  1.00  0.00    -0.143 SA 
HETATM   17  C   UNL     1      -8.714   3.611  65.243  1.00  0.00    -0.117 A  
HETATM   18  C   UNL     1      -8.145   3.859  64.000  1.00  0.00    -0.090 A  
HETATM   19  O   UNL     1      -7.838   2.839  63.149  1.00  0.00    -0.066 OA 
BRANCH  10  20
HETATM   20  O   UNL     1      -8.636   8.244  66.938  1.00  0.00    -0.116 OA 
BRANCH  20  21
HETATM   21  C   UNL     1      -9.296   9.272  66.311  1.00  0.00    -0.200 A  
HETATM   22  C   UNL     1     -10.799  11.347  65.147  1.00  0.00    -0.238 A  
HETATM   23  C   UNL     1     -10.892  11.096  66.519  1.00  0.00    -0.302 A  
HETATM   24  C   UNL     1      -9.216   9.511  64.945  1.00  0.00    -0.284 A  
HETATM   25  C   UNL     1     -10.140  10.063  67.099  1.00  0.00    -0.265 A  
HETATM   26  C   UNL     1      -9.927  10.563  64.377  1.00  0.00    -0.410 A  
BRANCH  22  27
HETATM   27  O   UNL     1     -11.601  12.346  64.636  1.00  0.00    -0.320 OA 
BRANCH  27  28
HETATM   28  C   UNL     1     -12.141  13.200  65.655  1.00  0.00    -0.449 C  
BRANCH  28  29
HETATM   29  C   UNL     1     -11.679  14.656  65.551  1.00  0.00    -0.316 C  
BRANCH  29  30
HETATM   30  N   UNL     1     -10.409  14.865  66.286  1.00  0.00    -0.283 NA 
HETATM   31  C   UNL     1      -9.715  16.129  65.988  1.00  0.00    -0.344 C  
HETATM   32  C   UNL     1     -10.372  17.372  66.591  1.00  0.00    -0.306 C  
HETATM   33  C   UNL     1     -10.659  17.202  68.080  1.00  0.00    -0.380 C  
HETATM   34  C   UNL     1     -11.340  15.869  68.374  1.00  0.00    -0.361 C  
HETATM   35  C   UNL     1     -10.578  14.709  67.735  1.00  0.00    -0.251 C  
ENDBRANCH  29  30
ENDBRANCH  28  29
ENDBRANCH  27  28
ENDBRANCH  22  27
ENDBRANCH  20  21
ENDBRANCH  10  20
ENDBRANCH   6   9
ENDBRANCH   2   3
TORSDOF 8
ENDMDL
MODEL       70
REMARK 921   NORMALIZED FREE ENERGY PREDICTED BY IDOCK:   -5.53 KCAL/MOL
REMARK 922        TOTAL FREE ENERGY PREDICTED BY IDOCK:   -9.87 KCAL/MOL
REMARK 923 INTER-LIGAND FREE ENERGY PREDICTED BY IDOCK:   -8.99 KCAL/MOL
REMARK 924 INTRA-LIGAND FREE ENERGY PREDICTED BY IDOCK:   -0.87 KCAL/MOL
REMARK 927      BINDING AFFINITY PREDICTED BY RF-SCORE:    0.00 PKD
ROOT
HETATM    1  C   UNL     1     -12.809  11.690  63.401  1.00  0.00    -0.023 C  
HETATM    2  O   UNL     1     -12.830  13.107  63.266  1.00  0.00    -0.567 OA 
ENDROOT
BRANCH   2   3
HETATM    3  C   UNL     1     -11.886  13.804  63.965  1.00  0.00    -0.370 A  
HETATM    4  C   UNL     1     -10.657  13.317  64.403  1.00  0.00    -0.438 A  
HETATM    5  C   UNL     1      -9.789  14.134  65.146  1.00  0.00    -0.140 A  
HETATM    6  C   UNL     1     -10.123  15.459  65.459  1.00  0.00    -0.405 A  
HETATM    7  C   UNL     1     -12.223  15.123  64.253  1.00  0.00    -0.257 A  
HETATM    8  C   UNL     1     -11.354  15.946  64.985  1.00  0.00    -0.195 A  
BRANCH   6   9
HETATM    9  C   UNL     1      -9.229  16.287  66.309  1.00  0.00    -0.328 A  
HETATM   10  C   UNL     1      -8.462  15.958  67.422  1.00  0.00    -0.175 A  
HETATM   11  C   UNL     1      -7.815  17.107  68.039  1.00  0.00    -0.195 A  
HETATM   12  C   UNL     1      -6.464  18.493  69.558  1.00  0.00    -0.222 A  
HETATM   13  C   UNL     1      -8.040  18.261  67.284  1.00  0.00    -0.229 A  
HETATM   14  H   UNL     1      -5.519  20.820  69.876  1.00  0.00     0.000 HD 
HETATM   15  C   UNL     1      -7.006  17.253  69.200  1.00  0.00    -0.215 A  
HETATM   16  S   UNL     1      -9.100  17.967  65.975  1.00  0.00     0.131 SA 
HETATM   17  C   UNL     1      -7.447  19.502  67.601  1.00  0.00    -0.291 A  
HETATM   18  C   UNL     1      -6.662  19.589  68.743  1.00  0.00    -0.307 A  
HETATM   19  O   UNL     1      -6.056  20.760  69.094  1.00  0.00    -0.333 OA 
BRANCH  10  20
HETATM   20  O   UNL     1      -8.310  14.647  67.767  1.00  0.00    -0.144 OA 
BRANCH  20  21
HETATM   21  C   UNL     1      -9.314  13.854  68.265  1.00  0.00    -0.209 A  
HETATM   22  C   UNL     1     -11.343  12.111  69.138  1.00  0.00    -0.276 A  
HETATM   23  C   UNL     1     -10.197  11.603  68.521  1.00  0.00    -0.216 A  
HETATM   24  C   UNL     1     -10.461  14.361  68.863  1.00  0.00    -0.246 A  
HETATM   25  C   UNL     1      -9.185  12.472  68.090  1.00  0.00    -0.209 A  
HETATM   26  C   UNL     1     -11.445  13.497  69.331  1.00  0.00    -0.340 A  
BRANCH  22  27
HETATM   27  O   UNL     1     -12.320  11.205  69.494  1.00  0.00    -0.301 OA 
BRANCH  27  28
HETATM   28  C   UNL     1     -12.407  11.013  70.914  1.00  0.00    -0.402 C  
BRANCH  28  29
HETATM   29  C   UNL     1     -12.866   9.610  71.322  1.00  0.00    -0.350 C  
BRANCH  29  30
HETATM   30  N   UNL     1     -11.807   8.901  72.078  1.00  0.00    -0.364 NA 
HETATM   31  C   UNL     1     -12.102   7.495  72.400  1.00  0.00    -0.176 C  
HETATM   32  C   UNL     1     -12.014   6.539  71.207  1.00  0.00    -0.364 C  
HETATM   33  C   UNL     1     -10.704   6.700  70.442  1.00  0.00    -0.297 C  
HETATM   34  C   UNL     1     -10.394   8.165  70.156  1.00  0.00    -0.215 C  
HETATM   35  C   UNL     1     -10.498   9.008  71.426  1.00  0.00    -0.324 C  
ENDBRANCH  29  30
ENDBRANCH  28  29
ENDBRANCH  27  28
ENDBRANCH  22  27
ENDBRANCH  20  21
ENDBRANCH  10  20
ENDBRANCH   6   9
ENDBRANCH   2   3
TORSDOF 8
ENDMDL
MODEL       71
REMARK 921   NORMALIZED FREE ENERGY PREDICTED BY IDOCK:   -5.51 KCAL/MOL
REMARK 922        TOTAL FREE ENERGY PREDICTED BY IDOCK:   -9.83 KCAL/MOL
REMARK 923 INTER-LIGAND FREE ENERGY PREDICTED BY IDOCK:   -7.77 KCAL/MOL
REMARK 924 INTRA-LIGAND FREE ENERGY PREDICTED BY IDOCK:   -2.06 KCAL/MOL
REMARK 927      BINDING AFFINITY PREDICTED BY RF-SCORE:    0.00 PKD
ROOT
HETATM    1  C   UNL     1      -7.535   6.647  65.950  1.00  0.00    -0.081 C  
HETATM    2  O   UNL     1      -8.036   7.874  65.432  1.00  0.00    -0.115 OA 
ENDROOT
BRANCH   2   3
HETATM    3  C   UNL     1      -8.632   8.720  66.323  1.00  0.00    -0.131 A  
HETATM    4  C   UNL     1      -7.992   9.450  67.322  1.00  0.00    -0.106 A  
HETATM    5  C   UNL     1      -8.731  10.260  68.199  1.00  0.00    -0.123 A  
HETATM    6  C   UNL     1     -10.125  10.371  68.092  1.00  0.00    -0.179 A  
HETATM    7  C   UNL     1     -10.012   8.833  66.194  1.00  0.00    -0.244 A  
HETATM    8  C   UNL     1     -10.753   9.652  67.060  1.00  0.00    -0.225 A  
BRANCH   6   9
HETATM    9  C   UNL     1     -10.900  11.173  69.072  1.00  0.00    -0.231 A  
HETATM   10  C   UNL     1     -11.769  10.786  70.088  1.00  0.00    -0.339 A  
HETATM   11  C   UNL     1     -12.422  11.907  70.749  1.00  0.00    -0.384 A  
HETATM   12  C   UNL     1     -13.843  13.218  72.269  1.00  0.00    -0.637 A  
HETATM   13  C   UNL     1     -11.925  13.119  70.264  1.00  0.00    -0.292 A  
HETATM   14  H   UNL     1     -14.339  15.574  73.051  1.00  0.00     0.000 HD 
HETATM   15  C   UNL     1     -13.405  11.985  71.775  1.00  0.00    -0.338 A  
HETATM   16  S   UNL     1     -10.825  12.886  68.976  1.00  0.00    -0.083 SA 
HETATM   17  C   UNL     1     -12.314  14.366  70.800  1.00  0.00    -0.417 A  
HETATM   18  C   UNL     1     -13.274  14.386  71.803  1.00  0.00    -0.358 A  
HETATM   19  O   UNL     1     -13.682  15.561  72.365  1.00  0.00    -0.477 OA 
BRANCH  10  20
HETATM   20  O   UNL     1     -11.858   9.468  70.427  1.00  0.00    -0.228 OA 
BRANCH  20  21
HETATM   21  C   UNL     1     -10.780   8.661  70.697  1.00  0.00    -0.222 A  
HETATM   22  C   UNL     1      -8.470   7.169  71.292  1.00  0.00    -0.113 A  
HETATM   23  C   UNL     1      -8.761   8.331  72.012  1.00  0.00    -0.243 A  
HETATM   24  C   UNL     1     -10.482   7.515  69.971  1.00  0.00    -0.231 A  
HETATM   25  C   UNL     1      -9.914   9.073  71.716  1.00  0.00    -0.359 A  
HETATM   26  C   UNL     1      -9.362   6.756  70.292  1.00  0.00    -0.159 A  
BRANCH  22  27
HETATM   27  O   UNL     1      -7.296   6.515  71.602  1.00  0.00    -0.084 OA 
BRANCH  27  28
HETATM   28  C   UNL     1      -7.285   6.000  72.942  1.00  0.00    -0.093 C  
BRANCH  28  29
HETATM   29  C   UNL     1      -7.920   4.614  73.077  1.00  0.00    -0.100 C  
BRANCH  29  30
HETATM   30  N   UNL     1      -8.823   4.553  74.250  1.00  0.00    -0.109 NA 
HETATM   31  C   UNL     1      -9.813   5.639  74.335  1.00  0.00    -0.221 C  
HETATM   32  C   UNL     1     -10.964   5.528  73.332  1.00  0.00    -0.324 C  
HETATM   33  C   UNL     1     -11.611   4.147  73.355  1.00  0.00    -0.162 C  
HETATM   34  C   UNL     1     -10.568   3.035  73.311  1.00  0.00    -0.269 C  
HETATM   35  C   UNL     1      -9.487   3.251  74.369  1.00  0.00    -0.095 C  
ENDBRANCH  29  30
ENDBRANCH  28  29
ENDBRANCH  27  28
ENDBRANCH  22  27
ENDBRANCH  20  21
ENDBRANCH  10  20
ENDBRANCH   6   9
ENDBRANCH   2   3
TORSDOF 8
ENDMDL
MODEL       72
REMARK 921   NORMALIZED FREE ENERGY PREDICTED BY IDOCK:   -5.50 KCAL/MOL
REMARK 922        TOTAL FREE ENERGY PREDICTED BY IDOCK:   -9.82 KCAL/MOL
REMARK 923 INTER-LIGAND FREE ENERGY PREDICTED BY IDOCK:   -7.74 KCAL/MOL
REMARK 924 INTRA-LIGAND FREE ENERGY PREDICTED BY IDOCK:   -2.08 KCAL/MOL
REMARK 927      BINDING AFFINITY PREDICTED BY RF-SCORE:    0.00 PKD
ROOT
HETATM    1  C   UNL     1      -9.031   8.175  73.742  1.00  0.00    -0.150 C  
HETATM    2  O   UNL     1     -10.328   8.231  73.159  1.00  0.00    -0.207 OA 
ENDROOT
BRANCH   2   3
HETATM    3  C   UNL     1     -10.438   8.889  71.968  1.00  0.00    -0.313 A  
HETATM    4  C   UNL     1      -9.388   9.388  71.201  1.00  0.00    -0.143 A  
HETATM    5  C   UNL     1      -9.643  10.078  70.005  1.00  0.00    -0.205 A  
HETATM    6  C   UNL     1     -10.950  10.277  69.540  1.00  0.00    -0.300 A  
HETATM    7  C   UNL     1     -11.740   9.063  71.511  1.00  0.00    -0.415 A  
HETATM    8  C   UNL     1     -11.998   9.743  70.310  1.00  0.00    -0.156 A  
BRANCH   6   9
HETATM    9  C   UNL     1     -11.208  11.074  68.313  1.00  0.00    -0.277 A  
HETATM   10  C   UNL     1     -11.158  10.723  66.967  1.00  0.00    -0.174 A  
HETATM   11  C   UNL     1     -11.366  11.848  66.068  1.00  0.00    -0.375 A  
HETATM   12  C   UNL     1     -11.623  13.188  64.022  1.00  0.00    -0.481 A  
HETATM   13  C   UNL     1     -11.677  13.003  66.791  1.00  0.00    -0.382 A  
HETATM   14  H   UNL     1     -12.297  15.474  63.168  1.00  0.00     0.000 HD 
HETATM   15  C   UNL     1     -11.343  11.970  64.651  1.00  0.00    -0.377 A  
HETATM   16  S   UNL     1     -11.579  12.742  68.478  1.00  0.00    -0.342 SA 
HETATM   17  C   UNL     1     -12.022  14.220  66.165  1.00  0.00    -0.422 A  
HETATM   18  C   UNL     1     -11.988  14.284  64.778  1.00  0.00    -0.440 A  
HETATM   19  O   UNL     1     -12.320  15.431  64.117  1.00  0.00    -0.619 OA 
BRANCH  10  20
HETATM   20  O   UNL     1     -11.023   9.410  66.623  1.00  0.00     0.022 OA 
BRANCH  20  21
HETATM   21  C   UNL     1      -9.920   8.643  66.905  1.00  0.00    -0.260 A  
HETATM   22  C   UNL     1      -7.748   7.013  67.646  1.00  0.00    -0.112 A  
HETATM   23  C   UNL     1      -9.058   6.608  67.921  1.00  0.00    -0.114 A  
HETATM   24  C   UNL     1      -8.618   9.053  66.646  1.00  0.00    -0.134 A  
HETATM   25  C   UNL     1     -10.139   7.420  67.549  1.00  0.00    -0.250 A  
HETATM   26  C   UNL     1      -7.547   8.229  66.975  1.00  0.00    -0.092 A  
BRANCH  22  27
HETATM   27  O   UNL     1      -6.731   6.190  68.081  1.00  0.00    -0.059 OA 
BRANCH  27  28
HETATM   28  C   UNL     1      -7.215   4.963  68.646  1.00  0.00    -0.058 C  
BRANCH  28  29
HETATM   29  C   UNL     1      -7.100   4.896  70.171  1.00  0.00    -0.050 C  
BRANCH  29  30
HETATM   30  N   UNL     1      -7.855   3.741  70.712  1.00  0.00    -0.050 NA 
HETATM   31  C   UNL     1      -7.760   3.559  72.170  1.00  0.00    -0.059 C  
HETATM   32  C   UNL     1      -8.554   4.577  72.991  1.00  0.00    -0.105 C  
HETATM   33  C   UNL     1      -9.998   4.695  72.512  1.00  0.00    -0.220 C  
HETATM   34  C   UNL     1     -10.079   4.840  70.996  1.00  0.00    -0.269 C  
HETATM   35  C   UNL     1      -9.261   3.757  70.294  1.00  0.00    -0.149 C  
ENDBRANCH  29  30
ENDBRANCH  28  29
ENDBRANCH  27  28
ENDBRANCH  22  27
ENDBRANCH  20  21
ENDBRANCH  10  20
ENDBRANCH   6   9
ENDBRANCH   2   3
TORSDOF 8
ENDMDL
MODEL       73
REMARK 921   NORMALIZED FREE ENERGY PREDICTED BY IDOCK:   -5.44 KCAL/MOL
REMARK 922        TOTAL FREE ENERGY PREDICTED BY IDOCK:   -9.73 KCAL/MOL
REMARK 923 INTER-LIGAND FREE ENERGY PREDICTED BY IDOCK:   -8.10 KCAL/MOL
REMARK 924 INTRA-LIGAND FREE ENERGY PREDICTED BY IDOCK:   -1.63 KCAL/MOL
REMARK 927      BINDING AFFINITY PREDICTED BY RF-SCORE:    0.00 PKD
ROOT
HETATM    1  C   UNL     1      -8.534   3.933  74.259  1.00  0.00    -0.096 C  
HETATM    2  O   UNL     1      -9.421   3.750  73.161  1.00  0.00    -0.107 OA 
ENDROOT
BRANCH   2   3
HETATM    3  C   UNL     1      -9.080   4.358  71.988  1.00  0.00    -0.125 A  
HETATM    4  C   UNL     1      -7.803   4.767  71.611  1.00  0.00    -0.098 A  
HETATM    5  C   UNL     1      -7.594   5.415  70.383  1.00  0.00    -0.076 A  
HETATM    6  C   UNL     1      -8.653   5.660  69.497  1.00  0.00    -0.110 A  
HETATM    7  C   UNL     1     -10.138   4.579  71.111  1.00  0.00    -0.218 A  
HETATM    8  C   UNL     1      -9.931   5.216  69.878  1.00  0.00    -0.316 A  
BRANCH   6   9
HETATM    9  C   UNL     1      -8.430   6.413  68.236  1.00  0.00    -0.115 A  
HETATM   10  C   UNL     1      -8.313   7.778  67.993  1.00  0.00    -0.124 A  
HETATM   11  C   UNL     1      -8.218   8.109  66.579  1.00  0.00    -0.107 A  
HETATM   12  C   UNL     1      -8.017   9.383  64.485  1.00  0.00    -0.126 A  
HETATM   13  C   UNL     1      -8.157   6.946  65.807  1.00  0.00    -0.123 A  
HETATM   14  H   UNL     1      -7.654   9.139  61.991  1.00  0.00     0.000 HD 
HETATM   15  C   UNL     1      -8.146   9.344  65.878  1.00  0.00    -0.114 A  
HETATM   16  S   UNL     1      -8.347   5.540  66.760  1.00  0.00    -0.108 SA 
HETATM   17  C   UNL     1      -7.963   6.973  64.409  1.00  0.00    -0.101 A  
HETATM   18  C   UNL     1      -7.895   8.207  63.773  1.00  0.00    -0.147 A  
HETATM   19  O   UNL     1      -7.700   8.295  62.426  1.00  0.00    -0.115 OA 
BRANCH  10  20
HETATM   20  O   UNL     1      -8.206   8.639  69.047  1.00  0.00    -0.118 OA 
BRANCH  20  21
HETATM   21  C   UNL     1      -9.275   9.183  69.715  1.00  0.00    -0.171 A  
HETATM   22  C   UNL     1     -11.500  10.124  71.158  1.00  0.00    -0.307 A  
HETATM   23  C   UNL     1     -10.683   9.126  71.697  1.00  0.00    -0.441 A  
HETATM   24  C   UNL     1     -10.097  10.163  69.172  1.00  0.00    -0.226 A  
HETATM   25  C   UNL     1      -9.573   8.661  70.979  1.00  0.00    -0.264 A  
HETATM   26  C   UNL     1     -11.172  10.656  69.902  1.00  0.00    -0.378 A  
BRANCH  22  27
HETATM   27  O   UNL     1     -12.602  10.501  71.897  1.00  0.00    -0.381 OA 
BRANCH  27  28
HETATM   28  C   UNL     1     -13.279  11.639  71.342  1.00  0.00    -0.110 C  
BRANCH  28  29
HETATM   29  C   UNL     1     -13.405  12.817  72.312  1.00  0.00    -0.458 C  
BRANCH  29  30
HETATM   30  N   UNL     1     -13.757  14.064  71.594  1.00  0.00    -0.354 NA 
HETATM   31  C   UNL     1     -14.263  15.155  72.443  1.00  0.00    -0.445 C  
HETATM   32  C   UNL     1     -13.195  15.842  73.296  1.00  0.00    -0.698 C  
HETATM   33  C   UNL     1     -11.985  16.263  72.468  1.00  0.00    -0.648 C  
HETATM   34  C   UNL     1     -11.502  15.135  71.563  1.00  0.00    -0.422 C  
HETATM   35  C   UNL     1     -12.656  14.546  70.753  1.00  0.00    -0.351 C  
ENDBRANCH  29  30
ENDBRANCH  28  29
ENDBRANCH  27  28
ENDBRANCH  22  27
ENDBRANCH  20  21
ENDBRANCH  10  20
ENDBRANCH   6   9
ENDBRANCH   2   3
TORSDOF 8
ENDMDL
MODEL       74
REMARK 921   NORMALIZED FREE ENERGY PREDICTED BY IDOCK:   -5.38 KCAL/MOL
REMARK 922        TOTAL FREE ENERGY PREDICTED BY IDOCK:   -9.65 KCAL/MOL
REMARK 923 INTER-LIGAND FREE ENERGY PREDICTED BY IDOCK:   -8.09 KCAL/MOL
REMARK 924 INTRA-LIGAND FREE ENERGY PREDICTED BY IDOCK:   -1.56 KCAL/MOL
REMARK 927      BINDING AFFINITY PREDICTED BY RF-SCORE:    0.00 PKD
ROOT
HETATM    1  C   UNL     1      -6.952   6.222  70.800  1.00  0.00    -0.068 C  
HETATM    2  O   UNL     1      -6.195   6.842  69.766  1.00  0.00    -0.035 OA 
ENDROOT
BRANCH   2   3
HETATM    3  C   UNL     1      -6.862   7.716  68.957  1.00  0.00    -0.057 A  
HETATM    4  C   UNL     1      -6.312   8.455  67.911  1.00  0.00    -0.056 A  
HETATM    5  C   UNL     1      -7.106   9.349  67.175  1.00  0.00    -0.086 A  
HETATM    6  C   UNL     1      -8.469   9.519  67.457  1.00  0.00    -0.126 A  
HETATM    7  C   UNL     1      -8.217   7.861  69.236  1.00  0.00    -0.128 A  
HETATM    8  C   UNL     1      -9.016   8.745  68.495  1.00  0.00    -0.138 A  
BRANCH   6   9
HETATM    9  C   UNL     1      -9.278  10.522  66.719  1.00  0.00    -0.155 A  
HETATM   10  C   UNL     1      -9.725  11.788  67.087  1.00  0.00    -0.183 A  
HETATM   11  C   UNL     1     -10.603  12.401  66.102  1.00  0.00    -0.283 A  
HETATM   12  C   UNL     1     -12.081  14.005  64.965  1.00  0.00    -0.427 A  
HETATM   13  C   UNL     1     -10.695  11.600  64.961  1.00  0.00    -0.296 A  
HETATM   14  H   UNL     1     -13.248  14.480  62.769  1.00  0.00     0.000 HD 
HETATM   15  C   UNL     1     -11.324  13.627  66.079  1.00  0.00    -0.322 A  
HETATM   16  S   UNL     1      -9.862  10.120  65.155  1.00  0.00    -0.307 SA 
HETATM   17  C   UNL     1     -11.403  12.001  63.808  1.00  0.00    -0.526 A  
HETATM   18  C   UNL     1     -12.087  13.210  63.837  1.00  0.00    -0.470 A  
HETATM   19  O   UNL     1     -12.781  13.653  62.749  1.00  0.00    -0.420 OA 
BRANCH  10  20
HETATM   20  O   UNL     1      -9.253  12.357  68.234  1.00  0.00    -0.200 OA 
BRANCH  20  21
HETATM   21  C   UNL     1      -8.558  13.540  68.283  1.00  0.00    -0.168 A  
HETATM   22  C   UNL     1      -6.972  15.862  68.394  1.00  0.00    -0.116 A  
HETATM   23  C   UNL     1      -6.515  14.730  67.712  1.00  0.00    -0.183 A  
HETATM   24  C   UNL     1      -9.004  14.660  68.975  1.00  0.00    -0.093 A  
HETATM   25  C   UNL     1      -7.308  13.575  67.656  1.00  0.00    -0.180 A  
HETATM   26  C   UNL     1      -8.239  15.820  68.995  1.00  0.00    -0.234 A  
BRANCH  22  27
HETATM   27  O   UNL     1      -6.122  16.946  68.451  1.00  0.00    -0.134 OA 
BRANCH  27  28
HETATM   28  C   UNL     1      -5.994  17.618  67.190  1.00  0.00    -0.137 C  
BRANCH  28  29
HETATM   29  C   UNL     1      -7.334  18.018  66.564  1.00  0.00    -0.238 C  
BRANCH  29  30
HETATM   30  N   UNL     1      -7.675  19.423  66.888  1.00  0.00    -0.244 NA 
HETATM   31  C   UNL     1      -8.643  20.059  65.979  1.00  0.00    -0.204 C  
HETATM   32  C   UNL     1     -10.085  19.576  66.148  1.00  0.00    -0.557 C  
HETATM   33  C   UNL     1     -10.536  19.624  67.605  1.00  0.00    -0.556 C  
HETATM   34  C   UNL     1      -9.502  19.001  68.537  1.00  0.00    -0.436 C  
HETATM   35  C   UNL     1      -8.111  19.579  68.280  1.00  0.00    -0.334 C  
ENDBRANCH  29  30
ENDBRANCH  28  29
ENDBRANCH  27  28
ENDBRANCH  22  27
ENDBRANCH  20  21
ENDBRANCH  10  20
ENDBRANCH   6   9
ENDBRANCH   2   3
TORSDOF 8
ENDMDL
MODEL       75
REMARK 921   NORMALIZED FREE ENERGY PREDICTED BY IDOCK:   -5.32 KCAL/MOL
REMARK 922        TOTAL FREE ENERGY PREDICTED BY IDOCK:   -9.56 KCAL/MOL
REMARK 923 INTER-LIGAND FREE ENERGY PREDICTED BY IDOCK:   -7.59 KCAL/MOL
REMARK 924 INTRA-LIGAND FREE ENERGY PREDICTED BY IDOCK:   -1.97 KCAL/MOL
REMARK 927      BINDING AFFINITY PREDICTED BY RF-SCORE:    0.00 PKD
ROOT
HETATM    1  C   UNL     1     -12.466  13.479  63.085  1.00  0.00     0.214 C  
HETATM    2  O   UNL     1     -12.743  12.326  63.871  1.00  0.00    -0.668 OA 
ENDROOT
BRANCH   2   3
HETATM    3  C   UNL     1     -11.907  12.084  64.923  1.00  0.00    -0.238 A  
HETATM    4  C   UNL     1     -12.108  12.475  66.244  1.00  0.00    -0.315 A  
HETATM    5  C   UNL     1     -11.147  12.189  67.228  1.00  0.00    -0.341 A  
HETATM    6  C   UNL     1      -9.968  11.496  66.918  1.00  0.00    -0.231 A  
HETATM    7  C   UNL     1     -10.750  11.379  64.603  1.00  0.00    -0.378 A  
HETATM    8  C   UNL     1      -9.793  11.082  65.586  1.00  0.00    -0.287 A  
BRANCH   6   9
HETATM    9  C   UNL     1      -8.927  11.267  67.952  1.00  0.00    -0.146 A  
HETATM   10  C   UNL     1      -7.777  11.984  68.268  1.00  0.00    -0.127 A  
HETATM   11  C   UNL     1      -6.957  11.343  69.286  1.00  0.00    -0.115 A  
HETATM   12  C   UNL     1      -5.137  10.891  70.877  1.00  0.00    -0.099 A  
HETATM   13  C   UNL     1      -7.593  10.201  69.780  1.00  0.00    -0.170 A  
HETATM   14  H   UNL     1      -4.438   9.369  72.776  1.00  0.00     0.000 HD 
HETATM   15  C   UNL     1      -5.700  11.674  69.863  1.00  0.00    -0.115 A  
HETATM   16  S   UNL     1      -9.043   9.867  68.940  1.00  0.00    -0.165 SA 
HETATM   17  C   UNL     1      -7.064   9.441  70.845  1.00  0.00    -0.098 A  
HETATM   18  C   UNL     1      -5.835   9.809  71.377  1.00  0.00    -0.024 A  
HETATM   19  O   UNL     1      -5.279   9.117  72.413  1.00  0.00    -0.060 OA 
BRANCH  10  20
HETATM   20  O   UNL     1      -7.574  13.208  67.700  1.00  0.00    -0.142 OA 
BRANCH  20  21
HETATM   21  C   UNL     1      -8.427  14.276  67.833  1.00  0.00    -0.168 A  
HETATM   22  C   UNL     1     -10.088  16.544  67.951  1.00  0.00    -0.256 A  
HETATM   23  C   UNL     1      -9.680  16.035  66.715  1.00  0.00    -0.253 A  
HETATM   24  C   UNL     1      -8.819  14.792  69.062  1.00  0.00    -0.136 A  
HETATM   25  C   UNL     1      -8.854  14.903  66.657  1.00  0.00    -0.287 A  
HETATM   26  C   UNL     1      -9.673  15.888  69.119  1.00  0.00    -0.249 A  
BRANCH  22  27
HETATM   27  O   UNL     1     -10.860  17.687  67.936  1.00  0.00    -0.374 OA 
BRANCH  27  28
HETATM   28  C   UNL     1     -10.351  18.688  67.041  1.00  0.00    -0.404 C  
BRANCH  28  29
HETATM   29  C   UNL     1      -9.385  19.675  67.703  1.00  0.00    -0.338 C  
BRANCH  29  30
HETATM   30  N   UNL     1      -8.183  19.888  66.864  1.00  0.00    -0.305 NA 
HETATM   31  C   UNL     1      -7.274  20.949  67.329  1.00  0.00    -0.350 C  
HETATM   32  C   UNL     1      -6.454  20.584  68.569  1.00  0.00    -0.310 C  
HETATM   33  C   UNL     1      -5.749  19.241  68.413  1.00  0.00    -0.223 C  
HETATM   34  C   UNL     1      -6.694  18.165  67.889  1.00  0.00    -0.203 C  
HETATM   35  C   UNL     1      -7.437  18.644  66.643  1.00  0.00    -0.234 C  
ENDBRANCH  29  30
ENDBRANCH  28  29
ENDBRANCH  27  28
ENDBRANCH  22  27
ENDBRANCH  20  21
ENDBRANCH  10  20
ENDBRANCH   6   9
ENDBRANCH   2   3
TORSDOF 8
ENDMDL
MODEL       76
REMARK 921   NORMALIZED FREE ENERGY PREDICTED BY IDOCK:   -5.28 KCAL/MOL
REMARK 922        TOTAL FREE ENERGY PREDICTED BY IDOCK:   -9.51 KCAL/MOL
REMARK 923 INTER-LIGAND FREE ENERGY PREDICTED BY IDOCK:   -7.59 KCAL/MOL
REMARK 924 INTRA-LIGAND FREE ENERGY PREDICTED BY IDOCK:   -1.91 KCAL/MOL
REMARK 927      BINDING AFFINITY PREDICTED BY RF-SCORE:    0.00 PKD
ROOT
HETATM    1  C   UNL     1     -10.478   6.621  71.415  1.00  0.00    -0.214 C  
HETATM    2  O   UNL     1     -11.478   7.630  71.510  1.00  0.00    -0.254 OA 
ENDROOT
BRANCH   2   3
HETATM    3  C   UNL     1     -11.268   8.772  70.792  1.00  0.00    -0.266 A  
HETATM    4  C   UNL     1     -11.627  10.063  71.172  1.00  0.00    -0.460 A  
HETATM    5  C   UNL     1     -11.383  11.152  70.320  1.00  0.00    -0.237 A  
HETATM    6  C   UNL     1     -10.765  10.980  69.073  1.00  0.00    -0.258 A  
HETATM    7  C   UNL     1     -10.638   8.588  69.566  1.00  0.00    -0.215 A  
HETATM    8  C   UNL     1     -10.382   9.676  68.716  1.00  0.00    -0.233 A  
BRANCH   6   9
HETATM    9  C   UNL     1     -10.581  12.130  68.152  1.00  0.00    -0.216 A  
HETATM   10  C   UNL     1      -9.493  12.973  67.946  1.00  0.00    -0.219 A  
HETATM   11  C   UNL     1      -9.772  14.064  67.023  1.00  0.00    -0.256 A  
HETATM   12  C   UNL     1      -9.505  16.072  65.628  1.00  0.00    -0.175 A  
HETATM   13  C   UNL     1     -11.052  13.930  66.479  1.00  0.00    -0.308 A  
HETATM   14  H   UNL     1     -10.626  17.451  63.825  1.00  0.00     0.000 HD 
HETATM   15  C   UNL     1      -9.001  15.170  66.572  1.00  0.00    -0.326 A  
HETATM   16  S   UNL     1     -11.904  12.619  67.172  1.00  0.00    -0.257 SA 
HETATM   17  C   UNL     1     -11.546  14.796  65.480  1.00  0.00    -0.301 A  
HETATM   18  C   UNL     1     -10.750  15.859  65.072  1.00  0.00    -0.404 A  
HETATM   19  O   UNL     1     -11.170  16.724  64.104  1.00  0.00    -1.155 OA 
BRANCH  10  20
HETATM   20  O   UNL     1      -8.293  12.670  68.519  1.00  0.00    -0.141 OA 
BRANCH  20  21
HETATM   21  C   UNL     1      -7.642  11.470  68.368  1.00  0.00    -0.125 A  
HETATM   22  C   UNL     1      -6.186   9.068  68.196  1.00  0.00    -0.054 A  
HETATM   23  C   UNL     1      -6.352   9.703  69.430  1.00  0.00    -0.040 A  
HETATM   24  C   UNL     1      -7.464  10.847  67.139  1.00  0.00    -0.109 A  
HETATM   25  C   UNL     1      -7.080  10.898  69.515  1.00  0.00    -0.123 A  
HETATM   26  C   UNL     1      -6.779   9.640  67.060  1.00  0.00    -0.075 A  
BRANCH  22  27
HETATM   27  O   UNL     1      -5.418   7.923  68.176  1.00  0.00    -0.030 OA 
BRANCH  27  28
HETATM   28  C   UNL     1      -5.932   6.896  69.038  1.00  0.00    -0.022 C  
BRANCH  28  29
HETATM   29  C   UNL     1      -7.438   6.662  68.890  1.00  0.00    -0.096 C  
BRANCH  29  30
HETATM   30  N   UNL     1      -7.721   5.654  67.843  1.00  0.00    -0.092 NA 
HETATM   31  C   UNL     1      -8.816   4.719  68.152  1.00  0.00    -0.104 C  
HETATM   32  C   UNL     1     -10.216   5.332  68.065  1.00  0.00    -0.204 C  
HETATM   33  C   UNL     1     -10.436   6.072  66.749  1.00  0.00    -0.329 C  
HETATM   34  C   UNL     1      -9.272   7.002  66.424  1.00  0.00    -0.186 C  
HETATM   35  C   UNL     1      -7.935   6.268  66.528  1.00  0.00    -0.109 C  
ENDBRANCH  29  30
ENDBRANCH  28  29
ENDBRANCH  27  28
ENDBRANCH  22  27
ENDBRANCH  20  21
ENDBRANCH  10  20
ENDBRANCH   6   9
ENDBRANCH   2   3
TORSDOF 8
ENDMDL
MODEL       77
REMARK 921   NORMALIZED FREE ENERGY PREDICTED BY IDOCK:   -5.28 KCAL/MOL
REMARK 922        TOTAL FREE ENERGY PREDICTED BY IDOCK:   -9.50 KCAL/MOL
REMARK 923 INTER-LIGAND FREE ENERGY PREDICTED BY IDOCK:   -7.76 KCAL/MOL
REMARK 924 INTRA-LIGAND FREE ENERGY PREDICTED BY IDOCK:   -1.74 KCAL/MOL
REMARK 927      BINDING AFFINITY PREDICTED BY RF-SCORE:    0.00 PKD
ROOT
HETATM    1  C   UNL     1     -12.617  12.062  63.711  1.00  0.00    -0.454 C  
HETATM    2  O   UNL     1     -12.975  12.780  64.886  1.00  0.00    -0.805 OA 
ENDROOT
BRANCH   2   3
HETATM    3  C   UNL     1     -12.061  13.677  65.360  1.00  0.00    -0.403 A  
HETATM    4  C   UNL     1     -11.103  14.354  64.609  1.00  0.00    -0.363 A  
HETATM    5  C   UNL     1     -10.196  15.228  65.229  1.00  0.00    -0.397 A  
HETATM    6  C   UNL     1     -10.231  15.457  66.612  1.00  0.00    -0.281 A  
HETATM    7  C   UNL     1     -12.120  13.908  66.731  1.00  0.00    -0.476 A  
HETATM    8  C   UNL     1     -11.222  14.790  67.353  1.00  0.00    -0.346 A  
BRANCH   6   9
HETATM    9  C   UNL     1      -9.219  16.326  67.264  1.00  0.00    -0.208 A  
HETATM   10  C   UNL     1      -7.880  16.101  67.571  1.00  0.00    -0.147 A  
HETATM   11  C   UNL     1      -7.270  17.184  68.328  1.00  0.00    -0.204 A  
HETATM   12  C   UNL     1      -5.626  18.541  69.555  1.00  0.00    -0.224 A  
HETATM   13  C   UNL     1      -8.163  18.249  68.467  1.00  0.00    -0.312 A  
HETATM   14  H   UNL     1      -5.238  20.830  70.565  1.00  0.00     0.000 HD 
HETATM   15  C   UNL     1      -5.977  17.358  68.896  1.00  0.00    -0.183 A  
HETATM   16  S   UNL     1      -9.703  17.875  67.826  1.00  0.00    -0.294 SA 
HETATM   17  C   UNL     1      -7.799  19.470  69.074  1.00  0.00    -0.310 A  
HETATM   18  C   UNL     1      -6.523  19.590  69.609  1.00  0.00    -0.315 A  
HETATM   19  O   UNL     1      -6.112  20.749  70.200  1.00  0.00    -0.441 OA 
BRANCH  10  20
HETATM   20  O   UNL     1      -7.259  14.989  67.083  1.00  0.00    -0.177 OA 
BRANCH  20  21
HETATM   21  C   UNL     1      -7.129  13.807  67.770  1.00  0.00    -0.167 A  
HETATM   22  C   UNL     1      -7.055  11.371  69.177  1.00  0.00    -0.115 A  
HETATM   23  C   UNL     1      -8.024  11.585  68.192  1.00  0.00    -0.136 A  
HETATM   24  C   UNL     1      -6.177  13.601  68.761  1.00  0.00    -0.089 A  
HETATM   25  C   UNL     1      -8.057  12.799  67.489  1.00  0.00    -0.180 A  
HETATM   26  C   UNL     1      -6.115  12.382  69.427  1.00  0.00    -0.108 A  
BRANCH  22  27
HETATM   27  O   UNL     1      -7.109  10.175  69.861  1.00  0.00    -0.109 OA 
BRANCH  27  28
HETATM   28  C   UNL     1      -5.845   9.496  69.891  1.00  0.00    -0.036 C  
BRANCH  28  29
HETATM   29  C   UNL     1      -5.843   8.161  69.141  1.00  0.00    -0.034 C  
BRANCH  29  30
HETATM   30  N   UNL     1      -7.189   7.846  68.609  1.00  0.00    -0.079 NA 
HETATM   31  C   UNL     1      -7.309   7.891  67.142  1.00  0.00    -0.091 C  
HETATM   32  C   UNL     1      -6.649   6.717  66.415  1.00  0.00    -0.044 C  
HETATM   33  C   UNL     1      -7.079   5.372  66.994  1.00  0.00    -0.070 C  
HETATM   34  C   UNL     1      -6.990   5.359  68.516  1.00  0.00    -0.061 C  
HETATM   35  C   UNL     1      -7.700   6.570  69.120  1.00  0.00    -0.102 C  
ENDBRANCH  29  30
ENDBRANCH  28  29
ENDBRANCH  27  28
ENDBRANCH  22  27
ENDBRANCH  20  21
ENDBRANCH  10  20
ENDBRANCH   6   9
ENDBRANCH   2   3
TORSDOF 8
ENDMDL
MODEL       78
REMARK 921   NORMALIZED FREE ENERGY PREDICTED BY IDOCK:   -5.21 KCAL/MOL
REMARK 922        TOTAL FREE ENERGY PREDICTED BY IDOCK:   -9.40 KCAL/MOL
REMARK 923 INTER-LIGAND FREE ENERGY PREDICTED BY IDOCK:   -7.41 KCAL/MOL
REMARK 924 INTRA-LIGAND FREE ENERGY PREDICTED BY IDOCK:   -2.00 KCAL/MOL
REMARK 927      BINDING AFFINITY PREDICTED BY RF-SCORE:    0.00 PKD
ROOT
HETATM    1  C   UNL     1     -13.549  15.473  71.565  1.00  0.00    -0.480 C  
HETATM    2  O   UNL     1     -13.145  14.691  70.447  1.00  0.00    -0.291 OA 
ENDROOT
BRANCH   2   3
HETATM    3  C   UNL     1     -12.838  13.383  70.690  1.00  0.00    -0.087 A  
HETATM    4  C   UNL     1     -13.331  12.601  71.732  1.00  0.00    -0.405 A  
HETATM    5  C   UNL     1     -12.906  11.271  71.889  1.00  0.00    -0.386 A  
HETATM    6  C   UNL     1     -11.989  10.688  71.004  1.00  0.00    -0.442 A  
HETATM    7  C   UNL     1     -11.941  12.813  69.793  1.00  0.00    -0.362 A  
HETATM    8  C   UNL     1     -11.523  11.481  69.940  1.00  0.00    -0.340 A  
BRANCH   6   9
HETATM    9  C   UNL     1     -11.492   9.306  71.225  1.00  0.00    -0.347 A  
HETATM   10  C   UNL     1     -10.366   8.649  70.739  1.00  0.00    -0.204 A  
HETATM   11  C   UNL     1     -10.312   7.242  71.109  1.00  0.00    -0.207 A  
HETATM   12  C   UNL     1      -9.562   4.910  71.326  1.00  0.00    -0.229 A  
HETATM   13  C   UNL     1     -11.367   6.920  71.967  1.00  0.00    -0.265 A  
HETATM   14  H   UNL     1     -10.028   2.736  72.537  1.00  0.00     0.000 HD 
HETATM   15  C   UNL     1      -9.403   6.194  70.795  1.00  0.00    -0.170 A  
HETATM   16  S   UNL     1     -12.433   8.238  72.186  1.00  0.00    -0.344 SA 
HETATM   17  C   UNL     1     -11.501   5.645  72.558  1.00  0.00    -0.335 A  
HETATM   18  C   UNL     1     -10.583   4.659  72.221  1.00  0.00    -0.132 A  
HETATM   19  O   UNL     1     -10.657   3.411  72.768  1.00  0.00    -0.152 OA 
BRANCH  10  20
HETATM   20  O   UNL     1      -9.411   9.361  70.074  1.00  0.00    -0.195 OA 
BRANCH  20  21
HETATM   21  C   UNL     1      -8.898   9.015  68.848  1.00  0.00    -0.139 A  
HETATM   22  C   UNL     1      -8.012   8.211  66.301  1.00  0.00    -0.101 A  
HETATM   23  C   UNL     1      -9.359   8.515  66.513  1.00  0.00    -0.260 A  
HETATM   24  C   UNL     1      -7.561   8.696  68.641  1.00  0.00    -0.097 A  
HETATM   25  C   UNL     1      -9.799   8.918  67.782  1.00  0.00    -0.208 A  
HETATM   26  C   UNL     1      -7.117   8.339  67.374  1.00  0.00    -0.080 A  
BRANCH  22  27
HETATM   27  O   UNL     1      -7.656   7.774  65.042  1.00  0.00    -0.083 OA 
BRANCH  27  28
HETATM   28  C   UNL     1      -8.362   6.590  64.646  1.00  0.00     0.009 C  
BRANCH  28  29
HETATM   29  C   UNL     1      -7.821   5.306  65.281  1.00  0.00    -0.095 C  
BRANCH  29  30
HETATM   30  N   UNL     1      -8.842   4.233  65.267  1.00  0.00    -0.126 NA 
HETATM   31  C   UNL     1      -8.401   2.941  65.819  1.00  0.00    -0.092 C  
HETATM   32  C   UNL     1      -8.265   2.914  67.343  1.00  0.00    -0.085 C  
HETATM   33  C   UNL     1      -9.514   3.447  68.038  1.00  0.00    -0.213 C  
HETATM   34  C   UNL     1      -9.981   4.763  67.425  1.00  0.00    -0.204 C  
HETATM   35  C   UNL     1     -10.094   4.654  65.905  1.00  0.00    -0.258 C  
ENDBRANCH  29  30
ENDBRANCH  28  29
ENDBRANCH  27  28
ENDBRANCH  22  27
ENDBRANCH  20  21
ENDBRANCH  10  20
ENDBRANCH   6   9
ENDBRANCH   2   3
TORSDOF 8
ENDMDL
MODEL       79
REMARK 921   NORMALIZED FREE ENERGY PREDICTED BY IDOCK:   -5.21 KCAL/MOL
REMARK 922        TOTAL FREE ENERGY PREDICTED BY IDOCK:   -9.40 KCAL/MOL
REMARK 923 INTER-LIGAND FREE ENERGY PREDICTED BY IDOCK:   -8.60 KCAL/MOL
REMARK 924 INTRA-LIGAND FREE ENERGY PREDICTED BY IDOCK:   -0.80 KCAL/MOL
REMARK 927      BINDING AFFINITY PREDICTED BY RF-SCORE:    0.00 PKD
ROOT
HETATM    1  C   UNL     1     -12.621  15.715  71.324  1.00  0.00    -0.463 C  
HETATM    2  O   UNL     1     -13.576  14.725  71.689  1.00  0.00    -0.349 OA 
ENDROOT
BRANCH   2   3
HETATM    3  C   UNL     1     -13.205  13.422  71.523  1.00  0.00    -0.312 A  
HETATM    4  C   UNL     1     -13.608  12.343  72.306  1.00  0.00    -0.371 A  
HETATM    5  C   UNL     1     -13.123  11.051  72.046  1.00  0.00    -0.449 A  
HETATM    6  C   UNL     1     -12.232  10.804  70.992  1.00  0.00    -0.485 A  
HETATM    7  C   UNL     1     -12.336  13.189  70.462  1.00  0.00    -0.380 A  
HETATM    8  C   UNL     1     -11.857  11.897  70.192  1.00  0.00    -0.390 A  
BRANCH   6   9
HETATM    9  C   UNL     1     -11.669   9.446  70.775  1.00  0.00    -0.282 A  
HETATM   10  C   UNL     1     -11.108   8.858  69.646  1.00  0.00    -0.046 A  
HETATM   11  C   UNL     1     -10.785   7.450  69.827  1.00  0.00    -0.252 A  
HETATM   12  C   UNL     1     -10.003   5.157  69.399  1.00  0.00    -0.292 A  
HETATM   13  C   UNL     1     -11.022   7.058  71.147  1.00  0.00    -0.247 A  
HETATM   14  H   UNL     1      -9.509   2.943  70.521  1.00  0.00     0.000 HD 
HETATM   15  C   UNL     1     -10.265   6.457  68.951  1.00  0.00    -0.215 A  
HETATM   16  S   UNL     1     -11.731   8.314  72.065  1.00  0.00    -0.373 SA 
HETATM   17  C   UNL     1     -10.703   5.769  71.625  1.00  0.00    -0.314 A  
HETATM   18  C   UNL     1     -10.193   4.838  70.729  1.00  0.00    -0.176 A  
HETATM   19  O   UNL     1      -9.858   3.580  71.135  1.00  0.00    -0.179 OA 
BRANCH  10  20
HETATM   20  O   UNL     1     -10.833   9.630  68.555  1.00  0.00    -0.215 OA 
BRANCH  20  21
HETATM   21  C   UNL     1      -9.747  10.462  68.448  1.00  0.00    -0.158 A  
HETATM   22  C   UNL     1      -7.496  12.150  68.418  1.00  0.00    -0.114 A  
HETATM   23  C   UNL     1      -7.548  11.063  69.295  1.00  0.00    -0.090 A  
HETATM   24  C   UNL     1      -9.702  11.552  67.587  1.00  0.00    -0.182 A  
HETATM   25  C   UNL     1      -8.669  10.221  69.307  1.00  0.00    -0.182 A  
HETATM   26  C   UNL     1      -8.572  12.361  67.543  1.00  0.00    -0.177 A  
BRANCH  22  27
HETATM   27  O   UNL     1      -6.385  12.965  68.492  1.00  0.00    -0.069 OA 
BRANCH  27  28
HETATM   28  C   UNL     1      -6.565  14.211  67.803  1.00  0.00    -0.175 C  
BRANCH  28  29
HETATM   29  C   UNL     1      -7.156  15.321  68.677  1.00  0.00    -0.116 C  
BRANCH  29  30
HETATM   30  N   UNL     1      -7.514  16.506  67.864  1.00  0.00    -0.147 NA 
HETATM   31  C   UNL     1      -7.828  16.226  66.453  1.00  0.00    -0.214 C  
HETATM   32  C   UNL     1      -9.183  15.551  66.226  1.00  0.00    -0.364 C  
HETATM   33  C   UNL     1     -10.314  16.286  66.940  1.00  0.00    -0.299 C  
HETATM   34  C   UNL     1      -9.953  16.606  68.386  1.00  0.00    -0.255 C  
HETATM   35  C   UNL     1      -8.591  17.292  68.476  1.00  0.00    -0.270 C  
ENDBRANCH  29  30
ENDBRANCH  28  29
ENDBRANCH  27  28
ENDBRANCH  22  27
ENDBRANCH  20  21
ENDBRANCH  10  20
ENDBRANCH   6   9
ENDBRANCH   2   3
TORSDOF 8
ENDMDL
MODEL       80
REMARK 921   NORMALIZED FREE ENERGY PREDICTED BY IDOCK:   -5.21 KCAL/MOL
REMARK 922        TOTAL FREE ENERGY PREDICTED BY IDOCK:   -9.40 KCAL/MOL
REMARK 923 INTER-LIGAND FREE ENERGY PREDICTED BY IDOCK:   -7.38 KCAL/MOL
REMARK 924 INTRA-LIGAND FREE ENERGY PREDICTED BY IDOCK:   -2.02 KCAL/MOL
REMARK 927      BINDING AFFINITY PREDICTED BY RF-SCORE:    0.00 PKD
ROOT
HETATM    1  C   UNL     1      -6.102  13.983  70.794  1.00  0.00    -0.141 C  
HETATM    2  O   UNL     1      -5.337  12.857  70.380  1.00  0.00    -0.104 OA 
ENDROOT
BRANCH   2   3
HETATM    3  C   UNL     1      -6.029  11.801  69.860  1.00  0.00    -0.146 A  
HETATM    4  C   UNL     1      -6.343  10.616  70.520  1.00  0.00    -0.076 A  
HETATM    5  C   UNL     1      -7.034   9.590  69.856  1.00  0.00    -0.078 A  
HETATM    6  C   UNL     1      -7.439   9.727  68.521  1.00  0.00    -0.079 A  
HETATM    7  C   UNL     1      -6.440  11.959  68.540  1.00  0.00    -0.057 A  
HETATM    8  C   UNL     1      -7.141  10.941  67.876  1.00  0.00    -0.081 A  
BRANCH   6   9
HETATM    9  C   UNL     1      -8.103   8.606  67.809  1.00  0.00    -0.107 A  
HETATM   10  C   UNL     1      -9.377   8.062  67.945  1.00  0.00    -0.138 A  
HETATM   11  C   UNL     1      -9.591   6.877  67.126  1.00  0.00    -0.182 A  
HETATM   12  C   UNL     1     -10.649   4.919  66.080  1.00  0.00    -0.312 A  
HETATM   13  C   UNL     1      -8.482   6.638  66.310  1.00  0.00    -0.130 A  
HETATM   14  H   UNL     1     -10.346   3.180  64.265  1.00  0.00     0.000 HD 
HETATM   15  C   UNL     1     -10.687   5.981  66.990  1.00  0.00    -0.412 A  
HETATM   16  S   UNL     1      -7.205   7.726  66.639  1.00  0.00    -0.089 SA 
HETATM   17  C   UNL     1      -8.458   5.609  65.345  1.00  0.00    -0.147 A  
HETATM   18  C   UNL     1      -9.557   4.764  65.250  1.00  0.00    -0.113 A  
HETATM   19  O   UNL     1      -9.595   3.758  64.330  1.00  0.00    -0.145 OA 
BRANCH  10  20
HETATM   20  O   UNL     1     -10.300   8.704  68.717  1.00  0.00    -0.208 OA 
BRANCH  20  21
HETATM   21  C   UNL     1     -10.732   9.989  68.503  1.00  0.00    -0.231 A  
HETATM   22  C   UNL     1     -11.738  12.601  68.213  1.00  0.00    -0.342 A  
HETATM   23  C   UNL     1     -11.600  12.038  69.485  1.00  0.00    -0.389 A  
HETATM   24  C   UNL     1     -10.884  10.543  67.238  1.00  0.00    -0.338 A  
HETATM   25  C   UNL     1     -11.096  10.737  69.628  1.00  0.00    -0.339 A  
HETATM   26  C   UNL     1     -11.342  11.848  67.098  1.00  0.00    -0.393 A  
BRANCH  22  27
HETATM   27  O   UNL     1     -12.285  13.865  68.142  1.00  0.00    -0.329 OA 
BRANCH  27  28
HETATM   28  C   UNL     1     -11.822  14.729  69.190  1.00  0.00    -0.305 C  
BRANCH  28  29
HETATM   29  C   UNL     1     -11.386  16.114  68.703  1.00  0.00    -0.365 C  
BRANCH  29  30
HETATM   30  N   UNL     1      -9.922  16.290  68.838  1.00  0.00    -0.236 NA 
HETATM   31  C   UNL     1      -9.111  15.134  68.421  1.00  0.00    -0.185 C  
HETATM   32  C   UNL     1      -9.036  14.925  66.906  1.00  0.00    -0.277 C  
HETATM   33  C   UNL     1      -8.648  16.205  66.172  1.00  0.00    -0.331 C  
HETATM   34  C   UNL     1      -9.467  17.399  66.648  1.00  0.00    -0.285 C  
HETATM   35  C   UNL     1      -9.448  17.508  68.172  1.00  0.00    -0.291 C  
ENDBRANCH  29  30
ENDBRANCH  28  29
ENDBRANCH  27  28
ENDBRANCH  22  27
ENDBRANCH  20  21
ENDBRANCH  10  20
ENDBRANCH   6   9
ENDBRANCH   2   3
TORSDOF 8
ENDMDL
MODEL       81
REMARK 921   NORMALIZED FREE ENERGY PREDICTED BY IDOCK:   -5.21 KCAL/MOL
REMARK 922        TOTAL FREE ENERGY PREDICTED BY IDOCK:   -9.40 KCAL/MOL
REMARK 923 INTER-LIGAND FREE ENERGY PREDICTED BY IDOCK:   -7.36 KCAL/MOL
REMARK 924 INTRA-LIGAND FREE ENERGY PREDICTED BY IDOCK:   -2.03 KCAL/MOL
REMARK 927      BINDING AFFINITY PREDICTED BY RF-SCORE:    0.00 PKD
ROOT
HETATM    1  C   UNL     1     -13.984   8.876  72.359  1.00  0.00    -0.448 C  
HETATM    2  O   UNL     1     -13.253  10.077  72.142  1.00  0.00    -0.442 OA 
ENDROOT
BRANCH   2   3
HETATM    3  C   UNL     1     -12.454  10.120  71.036  1.00  0.00    -0.375 A  
HETATM    4  C   UNL     1     -12.562  11.015  69.974  1.00  0.00    -0.240 A  
HETATM    5  C   UNL     1     -11.692  10.927  68.875  1.00  0.00    -0.376 A  
HETATM    6  C   UNL     1     -10.687   9.951  68.815  1.00  0.00    -0.247 A  
HETATM    7  C   UNL     1     -11.450   9.157  70.998  1.00  0.00    -0.372 A  
HETATM    8  C   UNL     1     -10.572   9.074  69.907  1.00  0.00    -0.240 A  
BRANCH   6   9
HETATM    9  C   UNL     1      -9.823   9.824  67.613  1.00  0.00    -0.165 A  
HETATM   10  C   UNL     1      -8.862  10.679  67.082  1.00  0.00    -0.137 A  
HETATM   11  C   UNL     1      -8.324  10.224  65.808  1.00  0.00    -0.152 A  
HETATM   12  C   UNL     1      -7.007  10.111  63.734  1.00  0.00    -0.105 A  
HETATM   13  C   UNL     1      -8.836   8.966  65.481  1.00  0.00    -0.197 A  
HETATM   14  H   UNL     1      -6.407   8.598  61.795  1.00  0.00     0.000 HD 
HETATM   15  C   UNL     1      -7.391  10.790  64.896  1.00  0.00     0.238 A  
HETATM   16  S   UNL     1     -10.011   8.445  66.608  1.00  0.00    -0.275 SA 
HETATM   17  C   UNL     1      -8.408   8.245  64.345  1.00  0.00    -0.082 A  
HETATM   18  C   UNL     1      -7.491   8.841  63.489  1.00  0.00    -0.108 A  
HETATM   19  O   UNL     1      -7.034   8.190  62.381  1.00  0.00    -0.086 OA 
BRANCH  10  20
HETATM   20  O   UNL     1      -8.457  11.762  67.805  1.00  0.00    -0.134 OA 
BRANCH  20  21
HETATM   21  C   UNL     1      -9.037  13.004  67.734  1.00  0.00    -0.200 A  
HETATM   22  C   UNL     1     -10.297  15.520  67.764  1.00  0.00    -0.263 A  
HETATM   23  C   UNL     1      -9.750  14.994  68.938  1.00  0.00    -0.224 A  
HETATM   24  C   UNL     1      -9.596  13.520  66.571  1.00  0.00    -0.284 A  
HETATM   25  C   UNL     1      -9.120  13.741  68.920  1.00  0.00     0.139 A  
HETATM   26  C   UNL     1     -10.182  14.781  66.578  1.00  0.00    -0.281 A  
BRANCH  22  27
HETATM   27  O   UNL     1     -10.944  16.734  67.863  1.00  0.00    -0.337 OA 
BRANCH  27  28
HETATM   28  C   UNL     1     -10.245  17.791  67.188  1.00  0.00    -0.353 C  
BRANCH  28  29
HETATM   29  C   UNL     1      -9.079  18.372  67.992  1.00  0.00    -0.294 C  
BRANCH  29  30
HETATM   30  N   UNL     1      -7.920  18.663  67.116  1.00  0.00    -0.239 NA 
HETATM   31  C   UNL     1      -6.757  19.261  67.793  1.00  0.00    -0.223 C  
HETATM   32  C   UNL     1      -5.964  18.288  68.669  1.00  0.00    -0.197 C  
HETATM   33  C   UNL     1      -5.608  17.007  67.922  1.00  0.00    -0.130 C  
HETATM   34  C   UNL     1      -6.814  16.426  67.191  1.00  0.00    -0.238 C  
HETATM   35  C   UNL     1      -7.507  17.490  66.340  1.00  0.00    -0.299 C  
ENDBRANCH  29  30
ENDBRANCH  28  29
ENDBRANCH  27  28
ENDBRANCH  22  27
ENDBRANCH  20  21
ENDBRANCH  10  20
ENDBRANCH   6   9
ENDBRANCH   2   3
TORSDOF 8
ENDMDL
MODEL       82
REMARK 921   NORMALIZED FREE ENERGY PREDICTED BY IDOCK:   -5.20 KCAL/MOL
REMARK 922        TOTAL FREE ENERGY PREDICTED BY IDOCK:   -9.39 KCAL/MOL
REMARK 923 INTER-LIGAND FREE ENERGY PREDICTED BY IDOCK:   -7.96 KCAL/MOL
REMARK 924 INTRA-LIGAND FREE ENERGY PREDICTED BY IDOCK:   -1.43 KCAL/MOL
REMARK 927      BINDING AFFINITY PREDICTED BY RF-SCORE:    0.00 PKD
ROOT
HETATM    1  C   UNL     1      -9.691   2.923  62.390  1.00  0.00    -0.091 C  
HETATM    2  O   UNL     1      -8.775   3.937  62.786  1.00  0.00    -0.089 OA 
ENDROOT
BRANCH   2   3
HETATM    3  C   UNL     1      -9.039   4.580  63.961  1.00  0.00    -0.123 A  
HETATM    4  C   UNL     1      -8.273   5.588  64.541  1.00  0.00    -0.129 A  
HETATM    5  C   UNL     1      -8.641   6.144  65.777  1.00  0.00    -0.153 A  
HETATM    6  C   UNL     1      -9.789   5.715  66.458  1.00  0.00    -0.195 A  
HETATM    7  C   UNL     1     -10.191   4.156  64.617  1.00  0.00    -0.195 A  
HETATM    8  C   UNL     1     -10.568   4.718  65.846  1.00  0.00    -0.290 A  
BRANCH   6   9
HETATM    9  C   UNL     1     -10.125   6.259  67.798  1.00  0.00    -0.149 A  
HETATM   10  C   UNL     1     -10.533   7.529  68.194  1.00  0.00    -0.183 A  
HETATM   11  C   UNL     1     -10.644   7.677  69.638  1.00  0.00    -0.243 A  
HETATM   12  C   UNL     1     -11.041   8.643  71.865  1.00  0.00    -0.416 A  
HETATM   13  C   UNL     1     -10.414   6.455  70.275  1.00  0.00    -0.219 A  
HETATM   14  H   UNL     1     -11.243   8.060  74.320  1.00  0.00     0.000 HD 
HETATM   15  C   UNL     1     -10.962   8.783  70.475  1.00  0.00    -0.272 A  
HETATM   16  S   UNL     1      -9.952   5.238  69.168  1.00  0.00    -0.214 SA 
HETATM   17  C   UNL     1     -10.553   6.289  71.670  1.00  0.00    -0.271 A  
HETATM   18  C   UNL     1     -10.869   7.401  72.442  1.00  0.00    -0.263 A  
HETATM   19  O   UNL     1     -11.026   7.299  73.793  1.00  0.00    -0.255 OA 
BRANCH  10  20
HETATM   20  O   UNL     1     -10.870   8.450  67.246  1.00  0.00    -0.225 OA 
BRANCH  20  21
HETATM   21  C   UNL     1     -10.323   9.706  67.155  1.00  0.00    -0.254 A  
HETATM   22  C   UNL     1      -9.369  12.340  66.895  1.00  0.00    -0.210 A  
HETATM   23  C   UNL     1     -10.704  12.107  67.237  1.00  0.00    -0.264 A  
HETATM   24  C   UNL     1      -9.000   9.938  66.798  1.00  0.00    -0.155 A  
HETATM   25  C   UNL     1     -11.177  10.793  67.369  1.00  0.00    -0.315 A  
HETATM   26  C   UNL     1      -8.519  11.240  66.710  1.00  0.00    -0.161 A  
BRANCH  22  27
HETATM   27  O   UNL     1      -8.982  13.655  66.735  1.00  0.00    -0.237 OA 
BRANCH  27  28
HETATM   28  C   UNL     1     -10.041  14.488  66.241  1.00  0.00    -0.295 C  
BRANCH  28  29
HETATM   29  C   UNL     1      -9.621  15.939  65.991  1.00  0.00    -0.350 C  
BRANCH  29  30
HETATM   30  N   UNL     1     -10.449  16.878  66.783  1.00  0.00    -0.292 NA 
HETATM   31  C   UNL     1     -10.485  16.613  68.231  1.00  0.00    -0.321 C  
HETATM   32  C   UNL     1      -9.199  16.980  68.975  1.00  0.00    -0.154 C  
HETATM   33  C   UNL     1      -8.737  18.398  68.653  1.00  0.00    -0.306 C  
HETATM   34  C   UNL     1      -8.748  18.668  67.153  1.00  0.00    -0.281 C  
HETATM   35  C   UNL     1     -10.089  18.278  66.533  1.00  0.00    -0.385 C  
ENDBRANCH  29  30
ENDBRANCH  28  29
ENDBRANCH  27  28
ENDBRANCH  22  27
ENDBRANCH  20  21
ENDBRANCH  10  20
ENDBRANCH   6   9
ENDBRANCH   2   3
TORSDOF 8
ENDMDL
MODEL       83
REMARK 921   NORMALIZED FREE ENERGY PREDICTED BY IDOCK:   -5.20 KCAL/MOL
REMARK 922        TOTAL FREE ENERGY PREDICTED BY IDOCK:   -9.38 KCAL/MOL
REMARK 923 INTER-LIGAND FREE ENERGY PREDICTED BY IDOCK:   -7.42 KCAL/MOL
REMARK 924 INTRA-LIGAND FREE ENERGY PREDICTED BY IDOCK:   -1.96 KCAL/MOL
REMARK 927      BINDING AFFINITY PREDICTED BY RF-SCORE:    0.00 PKD
ROOT
HETATM    1  C   UNL     1      -5.559  21.377  67.461  1.00  0.00    -0.340 C  
HETATM    2  O   UNL     1      -6.196  20.611  68.478  1.00  0.00    -0.315 OA 
ENDROOT
BRANCH   2   3
HETATM    3  C   UNL     1      -6.390  19.285  68.217  1.00  0.00    -0.229 A  
HETATM    4  C   UNL     1      -6.528  18.704  66.959  1.00  0.00    -0.199 A  
HETATM    5  C   UNL     1      -6.760  17.324  66.831  1.00  0.00    -0.230 A  
HETATM    6  C   UNL     1      -6.847  16.491  67.955  1.00  0.00    -0.149 A  
HETATM    7  C   UNL     1      -6.457  18.468  69.341  1.00  0.00    -0.257 A  
HETATM    8  C   UNL     1      -6.676  17.088  69.217  1.00  0.00    -0.234 A  
BRANCH   6   9
HETATM    9  C   UNL     1      -7.166  15.048  67.808  1.00  0.00    -0.168 A  
HETATM   10  C   UNL     1      -8.381  14.371  67.843  1.00  0.00    -0.162 A  
HETATM   11  C   UNL     1      -8.240  12.924  67.776  1.00  0.00    -0.174 A  
HETATM   12  C   UNL     1      -8.774  10.524  67.704  1.00  0.00    -0.121 A  
HETATM   13  C   UNL     1      -6.902  12.571  67.580  1.00  0.00    -0.150 A  
HETATM   14  H   UNL     1      -7.770   8.236  67.298  1.00  0.00     0.000 HD 
HETATM   15  C   UNL     1      -9.179  11.857  67.838  1.00  0.00    -0.187 A  
HETATM   16  S   UNL     1      -5.872  13.935  67.618  1.00  0.00     0.073 SA 
HETATM   17  C   UNL     1      -6.492  11.235  67.380  1.00  0.00    -0.080 A  
HETATM   18  C   UNL     1      -7.450  10.231  67.446  1.00  0.00    -0.094 A  
HETATM   19  O   UNL     1      -7.114   8.923  67.253  1.00  0.00    -0.080 OA 
BRANCH  10  20
HETATM   20  O   UNL     1      -9.545  15.084  67.841  1.00  0.00    -0.201 OA 
BRANCH  20  21
HETATM   21  C   UNL     1     -10.515  14.988  68.807  1.00  0.00    -0.238 A  
HETATM   22  C   UNL     1     -12.366  14.744  70.913  1.00  0.00    -0.319 A  
HETATM   23  C   UNL     1     -11.084  15.246  71.158  1.00  0.00    -0.328 A  
HETATM   24  C   UNL     1     -11.784  14.474  68.567  1.00  0.00    -0.353 A  
HETATM   25  C   UNL     1     -10.164  15.369  70.107  1.00  0.00    -0.216 A  
HETATM   26  C   UNL     1     -12.711  14.392  69.600  1.00  0.00     0.052 A  
BRANCH  22  27
HETATM   27  O   UNL     1     -13.204  14.605  72.000  1.00  0.00    -0.312 OA 
BRANCH  27  28
HETATM   28  C   UNL     1     -13.896  13.347  72.008  1.00  0.00    -0.394 C  
BRANCH  28  29
HETATM   29  C   UNL     1     -12.973  12.134  72.157  1.00  0.00    -0.171 C  
BRANCH  29  30
HETATM   30  N   UNL     1     -13.262  11.115  71.121  1.00  0.00    -0.163 NA 
HETATM   31  C   UNL     1     -12.187  10.900  70.138  1.00  0.00    -0.343 C  
HETATM   32  C   UNL     1     -10.976  10.136  70.678  1.00  0.00    -0.357 C  
HETATM   33  C   UNL     1     -11.383   8.849  71.389  1.00  0.00    -0.380 C  
HETATM   34  C   UNL     1     -12.525   9.083  72.371  1.00  0.00    -0.375 C  
HETATM   35  C   UNL     1     -13.677   9.836  71.706  1.00  0.00    -0.229 C  
ENDBRANCH  29  30
ENDBRANCH  28  29
ENDBRANCH  27  28
ENDBRANCH  22  27
ENDBRANCH  20  21
ENDBRANCH  10  20
ENDBRANCH   6   9
ENDBRANCH   2   3
TORSDOF 8
ENDMDL
MODEL       84
REMARK 921   NORMALIZED FREE ENERGY PREDICTED BY IDOCK:   -5.19 KCAL/MOL
REMARK 922        TOTAL FREE ENERGY PREDICTED BY IDOCK:   -9.36 KCAL/MOL
REMARK 923 INTER-LIGAND FREE ENERGY PREDICTED BY IDOCK:   -7.28 KCAL/MOL
REMARK 924 INTRA-LIGAND FREE ENERGY PREDICTED BY IDOCK:   -2.08 KCAL/MOL
REMARK 927      BINDING AFFINITY PREDICTED BY RF-SCORE:    0.00 PKD
ROOT
HETATM    1  C   UNL     1     -10.794   4.876  73.704  1.00  0.00    -0.309 C  
HETATM    2  O   UNL     1     -11.754   5.304  72.745  1.00  0.00    -0.275 OA 
ENDROOT
BRANCH   2   3
HETATM    3  C   UNL     1     -11.502   6.484  72.107  1.00  0.00    -0.292 A  
HETATM    4  C   UNL     1     -11.474   7.748  72.692  1.00  0.00    -0.430 A  
HETATM    5  C   UNL     1     -11.234   8.891  71.911  1.00  0.00    -0.447 A  
HETATM    6  C   UNL     1     -11.006   8.798  70.531  1.00  0.00    -0.272 A  
HETATM    7  C   UNL     1     -11.260   6.375  70.741  1.00  0.00    -0.386 A  
HETATM    8  C   UNL     1     -11.008   7.513  69.960  1.00  0.00    -0.252 A  
BRANCH   6   9
HETATM    9  C   UNL     1     -10.828  10.021  69.707  1.00  0.00    -0.273 A  
HETATM   10  C   UNL     1      -9.717  10.514  69.028  1.00  0.00    -0.210 A  
HETATM   11  C   UNL     1      -9.937  11.823  68.433  1.00  0.00    -0.202 A  
HETATM   12  C   UNL     1      -9.574  13.924  67.205  1.00  0.00    -0.243 A  
HETATM   13  C   UNL     1     -11.266  12.221  68.599  1.00  0.00    -0.259 A  
HETATM   14  H   UNL     1     -10.757  15.966  66.289  1.00  0.00     0.000 HD 
HETATM   15  C   UNL     1      -9.090  12.714  67.717  1.00  0.00    -0.192 A  
HETATM   16  S   UNL     1     -12.147  11.109  69.553  1.00  0.00    -0.291 SA 
HETATM   17  C   UNL     1     -11.779  13.408  68.034  1.00  0.00    -0.391 A  
HETATM   18  C   UNL     1     -10.911  14.241  67.340  1.00  0.00    -0.285 A  
HETATM   19  O   UNL     1     -11.351  15.396  66.764  1.00  0.00    -0.258 OA 
BRANCH  10  20
HETATM   20  O   UNL     1      -8.607   9.730  68.903  1.00  0.00    -0.123 OA 
BRANCH  20  21
HETATM   21  C   UNL     1      -8.151   9.215  67.715  1.00  0.00    -0.105 A  
HETATM   22  C   UNL     1      -7.378   8.056  65.270  1.00  0.00    -0.070 A  
HETATM   23  C   UNL     1      -8.723   8.345  65.517  1.00  0.00    -0.196 A  
HETATM   24  C   UNL     1      -6.816   8.913  67.476  1.00  0.00    -0.071 A  
HETATM   25  C   UNL     1      -9.107   8.926  66.734  1.00  0.00    -0.177 A  
HETATM   26  C   UNL     1      -6.429   8.378  66.252  1.00  0.00    -0.054 A  
BRANCH  22  27
HETATM   27  O   UNL     1      -7.077   7.442  64.072  1.00  0.00    -0.063 OA 
BRANCH  27  28
HETATM   28  C   UNL     1      -7.011   6.013  64.183  1.00  0.00    -0.051 C  
BRANCH  28  29
HETATM   29  C   UNL     1      -8.352   5.312  63.949  1.00  0.00    -0.122 C  
BRANCH  29  30
HETATM   30  N   UNL     1      -8.501   4.138  64.840  1.00  0.00    -0.113 NA 
HETATM   31  C   UNL     1      -7.750   4.211  66.104  1.00  0.00    -0.090 C  
HETATM   32  C   UNL     1      -8.335   5.179  67.135  1.00  0.00    -0.107 C  
HETATM   33  C   UNL     1      -9.826   4.947  67.356  1.00  0.00    -0.213 C  
HETATM   34  C   UNL     1     -10.581   4.830  66.036  1.00  0.00    -0.300 C  
HETATM   35  C   UNL     1      -9.909   3.822  65.105  1.00  0.00    -0.161 C  
ENDBRANCH  29  30
ENDBRANCH  28  29
ENDBRANCH  27  28
ENDBRANCH  22  27
ENDBRANCH  20  21
ENDBRANCH  10  20
ENDBRANCH   6   9
ENDBRANCH   2   3
TORSDOF 8
ENDMDL
MODEL       85
REMARK 921   NORMALIZED FREE ENERGY PREDICTED BY IDOCK:   -5.13 KCAL/MOL
REMARK 922        TOTAL FREE ENERGY PREDICTED BY IDOCK:   -9.29 KCAL/MOL
REMARK 923 INTER-LIGAND FREE ENERGY PREDICTED BY IDOCK:   -8.28 KCAL/MOL
REMARK 924 INTRA-LIGAND FREE ENERGY PREDICTED BY IDOCK:   -1.01 KCAL/MOL
REMARK 927      BINDING AFFINITY PREDICTED BY RF-SCORE:    0.00 PKD
ROOT
HETATM    1  C   UNL     1     -14.069   9.004  72.444  1.00  0.00    -0.404 C  
HETATM    2  O   UNL     1     -13.016   9.938  72.234  1.00  0.00    -0.391 OA 
ENDROOT
BRANCH   2   3
HETATM    3  C   UNL     1     -12.198   9.711  71.165  1.00  0.00    -0.350 A  
HETATM    4  C   UNL     1     -11.923  10.605  70.133  1.00  0.00    -0.417 A  
HETATM    5  C   UNL     1     -11.085  10.232  69.070  1.00  0.00    -0.277 A  
HETATM    6  C   UNL     1     -10.493   8.962  69.017  1.00  0.00    -0.231 A  
HETATM    7  C   UNL     1     -11.604   8.454  71.136  1.00  0.00    -0.317 A  
HETATM    8  C   UNL     1     -10.757   8.081  70.080  1.00  0.00    -0.244 A  
BRANCH   6   9
HETATM    9  C   UNL     1      -9.670   8.555  67.849  1.00  0.00    -0.162 A  
HETATM   10  C   UNL     1      -8.831   9.294  67.019  1.00  0.00    -0.123 A  
HETATM   11  C   UNL     1      -8.299   8.525  65.904  1.00  0.00    -0.142 A  
HETATM   12  C   UNL     1      -7.062   7.909  63.869  1.00  0.00    -0.080 A  
HETATM   13  C   UNL     1      -8.681   7.185  66.005  1.00  0.00    -0.147 A  
HETATM   14  H   UNL     1      -6.378   5.940  62.431  1.00  0.00     0.000 HD 
HETATM   15  C   UNL     1      -7.471   8.870  64.800  1.00  0.00    -0.103 A  
HETATM   16  S   UNL     1      -9.746   6.925  67.317  1.00  0.00    -0.156 SA 
HETATM   17  C   UNL     1      -8.223   6.196  65.108  1.00  0.00    -0.141 A  
HETATM   18  C   UNL     1      -7.413   6.586  64.049  1.00  0.00    -0.082 A  
HETATM   19  O   UNL     1      -6.932   5.673  63.156  1.00  0.00    -0.038 OA 
BRANCH  10  20
HETATM   20  O   UNL     1      -8.519  10.578  67.355  1.00  0.00    -0.122 OA 
BRANCH  20  21
HETATM   21  C   UNL     1      -9.232  11.681  66.953  1.00  0.00    -0.184 A  
HETATM   22  C   UNL     1     -10.739  13.970  66.315  1.00  0.00    -0.289 A  
HETATM   23  C   UNL     1     -10.010  13.917  67.507  1.00  0.00    -0.240 A  
HETATM   24  C   UNL     1      -9.969  11.726  65.777  1.00  0.00    -0.269 A  
HETATM   25  C   UNL     1      -9.257  12.777  67.822  1.00  0.00    -0.199 A  
HETATM   26  C   UNL     1     -10.681  12.873  65.442  1.00  0.00    -0.307 A  
BRANCH  22  27
HETATM   27  O   UNL     1     -11.495  15.101  66.090  1.00  0.00    -0.285 OA 
BRANCH  27  28
HETATM   28  C   UNL     1     -10.855  16.029  65.202  1.00  0.00    -0.395 C  
BRANCH  28  29
HETATM   29  C   UNL     1     -10.560  17.390  65.838  1.00  0.00    -0.200 C  
BRANCH  29  30
HETATM   30  N   UNL     1      -9.386  17.315  66.739  1.00  0.00    -0.250 NA 
HETATM   31  C   UNL     1      -8.247  18.165  66.355  1.00  0.00    -0.253 C  
HETATM   32  C   UNL     1      -8.456  19.660  66.608  1.00  0.00    -0.356 C  
HETATM   33  C   UNL     1      -8.938  19.937  68.028  1.00  0.00    -0.352 C  
HETATM   34  C   UNL     1     -10.089  19.018  68.423  1.00  0.00    -0.471 C  
HETATM   35  C   UNL     1      -9.749  17.556  68.139  1.00  0.00    -0.302 C  
ENDBRANCH  29  30
ENDBRANCH  28  29
ENDBRANCH  27  28
ENDBRANCH  22  27
ENDBRANCH  20  21
ENDBRANCH  10  20
ENDBRANCH   6   9
ENDBRANCH   2   3
TORSDOF 8
ENDMDL
MODEL       86
REMARK 921   NORMALIZED FREE ENERGY PREDICTED BY IDOCK:   -5.11 KCAL/MOL
REMARK 922        TOTAL FREE ENERGY PREDICTED BY IDOCK:   -9.25 KCAL/MOL
REMARK 923 INTER-LIGAND FREE ENERGY PREDICTED BY IDOCK:   -7.54 KCAL/MOL
REMARK 924 INTRA-LIGAND FREE ENERGY PREDICTED BY IDOCK:   -1.71 KCAL/MOL
REMARK 927      BINDING AFFINITY PREDICTED BY RF-SCORE:    0.00 PKD
ROOT
HETATM    1  C   UNL     1     -11.408  15.233  64.880  1.00  0.00    -0.384 C  
HETATM    2  O   UNL     1     -11.529  15.177  66.297  1.00  0.00    -0.280 OA 
ENDROOT
BRANCH   2   3
HETATM    3  C   UNL     1     -11.417  13.945  66.875  1.00  0.00    -0.351 A  
HETATM    4  C   UNL     1     -11.728  12.724  66.280  1.00  0.00    -0.460 A  
HETATM    5  C   UNL     1     -11.600  11.525  67.001  1.00  0.00    -0.203 A  
HETATM    6  C   UNL     1     -11.147  11.516  68.328  1.00  0.00    -0.295 A  
HETATM    7  C   UNL     1     -10.950  13.949  68.185  1.00  0.00    -0.267 A  
HETATM    8  C   UNL     1     -10.809  12.753  68.904  1.00  0.00    -0.236 A  
BRANCH   6   9
HETATM    9  C   UNL     1     -11.087  10.249  69.101  1.00  0.00    -0.235 A  
HETATM   10  C   UNL     1     -10.269   9.132  68.965  1.00  0.00    -0.207 A  
HETATM   11  C   UNL     1     -10.622   8.043  69.864  1.00  0.00    -0.242 A  
HETATM   12  C   UNL     1     -10.618   5.873  71.021  1.00  0.00    -0.312 A  
HETATM   13  C   UNL     1     -11.644   8.436  70.731  1.00  0.00    -0.232 A  
HETATM   14  H   UNL     1     -11.628   4.614  72.972  1.00  0.00     0.000 HD 
HETATM   15  C   UNL     1     -10.115   6.725  70.032  1.00  0.00    -0.200 A  
HETATM   16  S   UNL     1     -12.225  10.001  70.363  1.00  0.00    -0.116 SA 
HETATM   17  C   UNL     1     -12.115   7.607  71.773  1.00  0.00    -0.337 A  
HETATM   18  C   UNL     1     -11.583   6.330  71.896  1.00  0.00    -0.317 A  
HETATM   19  O   UNL     1     -11.992   5.488  72.888  1.00  0.00    -0.209 OA 
BRANCH  10  20
HETATM   20  O   UNL     1      -9.202   9.183  68.116  1.00  0.00    -0.132 OA 
BRANCH  20  21
HETATM   21  C   UNL     1      -8.323  10.234  68.037  1.00  0.00    -0.114 A  
HETATM   22  C   UNL     1      -6.456  12.314  67.709  1.00  0.00    -0.106 A  
HETATM   23  C   UNL     1      -7.091  11.757  66.595  1.00  0.00     0.026 A  
HETATM   24  C   UNL     1      -7.679  10.777  69.143  1.00  0.00    -0.138 A  
HETATM   25  C   UNL     1      -8.023  10.723  66.760  1.00  0.00    -0.138 A  
HETATM   26  C   UNL     1      -6.788  11.832  68.984  1.00  0.00    -0.106 A  
BRANCH  22  27
HETATM   27  O   UNL     1      -5.515  13.294  67.472  1.00  0.00    -0.288 OA 
BRANCH  27  28
HETATM   28  C   UNL     1      -5.807  14.521  68.157  1.00  0.00    -0.133 C  
BRANCH  28  29
HETATM   29  C   UNL     1      -6.915  15.349  67.498  1.00  0.00    -0.194 C  
BRANCH  29  30
HETATM   30  N   UNL     1      -7.632  16.171  68.500  1.00  0.00    -0.161 NA 
HETATM   31  C   UNL     1      -6.777  17.040  69.325  1.00  0.00    -0.234 C  
HETATM   32  C   UNL     1      -6.218  18.262  68.592  1.00  0.00    -0.208 C  
HETATM   33  C   UNL     1      -7.310  19.040  67.864  1.00  0.00    -0.271 C  
HETATM   34  C   UNL     1      -8.211  18.119  67.049  1.00  0.00    -0.246 C  
HETATM   35  C   UNL     1      -8.717  16.953  67.897  1.00  0.00    -0.213 C  
ENDBRANCH  29  30
ENDBRANCH  28  29
ENDBRANCH  27  28
ENDBRANCH  22  27
ENDBRANCH  20  21
ENDBRANCH  10  20
ENDBRANCH   6   9
ENDBRANCH   2   3
TORSDOF 8
ENDMDL
MODEL       87
REMARK 921   NORMALIZED FREE ENERGY PREDICTED BY IDOCK:   -5.11 KCAL/MOL
REMARK 922        TOTAL FREE ENERGY PREDICTED BY IDOCK:   -9.25 KCAL/MOL
REMARK 923 INTER-LIGAND FREE ENERGY PREDICTED BY IDOCK:   -7.18 KCAL/MOL
REMARK 924 INTRA-LIGAND FREE ENERGY PREDICTED BY IDOCK:   -2.06 KCAL/MOL
REMARK 927      BINDING AFFINITY PREDICTED BY RF-SCORE:    0.00 PKD
ROOT
HETATM    1  C   UNL     1     -10.652   7.640  67.201  1.00  0.00    -0.340 C  
HETATM    2  O   UNL     1      -9.984   8.361  66.173  1.00  0.00    -0.211 OA 
ENDROOT
BRANCH   2   3
HETATM    3  C   UNL     1      -9.943   9.720  66.302  1.00  0.00    -0.262 A  
HETATM    4  C   UNL     1      -9.858  10.645  65.264  1.00  0.00    -0.334 A  
HETATM    5  C   UNL     1      -9.789  12.021  65.537  1.00  0.00    -0.251 A  
HETATM    6  C   UNL     1      -9.815  12.506  66.852  1.00  0.00    -0.229 A  
HETATM    7  C   UNL     1      -9.988  10.188  67.611  1.00  0.00    -0.216 A  
HETATM    8  C   UNL     1      -9.931  11.563  67.888  1.00  0.00    -0.193 A  
BRANCH   6   9
HETATM    9  C   UNL     1      -9.667  13.958  67.129  1.00  0.00    -0.244 A  
HETATM   10  C   UNL     1      -8.535  14.734  67.365  1.00  0.00    -0.201 A  
HETATM   11  C   UNL     1      -8.842  16.112  67.715  1.00  0.00    -0.184 A  
HETATM   12  C   UNL     1      -8.586  18.477  68.341  1.00  0.00    -0.355 A  
HETATM   13  C   UNL     1     -10.216  16.348  67.621  1.00  0.00    -0.272 A  
HETATM   14  H   UNL     1      -9.855  20.652  68.604  1.00  0.00     0.000 HD 
HETATM   15  C   UNL     1      -8.029  17.219  68.088  1.00  0.00    -0.223 A  
HETATM   16  S   UNL     1     -11.083  14.920  67.259  1.00  0.00    -0.343 SA 
HETATM   17  C   UNL     1     -10.780  17.628  67.812  1.00  0.00    -0.336 A  
HETATM   18  C   UNL     1      -9.942  18.676  68.170  1.00  0.00    -0.358 A  
HETATM   19  O   UNL     1     -10.429  19.936  68.359  1.00  0.00    -0.430 OA 
BRANCH  10  20
HETATM   20  O   UNL     1      -7.299  14.192  67.165  1.00  0.00    -0.088 OA 
BRANCH  20  21
HETATM   21  C   UNL     1      -6.791  13.135  67.877  1.00  0.00    -0.135 A  
HETATM   22  C   UNL     1      -5.828  10.849  69.208  1.00  0.00    -0.042 A  
HETATM   23  C   UNL     1      -5.903  10.871  67.812  1.00  0.00    -0.043 A  
HETATM   24  C   UNL     1      -6.732  13.106  69.266  1.00  0.00    -0.061 A  
HETATM   25  C   UNL     1      -6.380  12.012  67.150  1.00  0.00    -0.149 A  
HETATM   26  C   UNL     1      -6.218  11.993  69.920  1.00  0.00    -0.130 A  
BRANCH  22  27
HETATM   27  O   UNL     1      -5.395   9.679  69.795  1.00  0.00    -0.033 OA 
BRANCH  27  28
HETATM   28  C   UNL     1      -6.034   9.422  71.055  1.00  0.00    -0.069 C  
BRANCH  28  29
HETATM   29  C   UNL     1      -7.228   8.468  70.959  1.00  0.00    -0.071 C  
BRANCH  29  30
HETATM   30  N   UNL     1      -8.297   8.855  71.909  1.00  0.00    -0.371 NA 
HETATM   31  C   UNL     1      -9.634   9.019  71.314  1.00  0.00    -0.291 C  
HETATM   32  C   UNL     1     -10.324   7.707  70.934  1.00  0.00    -0.204 C  
HETATM   33  C   UNL     1     -10.317   6.703  72.083  1.00  0.00    -0.222 C  
HETATM   34  C   UNL     1      -8.935   6.580  72.714  1.00  0.00    -0.127 C  
HETATM   35  C   UNL     1      -8.363   7.953  73.063  1.00  0.00    -0.165 C  
ENDBRANCH  29  30
ENDBRANCH  28  29
ENDBRANCH  27  28
ENDBRANCH  22  27
ENDBRANCH  20  21
ENDBRANCH  10  20
ENDBRANCH   6   9
ENDBRANCH   2   3
TORSDOF 8
ENDMDL
MODEL       88
REMARK 921   NORMALIZED FREE ENERGY PREDICTED BY IDOCK:   -5.10 KCAL/MOL
REMARK 922        TOTAL FREE ENERGY PREDICTED BY IDOCK:   -9.24 KCAL/MOL
REMARK 923 INTER-LIGAND FREE ENERGY PREDICTED BY IDOCK:   -7.42 KCAL/MOL
REMARK 924 INTRA-LIGAND FREE ENERGY PREDICTED BY IDOCK:   -1.82 KCAL/MOL
REMARK 927      BINDING AFFINITY PREDICTED BY RF-SCORE:    0.00 PKD
ROOT
HETATM    1  C   UNL     1      -5.237  12.621  67.348  1.00  0.00    -0.043 C  
HETATM    2  O   UNL     1      -6.142  11.675  66.791  1.00  0.00    -0.144 OA 
ENDROOT
BRANCH   2   3
HETATM    3  C   UNL     1      -6.836  10.896  67.672  1.00  0.00    -0.081 A  
HETATM    4  C   UNL     1      -7.127  11.208  68.997  1.00  0.00    -0.113 A  
HETATM    5  C   UNL     1      -7.823  10.298  69.809  1.00  0.00    -0.151 A  
HETATM    6  C   UNL     1      -8.255   9.060  69.314  1.00  0.00    -0.117 A  
HETATM    7  C   UNL     1      -7.274   9.678  67.161  1.00  0.00    -0.087 A  
HETATM    8  C   UNL     1      -7.980   8.771  67.966  1.00  0.00    -0.106 A  
BRANCH   6   9
HETATM    9  C   UNL     1      -8.925   8.077  70.205  1.00  0.00    -0.150 A  
HETATM   10  C   UNL     1     -10.273   7.813  70.426  1.00  0.00    -0.197 A  
HETATM   11  C   UNL     1     -10.506   6.839  71.482  1.00  0.00    -0.236 A  
HETATM   12  C   UNL     1     -11.635   5.339  73.071  1.00  0.00    -0.290 A  
HETATM   13  C   UNL     1      -9.294   6.321  71.947  1.00  0.00    -0.149 A  
HETATM   14  H   UNL     1     -11.229   3.483  74.744  1.00  0.00     0.000 HD 
HETATM   15  C   UNL     1     -11.690   6.321  72.076  1.00  0.00    -0.374 A  
HETATM   16  S   UNL     1      -7.953   7.093  71.221  1.00  0.00    -0.103 SA 
HETATM   17  C   UNL     1      -9.230   5.286  72.904  1.00  0.00    -0.137 A  
HETATM   18  C   UNL     1     -10.417   4.812  73.449  1.00  0.00    -0.209 A  
HETATM   19  O   UNL     1     -10.417   3.807  74.372  1.00  0.00    -0.191 OA 
BRANCH  10  20
HETATM   20  O   UNL     1     -11.209   8.384  69.614  1.00  0.00    -0.080 OA 
BRANCH  20  21
HETATM   21  C   UNL     1     -11.454   9.733  69.542  1.00  0.00    -0.009 A  
HETATM   22  C   UNL     1     -12.115  12.468  69.502  1.00  0.00    -0.187 A  
HETATM   23  C   UNL     1     -12.374  11.699  70.640  1.00  0.00    -0.437 A  
HETATM   24  C   UNL     1     -11.212  10.494  68.405  1.00  0.00    -0.339 A  
HETATM   25  C   UNL     1     -12.041  10.337  70.660  1.00  0.00    -0.433 A  
HETATM   26  C   UNL     1     -11.501  11.854  68.400  1.00  0.00    -0.357 A  
BRANCH  22  27
HETATM   27  O   UNL     1     -12.510  13.789  69.532  1.00  0.00    -0.271 OA 
BRANCH  27  28
HETATM   28  C   UNL     1     -11.589  14.628  70.245  1.00  0.00    -0.280 C  
BRANCH  28  29
HETATM   29  C   UNL     1     -10.480  15.214  69.367  1.00  0.00    -0.255 C  
BRANCH  29  30
HETATM   30  N   UNL     1     -11.045  16.052  68.284  1.00  0.00    -0.340 NA 
HETATM   31  C   UNL     1     -10.571  17.446  68.259  1.00  0.00    -0.366 C  
HETATM   32  C   UNL     1      -9.133  17.620  67.764  1.00  0.00    -0.247 C  
HETATM   33  C   UNL     1      -8.893  16.899  66.441  1.00  0.00    -0.322 C  
HETATM   34  C   UNL     1      -9.429  15.472  66.471  1.00  0.00    -0.299 C  
HETATM   35  C   UNL     1     -10.875  15.436  66.963  1.00  0.00    -0.320 C  
ENDBRANCH  29  30
ENDBRANCH  28  29
ENDBRANCH  27  28
ENDBRANCH  22  27
ENDBRANCH  20  21
ENDBRANCH  10  20
ENDBRANCH   6   9
ENDBRANCH   2   3
TORSDOF 8
ENDMDL
MODEL       89
REMARK 921   NORMALIZED FREE ENERGY PREDICTED BY IDOCK:   -5.08 KCAL/MOL
REMARK 922        TOTAL FREE ENERGY PREDICTED BY IDOCK:   -9.21 KCAL/MOL
REMARK 923 INTER-LIGAND FREE ENERGY PREDICTED BY IDOCK:   -7.99 KCAL/MOL
REMARK 924 INTRA-LIGAND FREE ENERGY PREDICTED BY IDOCK:   -1.23 KCAL/MOL
REMARK 927      BINDING AFFINITY PREDICTED BY RF-SCORE:    0.00 PKD
ROOT
HETATM    1  C   UNL     1     -12.880  11.801  63.356  1.00  0.00    -0.176 C  
HETATM    2  O   UNL     1     -13.263  12.553  64.501  1.00  0.00    -0.832 OA 
ENDROOT
BRANCH   2   3
HETATM    3  C   UNL     1     -12.333  13.415  65.009  1.00  0.00    -0.436 A  
HETATM    4  C   UNL     1     -11.233  13.934  64.331  1.00  0.00    -0.341 A  
HETATM    5  C   UNL     1     -10.330  14.789  64.984  1.00  0.00    -0.420 A  
HETATM    6  C   UNL     1     -10.510  15.155  66.325  1.00  0.00    -0.312 A  
HETATM    7  C   UNL     1     -12.535  13.784  66.335  1.00  0.00    -0.404 A  
HETATM    8  C   UNL     1     -11.642  14.647  66.988  1.00  0.00    -0.385 A  
BRANCH   6   9
HETATM    9  C   UNL     1      -9.508  15.999  67.024  1.00  0.00    -0.218 A  
HETATM   10  C   UNL     1      -8.298  15.672  67.628  1.00  0.00    -0.155 A  
HETATM   11  C   UNL     1      -7.671  16.793  68.312  1.00  0.00    -0.187 A  
HETATM   12  C   UNL     1      -6.081  18.142  69.618  1.00  0.00    -0.234 A  
HETATM   13  C   UNL     1      -8.397  17.967  68.097  1.00  0.00    -0.268 A  
HETATM   14  H   UNL     1      -5.527  20.513  70.311  1.00  0.00     0.000 HD 
HETATM   15  C   UNL     1      -6.489  16.910  69.096  1.00  0.00    -0.215 A  
HETATM   16  S   UNL     1      -9.837  17.672  67.223  1.00  0.00    -0.315 SA 
HETATM   17  C   UNL     1      -7.961  19.225  68.565  1.00  0.00    -0.396 A  
HETATM   18  C   UNL     1      -6.798  19.284  69.322  1.00  0.00    -0.318 A  
HETATM   19  O   UNL     1      -6.323  20.473  69.793  1.00  0.00    -0.281 OA 
BRANCH  10  20
HETATM   20  O   UNL     1      -7.781  14.421  67.458  1.00  0.00    -0.165 OA 
BRANCH  20  21
HETATM   21  C   UNL     1      -8.496  13.259  67.611  1.00  0.00    -0.191 A  
HETATM   22  C   UNL     1      -9.992  10.878  67.733  1.00  0.00    -0.176 A  
HETATM   23  C   UNL     1      -9.171  11.137  66.631  1.00  0.00    -0.188 A  
HETATM   24  C   UNL     1      -9.324  13.008  68.698  1.00  0.00     0.009 A  
HETATM   25  C   UNL     1      -8.424  12.323  66.573  1.00  0.00     0.013 A  
HETATM   26  C   UNL     1     -10.031  11.814  68.777  1.00  0.00    -0.128 A  
BRANCH  22  27
HETATM   27  O   UNL     1     -10.735   9.717  67.704  1.00  0.00    -0.267 OA 
BRANCH  27  28
HETATM   28  C   UNL     1     -10.319   8.767  68.695  1.00  0.00    -0.205 C  
BRANCH  28  29
HETATM   29  C   UNL     1     -10.067   7.362  68.139  1.00  0.00    -0.179 C  
BRANCH  29  30
HETATM   30  N   UNL     1      -8.850   7.333  67.295  1.00  0.00    -0.123 NA 
HETATM   31  C   UNL     1      -7.583   7.543  68.016  1.00  0.00    -0.110 C  
HETATM   32  C   UNL     1      -7.131   6.352  68.865  1.00  0.00    -0.082 C  
HETATM   33  C   UNL     1      -7.142   5.048  68.072  1.00  0.00    -0.062 C  
HETATM   34  C   UNL     1      -8.444   4.869  67.298  1.00  0.00    -0.105 C  
HETATM   35  C   UNL     1      -8.773   6.117  66.479  1.00  0.00    -0.133 C  
ENDBRANCH  29  30
ENDBRANCH  28  29
ENDBRANCH  27  28
ENDBRANCH  22  27
ENDBRANCH  20  21
ENDBRANCH  10  20
ENDBRANCH   6   9
ENDBRANCH   2   3
TORSDOF 8
ENDMDL
MODEL       90
REMARK 921   NORMALIZED FREE ENERGY PREDICTED BY IDOCK:   -5.08 KCAL/MOL
REMARK 922        TOTAL FREE ENERGY PREDICTED BY IDOCK:   -9.20 KCAL/MOL
REMARK 923 INTER-LIGAND FREE ENERGY PREDICTED BY IDOCK:   -7.50 KCAL/MOL
REMARK 924 INTRA-LIGAND FREE ENERGY PREDICTED BY IDOCK:   -1.71 KCAL/MOL
REMARK 927      BINDING AFFINITY PREDICTED BY RF-SCORE:    0.00 PKD
ROOT
HETATM    1  C   UNL     1      -5.262  14.735  67.630  1.00  0.00     0.092 C  
HETATM    2  O   UNL     1      -5.161  13.378  67.215  1.00  0.00    -0.330 OA 
ENDROOT
BRANCH   2   3
HETATM    3  C   UNL     1      -6.036  12.496  67.779  1.00  0.00    -0.119 A  
HETATM    4  C   UNL     1      -7.176  12.819  68.512  1.00  0.00    -0.114 A  
HETATM    5  C   UNL     1      -7.977  11.809  69.070  1.00  0.00     0.100 A  
HETATM    6  C   UNL     1      -7.666  10.453  68.900  1.00  0.00    -0.111 A  
HETATM    7  C   UNL     1      -5.725  11.154  67.587  1.00  0.00    -0.044 A  
HETATM    8  C   UNL     1      -6.529  10.141  68.134  1.00  0.00    -0.057 A  
BRANCH   6   9
HETATM    9  C   UNL     1      -8.479   9.399  69.558  1.00  0.00    -0.152 A  
HETATM   10  C   UNL     1      -9.698   8.828  69.203  1.00  0.00    -0.175 A  
HETATM   11  C   UNL     1     -10.214   7.900  70.199  1.00  0.00    -0.202 A  
HETATM   12  C   UNL     1     -11.657   6.280  71.358  1.00  0.00    -0.338 A  
HETATM   13  C   UNL     1      -9.290   7.726  71.232  1.00  0.00    -0.152 A  
HETATM   14  H   UNL     1     -11.747   4.696  73.331  1.00  0.00     0.000 HD 
HETATM   15  C   UNL     1     -11.419   7.150  70.288  1.00  0.00    -0.287 A  
HETATM   16  S   UNL     1      -7.934   8.752  71.053  1.00  0.00    -0.155 SA 
HETATM   17  C   UNL     1      -9.492   6.805  72.282  1.00  0.00    -0.149 A  
HETATM   18  C   UNL     1     -10.685   6.093  72.320  1.00  0.00    -0.229 A  
HETATM   19  O   UNL     1     -10.931   5.183  73.305  1.00  0.00    -0.263 OA 
BRANCH  10  20
HETATM   20  O   UNL     1     -10.231   9.098  67.977  1.00  0.00    -0.190 OA 
BRANCH  20  21
HETATM   21  C   UNL     1     -10.656  10.339  67.571  1.00  0.00    -0.268 A  
HETATM   22  C   UNL     1     -11.690  12.851  66.835  1.00  0.00    -0.382 A  
HETATM   23  C   UNL     1     -11.978  12.312  68.093  1.00  0.00    -0.256 A  
HETATM   24  C   UNL     1     -10.383  10.867  66.315  1.00  0.00    -0.306 A  
HETATM   25  C   UNL     1     -11.460  11.062  68.459  1.00  0.00    -0.379 A  
HETATM   26  C   UNL     1     -10.860  12.126  65.968  1.00  0.00    -0.318 A  
BRANCH  22  27
HETATM   27  O   UNL     1     -12.271  14.062  66.522  1.00  0.00    -0.447 OA 
BRANCH  27  28
HETATM   28  C   UNL     1     -11.306  15.068  66.181  1.00  0.00    -0.270 C  
BRANCH  28  29
HETATM   29  C   UNL     1     -10.555  15.639  67.387  1.00  0.00    -0.301 C  
BRANCH  29  30
HETATM   30  N   UNL     1     -10.735  17.107  67.480  1.00  0.00    -0.318 NA 
HETATM   31  C   UNL     1     -10.128  17.738  68.664  1.00  0.00    -0.384 C  
HETATM   32  C   UNL     1      -8.602  17.839  68.617  1.00  0.00    -0.264 C  
HETATM   33  C   UNL     1      -8.110  18.455  67.312  1.00  0.00    -0.243 C  
HETATM   34  C   UNL     1      -8.781  17.819  66.099  1.00  0.00    -0.125 C  
HETATM   35  C   UNL     1     -10.301  17.795  66.260  1.00  0.00    -0.358 C  
ENDBRANCH  29  30
ENDBRANCH  28  29
ENDBRANCH  27  28
ENDBRANCH  22  27
ENDBRANCH  20  21
ENDBRANCH  10  20
ENDBRANCH   6   9
ENDBRANCH   2   3
TORSDOF 8
ENDMDL
MODEL       91
REMARK 921   NORMALIZED FREE ENERGY PREDICTED BY IDOCK:   -5.07 KCAL/MOL
REMARK 922        TOTAL FREE ENERGY PREDICTED BY IDOCK:   -9.20 KCAL/MOL
REMARK 923 INTER-LIGAND FREE ENERGY PREDICTED BY IDOCK:   -8.17 KCAL/MOL
REMARK 924 INTRA-LIGAND FREE ENERGY PREDICTED BY IDOCK:   -1.03 KCAL/MOL
REMARK 927      BINDING AFFINITY PREDICTED BY RF-SCORE:    0.00 PKD
ROOT
HETATM    1  C   UNL     1      -9.411   2.761  68.195  1.00  0.00    -0.203 C  
HETATM    2  O   UNL     1      -9.890   3.693  67.232  1.00  0.00    -0.138 OA 
ENDROOT
BRANCH   2   3
HETATM    3  C   UNL     1      -9.522   4.997  67.403  1.00  0.00    -0.137 A  
HETATM    4  C   UNL     1      -8.946   5.824  66.441  1.00  0.00    -0.139 A  
HETATM    5  C   UNL     1      -8.582   7.142  66.759  1.00  0.00    -0.124 A  
HETATM    6  C   UNL     1      -8.796   7.670  68.040  1.00  0.00    -0.127 A  
HETATM    7  C   UNL     1      -9.757   5.512  68.673  1.00  0.00    -0.186 A  
HETATM    8  C   UNL     1      -9.405   6.833  68.991  1.00  0.00    -0.134 A  
BRANCH   6   9
HETATM    9  C   UNL     1      -8.339   9.041  68.383  1.00  0.00    -0.124 A  
HETATM   10  C   UNL     1      -8.802  10.289  67.977  1.00  0.00    -0.122 A  
HETATM   11  C   UNL     1      -7.987  11.394  68.459  1.00  0.00    -0.143 A  
HETATM   12  C   UNL     1      -7.142  13.665  68.879  1.00  0.00    -0.102 A  
HETATM   13  C   UNL     1      -6.986  10.928  69.315  1.00  0.00    -0.112 A  
HETATM   14  H   UNL     1      -5.469  14.984  70.247  1.00  0.00     0.000 HD 
HETATM   15  C   UNL     1      -8.044  12.800  68.251  1.00  0.00    -0.154 A  
HETATM   16  S   UNL     1      -6.969   9.221  69.403  1.00  0.00    -0.050 SA 
HETATM   17  C   UNL     1      -6.111  11.797  70.002  1.00  0.00    -0.158 A  
HETATM   18  C   UNL     1      -6.212  13.162  69.766  1.00  0.00    -0.108 A  
HETATM   19  O   UNL     1      -5.400  14.050  70.409  1.00  0.00    -0.098 OA 
BRANCH  10  20
HETATM   20  O   UNL     1      -9.972  10.374  67.280  1.00  0.00    -0.175 OA 
BRANCH  20  21
HETATM   21  C   UNL     1     -10.413  11.505  66.639  1.00  0.00    -0.238 A  
HETATM   22  C   UNL     1     -11.494  13.783  65.390  1.00  0.00    -0.311 A  
HETATM   23  C   UNL     1     -11.992  13.355  66.624  1.00  0.00    -0.452 A  
HETATM   24  C   UNL     1      -9.929  11.922  65.405  1.00  0.00    -0.281 A  
HETATM   25  C   UNL     1     -11.450  12.221  67.246  1.00  0.00    -0.426 A  
HETATM   26  C   UNL     1     -10.435  13.071  64.808  1.00  0.00    -0.382 A  
BRANCH  22  27
HETATM   27  O   UNL     1     -12.104  14.877  64.811  1.00  0.00    -0.393 OA 
BRANCH  27  28
HETATM   28  C   UNL     1     -11.213  15.991  64.655  1.00  0.00    -0.330 C  
BRANCH  28  29
HETATM   29  C   UNL     1     -10.536  16.428  65.957  1.00  0.00    -0.323 C  
BRANCH  29  30
HETATM   30  N   UNL     1      -9.727  17.653  65.752  1.00  0.00    -0.538 NA 
HETATM   31  C   UNL     1     -10.444  18.920  65.971  1.00  0.00    -0.446 C  
HETATM   32  C   UNL     1     -10.725  19.245  67.440  1.00  0.00    -0.594 C  
HETATM   33  C   UNL     1      -9.472  19.128  68.302  1.00  0.00    -0.408 C  
HETATM   34  C   UNL     1      -8.720  17.830  68.030  1.00  0.00    -0.251 C  
HETATM   35  C   UNL     1      -8.486  17.631  66.533  1.00  0.00    -0.264 C  
ENDBRANCH  29  30
ENDBRANCH  28  29
ENDBRANCH  27  28
ENDBRANCH  22  27
ENDBRANCH  20  21
ENDBRANCH  10  20
ENDBRANCH   6   9
ENDBRANCH   2   3
TORSDOF 8
ENDMDL
MODEL       92
REMARK 921   NORMALIZED FREE ENERGY PREDICTED BY IDOCK:   -5.04 KCAL/MOL
REMARK 922        TOTAL FREE ENERGY PREDICTED BY IDOCK:   -9.15 KCAL/MOL
REMARK 923 INTER-LIGAND FREE ENERGY PREDICTED BY IDOCK:   -7.31 KCAL/MOL
REMARK 924 INTRA-LIGAND FREE ENERGY PREDICTED BY IDOCK:   -1.84 KCAL/MOL
REMARK 927      BINDING AFFINITY PREDICTED BY RF-SCORE:    0.00 PKD
ROOT
HETATM    1  C   UNL     1     -10.346   6.504  73.404  1.00  0.00    -0.260 C  
HETATM    2  O   UNL     1      -9.935   7.866  73.453  1.00  0.00    -0.314 OA 
ENDROOT
BRANCH   2   3
HETATM    3  C   UNL     1      -9.998   8.569  72.284  1.00  0.00    -0.315 A  
HETATM    4  C   UNL     1      -8.929   8.865  71.441  1.00  0.00    -0.300 A  
HETATM    5  C   UNL     1      -9.126   9.630  70.280  1.00  0.00    -0.272 A  
HETATM    6  C   UNL     1     -10.396  10.107  69.927  1.00  0.00    -0.308 A  
HETATM    7  C   UNL     1     -11.267   9.020  71.937  1.00  0.00    -0.438 A  
HETATM    8  C   UNL     1     -11.470   9.775  70.771  1.00  0.00    -0.417 A  
BRANCH   6   9
HETATM    9  C   UNL     1     -10.577  10.977  68.737  1.00  0.00    -0.202 A  
HETATM   10  C   UNL     1      -9.682  11.369  67.745  1.00  0.00    -0.175 A  
HETATM   11  C   UNL     1     -10.240  12.338  66.812  1.00  0.00    -0.229 A  
HETATM   12  C   UNL     1     -10.471  13.907  64.933  1.00  0.00    -0.446 A  
HETATM   13  C   UNL     1     -11.593  12.556  67.083  1.00  0.00    -0.368 A  
HETATM   14  H   UNL     1     -12.155  15.291  63.644  1.00  0.00     0.000 HD 
HETATM   15  C   UNL     1      -9.689  13.043  65.707  1.00  0.00    -0.157 A  
HETATM   16  S   UNL     1     -12.103  11.724  68.487  1.00  0.00     0.116 SA 
HETATM   17  C   UNL     1     -12.406  13.376  66.271  1.00  0.00    -0.410 A  
HETATM   18  C   UNL     1     -11.819  14.039  65.201  1.00  0.00    -0.365 A  
HETATM   19  O   UNL     1     -12.557  14.837  64.376  1.00  0.00    -0.626 OA 
BRANCH  10  20
HETATM   20  O   UNL     1      -8.456  10.774  67.677  1.00  0.00    -0.119 OA 
BRANCH  20  21
HETATM   21  C   UNL     1      -8.213   9.567  67.070  1.00  0.00    -0.113 A  
HETATM   22  C   UNL     1      -7.552   7.169  65.754  1.00  0.00    -0.094 A  
HETATM   23  C   UNL     1      -6.546   7.974  66.297  1.00  0.00    -0.047 A  
HETATM   24  C   UNL     1      -9.212   8.776  66.515  1.00  0.00    -0.228 A  
HETATM   25  C   UNL     1      -6.877   9.167  66.955  1.00  0.00    -0.080 A  
HETATM   26  C   UNL     1      -8.888   7.571  65.901  1.00  0.00    -0.157 A  
BRANCH  22  27
HETATM   27  O   UNL     1      -7.153   6.034  65.079  1.00  0.00    -0.057 OA 
BRANCH  27  28
HETATM   28  C   UNL     1      -7.002   4.899  65.944  1.00  0.00    -0.066 C  
BRANCH  28  29
HETATM   29  C   UNL     1      -8.319   4.398  66.542  1.00  0.00    -0.105 C  
BRANCH  29  30
HETATM   30  N   UNL     1      -8.120   3.894  67.921  1.00  0.00    -0.088 NA 
HETATM   31  C   UNL     1      -7.274   4.739  68.781  1.00  0.00    -0.057 C  
HETATM   32  C   UNL     1      -7.941   6.032  69.254  1.00  0.00    -0.103 C  
HETATM   33  C   UNL     1      -9.317   5.777  69.862  1.00  0.00    -0.177 C  
HETATM   34  C   UNL     1     -10.163   4.865  68.980  1.00  0.00    -0.164 C  
HETATM   35  C   UNL     1      -9.392   3.604  68.592  1.00  0.00    -0.164 C  
ENDBRANCH  29  30
ENDBRANCH  28  29
ENDBRANCH  27  28
ENDBRANCH  22  27
ENDBRANCH  20  21
ENDBRANCH  10  20
ENDBRANCH   6   9
ENDBRANCH   2   3
TORSDOF 8
ENDMDL
MODEL       93
REMARK 921   NORMALIZED FREE ENERGY PREDICTED BY IDOCK:   -5.04 KCAL/MOL
REMARK 922        TOTAL FREE ENERGY PREDICTED BY IDOCK:   -9.15 KCAL/MOL
REMARK 923 INTER-LIGAND FREE ENERGY PREDICTED BY IDOCK:   -8.11 KCAL/MOL
REMARK 924 INTRA-LIGAND FREE ENERGY PREDICTED BY IDOCK:   -1.04 KCAL/MOL
REMARK 927      BINDING AFFINITY PREDICTED BY RF-SCORE:    0.00 PKD
ROOT
HETATM    1  C   UNL     1      -9.542   4.089  66.765  1.00  0.00    -0.211 C  
HETATM    2  O   UNL     1      -9.445   5.406  66.237  1.00  0.00    -0.149 OA 
ENDROOT
BRANCH   2   3
HETATM    3  C   UNL     1      -9.869   6.424  67.042  1.00  0.00    -0.154 A  
HETATM    4  C   UNL     1     -10.599   6.293  68.221  1.00  0.00    -0.318 A  
HETATM    5  C   UNL     1     -11.004   7.430  68.940  1.00  0.00    -0.006 A  
HETATM    6  C   UNL     1     -10.680   8.723  68.506  1.00  0.00    -0.108 A  
HETATM    7  C   UNL     1      -9.525   7.700  66.608  1.00  0.00    -0.255 A  
HETATM    8  C   UNL     1      -9.917   8.838  67.330  1.00  0.00    -0.267 A  
BRANCH   6   9
HETATM    9  C   UNL     1     -11.178   9.917  69.236  1.00  0.00    -0.130 A  
HETATM   10  C   UNL     1     -11.932  10.029  70.400  1.00  0.00    -0.236 A  
HETATM   11  C   UNL     1     -12.312  11.398  70.714  1.00  0.00    -0.483 A  
HETATM   12  C   UNL     1     -13.288  13.353  71.844  1.00  0.00    -0.539 A  
HETATM   13  C   UNL     1     -11.724  12.289  69.812  1.00  0.00    -0.298 A  
HETATM   14  H   UNL     1     -13.319  15.884  71.850  1.00  0.00     0.000 HD 
HETATM   15  C   UNL     1     -13.110  11.968  71.744  1.00  0.00    -0.460 A  
HETATM   16  S   UNL     1     -10.873  11.472  68.575  1.00  0.00    -0.230 SA 
HETATM   17  C   UNL     1     -11.846  13.689  69.941  1.00  0.00    -0.389 A  
HETATM   18  C   UNL     1     -12.633  14.195  70.968  1.00  0.00    -0.369 A  
HETATM   19  O   UNL     1     -12.780  15.539  71.147  1.00  0.00    -0.402 OA 
BRANCH  10  20
HETATM   20  O   UNL     1     -12.158   8.919  71.161  1.00  0.00    -0.291 OA 
BRANCH  20  21
HETATM   21  C   UNL     1     -11.247   8.379  72.035  1.00  0.00    -0.334 A  
HETATM   22  C   UNL     1      -9.243   7.313  73.698  1.00  0.00    -0.219 A  
HETATM   23  C   UNL     1      -8.976   8.432  72.903  1.00  0.00    -0.266 A  
HETATM   24  C   UNL     1     -11.507   7.257  72.813  1.00  0.00    -0.273 A  
HETATM   25  C   UNL     1      -9.977   8.963  72.077  1.00  0.00    -0.338 A  
HETATM   26  C   UNL     1     -10.530   6.756  73.665  1.00  0.00    -0.374 A  
BRANCH  22  27
HETATM   27  O   UNL     1      -8.200   6.814  74.450  1.00  0.00    -0.122 OA 
BRANCH  27  28
HETATM   28  C   UNL     1      -7.480   5.771  73.776  1.00  0.00    -0.093 C  
BRANCH  28  29
HETATM   29  C   UNL     1      -7.906   4.359  74.188  1.00  0.00    -0.092 C  
BRANCH  29  30
HETATM   30  N   UNL     1      -7.615   3.380  73.115  1.00  0.00    -0.059 NA 
HETATM   31  C   UNL     1      -8.011   1.993  73.409  1.00  0.00    -0.043 C  
HETATM   32  C   UNL     1      -9.519   1.738  73.355  1.00  0.00    -0.089 C  
HETATM   33  C   UNL     1     -10.141   2.260  72.064  1.00  0.00    -0.210 C  
HETATM   34  C   UNL     1      -9.686   3.682  71.753  1.00  0.00    -0.233 C  
HETATM   35  C   UNL     1      -8.164   3.800  71.821  1.00  0.00    -0.074 C  
ENDBRANCH  29  30
ENDBRANCH  28  29
ENDBRANCH  27  28
ENDBRANCH  22  27
ENDBRANCH  20  21
ENDBRANCH  10  20
ENDBRANCH   6   9
ENDBRANCH   2   3
TORSDOF 8
ENDMDL
MODEL       94
REMARK 921   NORMALIZED FREE ENERGY PREDICTED BY IDOCK:   -5.02 KCAL/MOL
REMARK 922        TOTAL FREE ENERGY PREDICTED BY IDOCK:   -9.12 KCAL/MOL
REMARK 923 INTER-LIGAND FREE ENERGY PREDICTED BY IDOCK:   -7.73 KCAL/MOL
REMARK 924 INTRA-LIGAND FREE ENERGY PREDICTED BY IDOCK:   -1.39 KCAL/MOL
REMARK 927      BINDING AFFINITY PREDICTED BY RF-SCORE:    0.00 PKD
ROOT
HETATM    1  C   UNL     1      -9.189   4.831  67.816  1.00  0.00    -0.125 C  
HETATM    2  O   UNL     1      -8.850   5.217  66.489  1.00  0.00    -0.116 OA 
ENDROOT
BRANCH   2   3
HETATM    3  C   UNL     1      -9.035   6.530  66.164  1.00  0.00    -0.146 A  
HETATM    4  C   UNL     1      -8.271   7.273  65.267  1.00  0.00    -0.126 A  
HETATM    5  C   UNL     1      -8.549   8.632  65.048  1.00  0.00    -0.185 A  
HETATM    6  C   UNL     1      -9.602   9.279  65.711  1.00  0.00    -0.341 A  
HETATM    7  C   UNL     1     -10.094   7.153  66.815  1.00  0.00    -0.278 A  
HETATM    8  C   UNL     1     -10.382   8.508  66.591  1.00  0.00    -0.303 A  
BRANCH   6   9
HETATM    9  C   UNL     1      -9.836  10.734  65.526  1.00  0.00    -0.255 A  
HETATM   10  C   UNL     1      -9.274  11.839  66.158  1.00  0.00    -0.210 A  
HETATM   11  C   UNL     1      -9.877  13.102  65.758  1.00  0.00    -0.214 A  
HETATM   12  C   UNL     1     -10.370  15.506  65.588  1.00  0.00    -0.407 A  
HETATM   13  C   UNL     1     -10.812  12.899  64.741  1.00  0.00    -0.327 A  
HETATM   14  H   UNL     1     -11.677  17.216  64.256  1.00  0.00     0.000 HD 
HETATM   15  C   UNL     1      -9.670  14.446  66.175  1.00  0.00    -0.335 A  
HETATM   16  S   UNL     1     -11.032  11.238  64.402  1.00  0.00    -0.181 SA 
HETATM   17  C   UNL     1     -11.477  13.966  64.098  1.00  0.00    -0.270 A  
HETATM   18  C   UNL     1     -11.236  15.260  64.541  1.00  0.00    -0.280 A  
HETATM   19  O   UNL     1     -11.843  16.331  63.952  1.00  0.00    -0.994 OA 
BRANCH  10  20
HETATM   20  O   UNL     1      -8.201  11.665  66.981  1.00  0.00    -0.157 OA 
BRANCH  20  21
HETATM   21  C   UNL     1      -8.183  10.824  68.067  1.00  0.00    -0.115 A  
HETATM   22  C   UNL     1      -8.065   8.967  70.178  1.00  0.00    -0.126 A  
HETATM   23  C   UNL     1      -7.041   9.017  69.227  1.00  0.00    -0.058 A  
HETATM   24  C   UNL     1      -9.209  10.763  69.002  1.00  0.00    -0.157 A  
HETATM   25  C   UNL     1      -7.100   9.945  68.177  1.00  0.00    -0.077 A  
HETATM   26  C   UNL     1      -9.130   9.873  70.068  1.00  0.00    -0.217 A  
BRANCH  22  27
HETATM   27  O   UNL     1      -7.968   7.999  71.156  1.00  0.00    -0.086 OA 
BRANCH  27  28
HETATM   28  C   UNL     1      -8.857   8.233  72.258  1.00  0.00    -0.209 C  
BRANCH  28  29
HETATM   29  C   UNL     1      -8.830   7.130  73.319  1.00  0.00    -0.138 C  
BRANCH  29  30
HETATM   30  N   UNL     1      -8.999   5.793  72.703  1.00  0.00    -0.132 NA 
HETATM   31  C   UNL     1      -9.247   4.694  73.651  1.00  0.00    -0.114 C  
HETATM   32  C   UNL     1     -10.649   4.687  74.264  1.00  0.00    -0.328 C  
HETATM   33  C   UNL     1     -11.738   4.796  73.201  1.00  0.00    -0.213 C  
HETATM   34  C   UNL     1     -11.443   5.911  72.204  1.00  0.00    -0.333 C  
HETATM   35  C   UNL     1     -10.023   5.796  71.652  1.00  0.00    -0.174 C  
ENDBRANCH  29  30
ENDBRANCH  28  29
ENDBRANCH  27  28
ENDBRANCH  22  27
ENDBRANCH  20  21
ENDBRANCH  10  20
ENDBRANCH   6   9
ENDBRANCH   2   3
TORSDOF 8
ENDMDL
MODEL       95
REMARK 921   NORMALIZED FREE ENERGY PREDICTED BY IDOCK:   -4.97 KCAL/MOL
REMARK 922        TOTAL FREE ENERGY PREDICTED BY IDOCK:   -9.05 KCAL/MOL
REMARK 923 INTER-LIGAND FREE ENERGY PREDICTED BY IDOCK:   -8.37 KCAL/MOL
REMARK 924 INTRA-LIGAND FREE ENERGY PREDICTED BY IDOCK:   -0.68 KCAL/MOL
REMARK 927      BINDING AFFINITY PREDICTED BY RF-SCORE:    0.00 PKD
ROOT
HETATM    1  C   UNL     1     -10.264  20.079  66.605  1.00  0.00    -0.471 C  
HETATM    2  O   UNL     1      -9.767  18.802  66.224  1.00  0.00    -0.343 OA 
ENDROOT
BRANCH   2   3
HETATM    3  C   UNL     1     -10.172  17.736  66.975  1.00  0.00    -0.346 A  
HETATM    4  C   UNL     1     -10.275  17.697  68.364  1.00  0.00    -0.381 A  
HETATM    5  C   UNL     1     -10.674  16.519  69.017  1.00  0.00    -0.332 A  
HETATM    6  C   UNL     1     -10.990  15.357  68.300  1.00  0.00    -0.288 A  
HETATM    7  C   UNL     1     -10.499  16.595  66.249  1.00  0.00    -0.272 A  
HETATM    8  C   UNL     1     -10.909  15.420  66.897  1.00  0.00    -0.313 A  
BRANCH   6   9
HETATM    9  C   UNL     1     -11.337  14.098  69.007  1.00  0.00    -0.275 A  
HETATM   10  C   UNL     1     -11.031  12.771  68.720  1.00  0.00    -0.250 A  
HETATM   11  C   UNL     1     -11.675  11.821  69.614  1.00  0.00    -0.413 A  
HETATM   12  C   UNL     1     -12.380   9.717  70.674  1.00  0.00    -0.201 A  
HETATM   13  C   UNL     1     -12.368  12.492  70.626  1.00  0.00    -0.282 A  
HETATM   14  H   UNL     1     -13.577   8.766  72.692  1.00  0.00     0.000 HD 
HETATM   15  C   UNL     1     -11.699  10.400  69.661  1.00  0.00    -0.283 A  
HETATM   16  S   UNL     1     -12.338  14.187  70.400  1.00  0.00    -0.368 SA 
HETATM   17  C   UNL     1     -13.005  11.814  71.687  1.00  0.00    -0.467 A  
HETATM   18  C   UNL     1     -12.994  10.425  71.688  1.00  0.00    -0.475 A  
HETATM   19  O   UNL     1     -13.585   9.716  72.692  1.00  0.00    -0.327 OA 
BRANCH  10  20
HETATM   20  O   UNL     1     -10.126  12.491  67.738  1.00  0.00    -0.209 OA 
BRANCH  20  21
HETATM   21  C   UNL     1      -9.678  11.230  67.432  1.00  0.00    -0.173 A  
HETATM   22  C   UNL     1      -8.581   8.709  66.832  1.00  0.00    -0.120 A  
HETATM   23  C   UNL     1      -7.987   9.521  67.802  1.00  0.00    -0.099 A  
HETATM   24  C   UNL     1     -10.259  10.429  66.456  1.00  0.00    -0.289 A  
HETATM   25  C   UNL     1      -8.537  10.776  68.102  1.00  0.00    -0.129 A  
HETATM   26  C   UNL     1      -9.741   9.167  66.189  1.00  0.00    -0.357 A  
BRANCH  22  27
HETATM   27  O   UNL     1      -7.962   7.509  66.553  1.00  0.00    -0.102 OA 
BRANCH  27  28
HETATM   28  C   UNL     1      -7.807   7.279  65.145  1.00  0.00    -0.123 C  
BRANCH  28  29
HETATM   29  C   UNL     1      -7.446   5.834  64.790  1.00  0.00    -0.076 C  
BRANCH  29  30
HETATM   30  N   UNL     1      -8.568   4.915  65.092  1.00  0.00    -0.139 NA 
HETATM   31  C   UNL     1      -9.192   4.281  63.919  1.00  0.00    -0.143 C  
HETATM   32  C   UNL     1      -8.350   3.181  63.268  1.00  0.00    -0.085 C  
HETATM   33  C   UNL     1      -7.857   2.160  64.289  1.00  0.00    -0.073 C  
HETATM   34  C   UNL     1      -7.253   2.835  65.516  1.00  0.00    -0.066 C  
HETATM   35  C   UNL     1      -8.197   3.897  66.080  1.00  0.00    -0.101 C  
ENDBRANCH  29  30
ENDBRANCH  28  29
ENDBRANCH  27  28
ENDBRANCH  22  27
ENDBRANCH  20  21
ENDBRANCH  10  20
ENDBRANCH   6   9
ENDBRANCH   2   3
TORSDOF 8
ENDMDL
MODEL       96
REMARK 921   NORMALIZED FREE ENERGY PREDICTED BY IDOCK:   -4.97 KCAL/MOL
REMARK 922        TOTAL FREE ENERGY PREDICTED BY IDOCK:   -9.05 KCAL/MOL
REMARK 923 INTER-LIGAND FREE ENERGY PREDICTED BY IDOCK:   -6.51 KCAL/MOL
REMARK 924 INTRA-LIGAND FREE ENERGY PREDICTED BY IDOCK:   -2.54 KCAL/MOL
REMARK 927      BINDING AFFINITY PREDICTED BY RF-SCORE:    0.00 PKD
ROOT
HETATM    1  C   UNL     1     -11.234  15.192  70.228  1.00  0.00    -0.277 C  
HETATM    2  O   UNL     1     -11.787  14.452  69.146  1.00  0.00    -0.291 OA 
ENDROOT
BRANCH   2   3
HETATM    3  C   UNL     1     -10.987  13.502  68.579  1.00  0.00    -0.267 A  
HETATM    4  C   UNL     1      -9.598  13.438  68.661  1.00  0.00    -0.064 A  
HETATM    5  C   UNL     1      -8.890  12.422  67.998  1.00  0.00    -0.187 A  
HETATM    6  C   UNL     1      -9.552  11.439  67.249  1.00  0.00    -0.187 A  
HETATM    7  C   UNL     1     -11.659  12.523  67.853  1.00  0.00    -0.403 A  
HETATM    8  C   UNL     1     -10.955  11.500  67.200  1.00  0.00    -0.338 A  
BRANCH   6   9
HETATM    9  C   UNL     1      -8.786  10.415  66.493  1.00  0.00    -0.136 A  
HETATM   10  C   UNL     1      -7.591   9.765  66.787  1.00  0.00    -0.095 A  
HETATM   11  C   UNL     1      -7.117   8.909  65.709  1.00  0.00    -0.084 A  
HETATM   12  C   UNL     1      -5.748   7.341  64.400  1.00  0.00    -0.033 A  
HETATM   13  C   UNL     1      -8.051   8.867  64.671  1.00  0.00    -0.151 A  
HETATM   14  H   UNL     1      -5.731   5.938  62.292  1.00  0.00     0.000 HD 
HETATM   15  C   UNL     1      -5.945   8.120  65.545  1.00  0.00    -0.045 A  
HETATM   16  S   UNL     1      -9.362   9.928  64.951  1.00  0.00    -0.276 SA 
HETATM   17  C   UNL     1      -7.892   8.036  63.541  1.00  0.00    -0.146 A  
HETATM   18  C   UNL     1      -6.731   7.282  63.431  1.00  0.00    -0.053 A  
HETATM   19  O   UNL     1      -6.526   6.454  62.367  1.00  0.00    -0.030 OA 
BRANCH  10  20
HETATM   20  O   UNL     1      -7.042   9.901  68.029  1.00  0.00    -0.080 OA 
BRANCH  20  21
HETATM   21  C   UNL     1      -7.434   9.185  69.133  1.00  0.00    -0.072 A  
HETATM   22  C   UNL     1      -8.371   7.632  71.284  1.00  0.00    -0.107 A  
HETATM   23  C   UNL     1      -8.352   7.102  69.991  1.00  0.00    -0.138 A  
HETATM   24  C   UNL     1      -7.468   9.717  70.416  1.00  0.00    -0.168 A  
HETATM   25  C   UNL     1      -7.882   7.877  68.920  1.00  0.00    -0.117 A  
HETATM   26  C   UNL     1      -7.892   8.935  71.485  1.00  0.00    -0.107 A  
BRANCH  22  27
HETATM   27  O   UNL     1      -8.890   6.834  72.282  1.00  0.00    -0.132 OA 
BRANCH  27  28
HETATM   28  C   UNL     1     -10.282   6.543  72.092  1.00  0.00    -0.185 C  
BRANCH  28  29
HETATM   29  C   UNL     1     -11.218   7.640  72.607  1.00  0.00    -0.366 C  
BRANCH  29  30
HETATM   30  N   UNL     1     -12.302   7.916  71.635  1.00  0.00    -0.306 NA 
HETATM   31  C   UNL     1     -13.352   8.832  72.110  1.00  0.00    -0.423 C  
HETATM   32  C   UNL     1     -12.926  10.300  72.186  1.00  0.00    -0.410 C  
HETATM   33  C   UNL     1     -12.281  10.776  70.888  1.00  0.00    -0.487 C  
HETATM   34  C   UNL     1     -11.227   9.794  70.389  1.00  0.00    -0.362 C  
HETATM   35  C   UNL     1     -11.780   8.370  70.341  1.00  0.00     0.014 C  
ENDBRANCH  29  30
ENDBRANCH  28  29
ENDBRANCH  27  28
ENDBRANCH  22  27
ENDBRANCH  20  21
ENDBRANCH  10  20
ENDBRANCH   6   9
ENDBRANCH   2   3
TORSDOF 8
ENDMDL
MODEL       97
REMARK 921   NORMALIZED FREE ENERGY PREDICTED BY IDOCK:   -4.95 KCAL/MOL
REMARK 922        TOTAL FREE ENERGY PREDICTED BY IDOCK:   -9.02 KCAL/MOL
REMARK 923 INTER-LIGAND FREE ENERGY PREDICTED BY IDOCK:   -6.67 KCAL/MOL
REMARK 924 INTRA-LIGAND FREE ENERGY PREDICTED BY IDOCK:   -2.35 KCAL/MOL
REMARK 927      BINDING AFFINITY PREDICTED BY RF-SCORE:    0.00 PKD
ROOT
HETATM    1  C   UNL     1     -12.499  13.100  71.244  1.00  0.00    -0.232 C  
HETATM    2  O   UNL     1     -13.445  12.038  71.299  1.00  0.00     0.054 OA 
ENDROOT
BRANCH   2   3
HETATM    3  C   UNL     1     -12.943  10.776  71.436  1.00  0.00    -0.432 A  
HETATM    4  C   UNL     1     -13.583   9.695  72.041  1.00  0.00    -0.467 A  
HETATM    5  C   UNL     1     -12.938   8.452  72.147  1.00  0.00    -0.370 A  
HETATM    6  C   UNL     1     -11.645   8.255  71.643  1.00  0.00    -0.337 A  
HETATM    7  C   UNL     1     -11.667  10.589  70.915  1.00  0.00    -0.431 A  
HETATM    8  C   UNL     1     -11.024   9.346  71.009  1.00  0.00    -0.409 A  
BRANCH   6   9
HETATM    9  C   UNL     1     -10.947   6.957  71.828  1.00  0.00    -0.230 A  
HETATM   10  C   UNL     1     -10.804   5.865  70.978  1.00  0.00    -0.273 A  
HETATM   11  C   UNL     1     -10.138   4.730  71.600  1.00  0.00    -0.264 A  
HETATM   12  C   UNL     1      -9.134   2.511  71.947  1.00  0.00    -0.143 A  
HETATM   13  C   UNL     1      -9.702   5.061  72.885  1.00  0.00    -0.148 A  
HETATM   14  H   UNL     1      -7.744   1.147  73.564  1.00  0.00     0.000 HD 
HETATM   15  C   UNL     1      -9.836   3.417  71.143  1.00  0.00    -0.159 A  
HETATM   16  S   UNL     1     -10.210   6.628  73.344  1.00  0.00    -0.284 SA 
HETATM   17  C   UNL     1      -8.940   4.178  73.679  1.00  0.00    -0.092 A  
HETATM   18  C   UNL     1      -8.669   2.908  73.185  1.00  0.00    -0.079 A  
HETATM   19  O   UNL     1      -7.929   2.015  73.903  1.00  0.00    -0.045 OA 
BRANCH  10  20
HETATM   20  O   UNL     1     -11.191   5.976  69.674  1.00  0.00    -0.394 OA 
BRANCH  20  21
HETATM   21  C   UNL     1     -10.434   6.557  68.687  1.00  0.00    -0.218 A  
HETATM   22  C   UNL     1      -9.035   7.732  66.546  1.00  0.00    -0.161 A  
HETATM   23  C   UNL     1     -10.399   7.987  66.720  1.00  0.00    -0.360 A  
HETATM   24  C   UNL     1      -9.082   6.290  68.504  1.00  0.00    -0.125 A  
HETATM   25  C   UNL     1     -11.094   7.403  67.789  1.00  0.00     0.028 A  
HETATM   26  C   UNL     1      -8.383   6.903  67.471  1.00  0.00    -0.123 A  
BRANCH  22  27
HETATM   27  O   UNL     1      -8.425   8.300  65.448  1.00  0.00    -0.163 OA 
BRANCH  27  28
HETATM   28  C   UNL     1      -8.081   9.678  65.655  1.00  0.00    -0.117 C  
BRANCH  28  29
HETATM   29  C   UNL     1      -6.663   9.887  66.194  1.00  0.00    -0.092 C  
BRANCH  29  30
HETATM   30  N   UNL     1      -6.613  11.033  67.131  1.00  0.00    -0.081 NA 
HETATM   31  C   UNL     1      -7.921  11.502  67.618  1.00  0.00    -0.126 C  
HETATM   32  C   UNL     1      -8.585  10.579  68.642  1.00  0.00    -0.139 C  
HETATM   33  C   UNL     1      -7.637  10.213  69.780  1.00  0.00    -0.175 C  
HETATM   34  C   UNL     1      -6.274   9.771  69.259  1.00  0.00    -0.036 C  
HETATM   35  C   UNL     1      -5.712  10.783  68.261  1.00  0.00    -0.043 C  
ENDBRANCH  29  30
ENDBRANCH  28  29
ENDBRANCH  27  28
ENDBRANCH  22  27
ENDBRANCH  20  21
ENDBRANCH  10  20
ENDBRANCH   6   9
ENDBRANCH   2   3
TORSDOF 8
ENDMDL
MODEL       98
REMARK 921   NORMALIZED FREE ENERGY PREDICTED BY IDOCK:   -4.95 KCAL/MOL
REMARK 922        TOTAL FREE ENERGY PREDICTED BY IDOCK:   -9.01 KCAL/MOL
REMARK 923 INTER-LIGAND FREE ENERGY PREDICTED BY IDOCK:   -7.36 KCAL/MOL
REMARK 924 INTRA-LIGAND FREE ENERGY PREDICTED BY IDOCK:   -1.66 KCAL/MOL
REMARK 927      BINDING AFFINITY PREDICTED BY RF-SCORE:    0.00 PKD
ROOT
HETATM    1  C   UNL     1     -10.609  17.716  68.392  1.00  0.00    -0.316 C  
HETATM    2  O   UNL     1     -10.973  17.225  67.107  1.00  0.00    -0.145 OA 
ENDROOT
BRANCH   2   3
HETATM    3  C   UNL     1     -10.717  15.908  66.858  1.00  0.00    -0.289 A  
HETATM    4  C   UNL     1     -11.660  14.888  66.755  1.00  0.00    -0.275 A  
HETATM    5  C   UNL     1     -11.258  13.562  66.528  1.00  0.00    -0.322 A  
HETATM    6  C   UNL     1      -9.905  13.224  66.386  1.00  0.00    -0.281 A  
HETATM    7  C   UNL     1      -9.371  15.590  66.701  1.00  0.00    -0.291 A  
HETATM    8  C   UNL     1      -8.966  14.268  66.462  1.00  0.00    -0.161 A  
BRANCH   6   9
HETATM    9  C   UNL     1      -9.489  11.808  66.220  1.00  0.00    -0.224 A  
HETATM   10  C   UNL     1      -8.987  10.888  67.136  1.00  0.00    -0.138 A  
HETATM   11  C   UNL     1      -8.588   9.627  66.530  1.00  0.00    -0.135 A  
HETATM   12  C   UNL     1      -7.738   7.336  66.245  1.00  0.00    -0.097 A  
HETATM   13  C   UNL     1      -8.915   9.610  65.172  1.00  0.00    -0.207 A  
HETATM   14  H   UNL     1      -7.538   5.443  64.576  1.00  0.00     0.000 HD 
HETATM   15  C   UNL     1      -7.984   8.450  67.055  1.00  0.00    -0.100 A  
HETATM   16  S   UNL     1      -9.545  11.112  64.651  1.00  0.00    -0.245 SA 
HETATM   17  C   UNL     1      -8.728   8.470  64.361  1.00  0.00     0.053 A  
HETATM   18  C   UNL     1      -8.138   7.346  64.923  1.00  0.00    -0.114 A  
HETATM   19  O   UNL     1      -7.941   6.212  64.191  1.00  0.00    -0.117 OA 
BRANCH  10  20
HETATM   20  O   UNL     1      -8.998  11.194  68.466  1.00  0.00    -0.158 OA 
BRANCH  20  21
HETATM   21  C   UNL     1      -9.784  10.564  69.400  1.00  0.00    -0.164 A  
HETATM   22  C   UNL     1     -11.281   9.117  71.293  1.00  0.00    -0.337 A  
HETATM   23  C   UNL     1      -9.897   8.940  71.207  1.00  0.00    -0.361 A  
HETATM   24  C   UNL     1     -11.162  10.728  69.474  1.00  0.00    -0.342 A  
HETATM   25  C   UNL     1      -9.152   9.664  70.264  1.00  0.00    -0.272 A  
HETATM   26  C   UNL     1     -11.895  10.044  70.438  1.00  0.00    -0.343 A  
BRANCH  22  27
HETATM   27  O   UNL     1     -11.958   8.339  72.209  1.00  0.00    -0.341 OA 
BRANCH  27  28
HETATM   28  C   UNL     1     -12.283   7.038  71.698  1.00  0.00    -0.357 C  
BRANCH  28  29
HETATM   29  C   UNL     1     -12.132   5.914  72.727  1.00  0.00     0.104 C  
BRANCH  29  30
HETATM   30  N   UNL     1     -10.727   5.794  73.183  1.00  0.00    -0.246 NA 
HETATM   31  C   UNL     1     -10.517   4.905  74.337  1.00  0.00    -0.280 C  
HETATM   32  C   UNL     1     -10.635   3.413  74.018  1.00  0.00    -0.273 C  
HETATM   33  C   UNL     1      -9.784   3.016  72.815  1.00  0.00    -0.182 C  
HETATM   34  C   UNL     1      -9.982   3.974  71.645  1.00  0.00    -0.232 C  
HETATM   35  C   UNL     1      -9.822   5.427  72.089  1.00  0.00    -0.169 C  
ENDBRANCH  29  30
ENDBRANCH  28  29
ENDBRANCH  27  28
ENDBRANCH  22  27
ENDBRANCH  20  21
ENDBRANCH  10  20
ENDBRANCH   6   9
ENDBRANCH   2   3
TORSDOF 8
ENDMDL
MODEL       99
REMARK 921   NORMALIZED FREE ENERGY PREDICTED BY IDOCK:   -4.93 KCAL/MOL
REMARK 922        TOTAL FREE ENERGY PREDICTED BY IDOCK:   -8.99 KCAL/MOL
REMARK 923 INTER-LIGAND FREE ENERGY PREDICTED BY IDOCK:   -7.06 KCAL/MOL
REMARK 924 INTRA-LIGAND FREE ENERGY PREDICTED BY IDOCK:   -1.93 KCAL/MOL
REMARK 927      BINDING AFFINITY PREDICTED BY RF-SCORE:    0.00 PKD
ROOT
HETATM    1  C   UNL     1      -6.274   3.481  68.304  1.00  0.00    -0.032 C  
HETATM    2  O   UNL     1      -7.360   3.969  69.082  1.00  0.00    -0.053 OA 
ENDROOT
BRANCH   2   3
HETATM    3  C   UNL     1      -7.835   5.209  68.764  1.00  0.00    -0.079 A  
HETATM    4  C   UNL     1      -7.078   6.297  68.333  1.00  0.00    -0.083 A  
HETATM    5  C   UNL     1      -7.689   7.533  68.071  1.00  0.00    -0.116 A  
HETATM    6  C   UNL     1      -9.072   7.711  68.220  1.00  0.00    -0.136 A  
HETATM    7  C   UNL     1      -9.210   5.365  68.899  1.00  0.00    -0.147 A  
HETATM    8  C   UNL     1      -9.827   6.597  68.627  1.00  0.00    -0.138 A  
BRANCH   6   9
HETATM    9  C   UNL     1      -9.694   9.043  68.011  1.00  0.00    -0.155 A  
HETATM   10  C   UNL     1      -9.926  10.094  68.894  1.00  0.00    -0.199 A  
HETATM   11  C   UNL     1     -10.678  11.191  68.303  1.00  0.00    -0.234 A  
HETATM   12  C   UNL     1     -11.855  13.332  68.019  1.00  0.00    -0.392 A  
HETATM   13  C   UNL     1     -10.891  10.962  66.941  1.00  0.00    -0.249 A  
HETATM   14  H   UNL     1     -12.903  14.853  66.288  1.00  0.00     0.000 HD 
HETATM   15  C   UNL     1     -11.184  12.411  68.831  1.00  0.00    -0.330 A  
HETATM   16  S   UNL     1     -10.320   9.424  66.458  1.00  0.00    -0.146 SA 
HETATM   17  C   UNL     1     -11.511  11.911  66.101  1.00  0.00    -0.352 A  
HETATM   18  C   UNL     1     -11.982  13.089  66.666  1.00  0.00    -0.387 A  
HETATM   19  O   UNL     1     -12.581  14.047  65.901  1.00  0.00    -0.488 OA 
BRANCH  10  20
HETATM   20  O   UNL     1      -9.377  10.053  70.142  1.00  0.00    -0.195 OA 
BRANCH  20  21
HETATM   21  C   UNL     1      -9.795   9.215  71.147  1.00  0.00    -0.301 A  
HETATM   22  C   UNL     1     -10.497   7.390  73.170  1.00  0.00    -0.356 A  
HETATM   23  C   UNL     1      -9.153   7.685  72.925  1.00  0.00    -0.231 A  
HETATM   24  C   UNL     1     -11.131   8.909  71.380  1.00  0.00    -0.376 A  
HETATM   25  C   UNL     1      -8.805   8.597  71.918  1.00  0.00    -0.275 A  
HETATM   26  C   UNL     1     -11.479   8.039  72.407  1.00  0.00    -0.449 A  
BRANCH  22  27
HETATM   27  O   UNL     1     -10.766   6.449  74.142  1.00  0.00    -0.199 OA 
BRANCH  27  28
HETATM   28  C   UNL     1     -10.623   5.103  73.665  1.00  0.00    -0.275 C  
BRANCH  28  29
HETATM   29  C   UNL     1      -9.302   4.441  74.067  1.00  0.00    -0.113 C  
BRANCH  29  30
HETATM   30  N   UNL     1      -9.438   2.967  74.119  1.00  0.00    -0.084 NA 
HETATM   31  C   UNL     1     -10.247   2.374  73.041  1.00  0.00    -0.136 C  
HETATM   32  C   UNL     1      -9.561   2.351  71.673  1.00  0.00    -0.213 C  
HETATM   33  C   UNL     1      -8.159   1.753  71.746  1.00  0.00    -0.044 C  
HETATM   34  C   UNL     1      -7.352   2.348  72.895  1.00  0.00    -0.040 C  
HETATM   35  C   UNL     1      -8.137   2.295  74.205  1.00  0.00    -0.055 C  
ENDBRANCH  29  30
ENDBRANCH  28  29
ENDBRANCH  27  28
ENDBRANCH  22  27
ENDBRANCH  20  21
ENDBRANCH  10  20
ENDBRANCH   6   9
ENDBRANCH   2   3
TORSDOF 8
ENDMDL
MODEL      100
REMARK 921   NORMALIZED FREE ENERGY PREDICTED BY IDOCK:   -4.84 KCAL/MOL
REMARK 922        TOTAL FREE ENERGY PREDICTED BY IDOCK:   -8.86 KCAL/MOL
REMARK 923 INTER-LIGAND FREE ENERGY PREDICTED BY IDOCK:   -6.89 KCAL/MOL
REMARK 924 INTRA-LIGAND FREE ENERGY PREDICTED BY IDOCK:   -1.98 KCAL/MOL
REMARK 927      BINDING AFFINITY PREDICTED BY RF-SCORE:    0.00 PKD
ROOT
HETATM    1  C   UNL     1     -11.131  15.891  64.712  1.00  0.00    -0.384 C  
HETATM    2  O   UNL     1     -10.812  15.992  66.095  1.00  0.00    -0.281 OA 
ENDROOT
BRANCH   2   3
HETATM    3  C   UNL     1     -10.659  14.820  66.778  1.00  0.00    -0.302 A  
HETATM    4  C   UNL     1      -9.793  13.780  66.447  1.00  0.00    -0.305 A  
HETATM    5  C   UNL     1      -9.758  12.607  67.219  1.00  0.00    -0.207 A  
HETATM    6  C   UNL     1     -10.578  12.449  68.345  1.00  0.00    -0.251 A  
HETATM    7  C   UNL     1     -11.466  14.684  67.903  1.00  0.00    -0.350 A  
HETATM    8  C   UNL     1     -11.426  13.518  68.683  1.00  0.00    -0.343 A  
BRANCH   6   9
HETATM    9  C   UNL     1     -10.584  11.174  69.107  1.00  0.00    -0.204 A  
HETATM   10  C   UNL     1      -9.782  10.042  69.003  1.00  0.00    -0.199 A  
HETATM   11  C   UNL     1     -10.203   8.952  69.871  1.00  0.00    -0.209 A  
HETATM   12  C   UNL     1     -10.303   6.771  71.005  1.00  0.00    -0.228 A  
HETATM   13  C   UNL     1     -11.262   9.357  70.688  1.00  0.00    -0.284 A  
HETATM   14  H   UNL     1     -11.439   5.516  72.886  1.00  0.00     0.000 HD 
HETATM   15  C   UNL     1      -9.731   7.622  70.052  1.00  0.00    -0.172 A  
HETATM   16  S   UNL     1     -11.791  10.937  70.305  1.00  0.00    -0.387 SA 
HETATM   17  C   UNL     1     -11.804   8.529  71.694  1.00  0.00    -0.370 A  
HETATM   18  C   UNL     1     -11.304   7.240  71.832  1.00  0.00    -0.254 A  
HETATM   19  O   UNL     1     -11.781   6.398  72.792  1.00  0.00    -0.163 OA 
BRANCH  10  20
HETATM   20  O   UNL     1      -8.671  10.079  68.212  1.00  0.00    -0.117 OA 
BRANCH  20  21
HETATM   21  C   UNL     1      -8.409   9.188  67.201  1.00  0.00    -0.117 A  
HETATM   22  C   UNL     1      -7.684   7.406  65.147  1.00  0.00    -0.112 A  
HETATM   23  C   UNL     1      -6.847   7.582  66.253  1.00  0.00    -0.061 A  
HETATM   24  C   UNL     1      -9.232   9.026  66.093  1.00  0.00    -0.272 A  
HETATM   25  C   UNL     1      -7.211   8.468  67.277  1.00  0.00    -0.084 A  
HETATM   26  C   UNL     1      -8.893   8.115  65.098  1.00  0.00     0.024 A  
BRANCH  22  27
HETATM   27  O   UNL     1      -7.243   6.556  64.154  1.00  0.00    -0.060 OA 
BRANCH  27  28
HETATM   28  C   UNL     1      -8.060   5.384  64.024  1.00  0.00    -0.123 C  
BRANCH  28  29
HETATM   29  C   UNL     1      -7.863   4.364  65.149  1.00  0.00    -0.086 C  
BRANCH  29  30
HETATM   30  N   UNL     1      -9.141   3.702  65.499  1.00  0.00    -0.142 NA 
HETATM   31  C   UNL     1      -9.038   2.634  66.507  1.00  0.00    -0.117 C  
HETATM   32  C   UNL     1      -8.802   3.130  67.935  1.00  0.00    -0.163 C  
HETATM   33  C   UNL     1      -9.797   4.214  68.335  1.00  0.00    -0.082 C  
HETATM   34  C   UNL     1      -9.923   5.289  67.261  1.00  0.00    -0.207 C  
HETATM   35  C   UNL     1     -10.175   4.667  65.887  1.00  0.00    -0.276 C  
ENDBRANCH  29  30
ENDBRANCH  28  29
ENDBRANCH  27  28
ENDBRANCH  22  27
ENDBRANCH  20  21
ENDBRANCH  10  20
ENDBRANCH   6   9
ENDBRANCH   2   3
TORSDOF 8
ENDMDL
MODEL      101
REMARK 921   NORMALIZED FREE ENERGY PREDICTED BY IDOCK:   -4.80 KCAL/MOL
REMARK 922        TOTAL FREE ENERGY PREDICTED BY IDOCK:   -8.80 KCAL/MOL
REMARK 923 INTER-LIGAND FREE ENERGY PREDICTED BY IDOCK:   -7.43 KCAL/MOL
REMARK 924 INTRA-LIGAND FREE ENERGY PREDICTED BY IDOCK:   -1.37 KCAL/MOL
REMARK 927      BINDING AFFINITY PREDICTED BY RF-SCORE:    0.00 PKD
ROOT
HETATM    1  C   UNL     1      -8.199   5.470  64.776  1.00  0.00    -0.133 C  
HETATM    2  O   UNL     1      -7.539   6.715  64.577  1.00  0.00    -0.088 OA 
ENDROOT
BRANCH   2   3
HETATM    3  C   UNL     1      -7.946   7.758  65.358  1.00  0.00    -0.125 A  
HETATM    4  C   UNL     1      -7.645   7.946  66.705  1.00  0.00    -0.098 A  
HETATM    5  C   UNL     1      -8.158   9.051  67.404  1.00  0.00    -0.108 A  
HETATM    6  C   UNL     1      -8.975  10.000  66.772  1.00  0.00    -0.151 A  
HETATM    7  C   UNL     1      -8.741   8.700  64.714  1.00  0.00    -0.099 A  
HETATM    8  C   UNL     1      -9.246   9.812  65.406  1.00  0.00    -0.282 A  
BRANCH   6   9
HETATM    9  C   UNL     1      -9.571  11.121  67.542  1.00  0.00    -0.168 A  
HETATM   10  C   UNL     1     -10.645  11.156  68.427  1.00  0.00    -0.193 A  
HETATM   11  C   UNL     1     -10.980  12.498  68.878  1.00  0.00    -0.272 A  
HETATM   12  C   UNL     1     -12.087  14.369  70.029  1.00  0.00    -0.401 A  
HETATM   13  C   UNL     1     -10.057  13.425  68.387  1.00  0.00    -0.244 A  
HETATM   14  H   UNL     1     -11.890  16.843  70.527  1.00  0.00     0.000 HD 
HETATM   15  C   UNL     1     -12.012  13.007  69.715  1.00  0.00    -0.377 A  
HETATM   16  S   UNL     1      -8.932  12.700  67.324  1.00  0.00    -0.202 SA 
HETATM   17  C   UNL     1     -10.087  14.789  68.749  1.00  0.00    -0.237 A  
HETATM   18  C   UNL     1     -11.113  15.234  69.573  1.00  0.00    -0.281 A  
HETATM   19  O   UNL     1     -11.188  16.539  69.963  1.00  0.00    -0.314 OA 
BRANCH  10  20
HETATM   20  O   UNL     1     -11.201   9.984  68.849  1.00  0.00    -0.209 OA 
BRANCH  20  21
HETATM   21  C   UNL     1     -11.104   9.496  70.129  1.00  0.00    -0.255 A  
HETATM   22  C   UNL     1     -10.748   8.397  72.695  1.00  0.00    -0.242 A  
HETATM   23  C   UNL     1      -9.639   8.722  71.910  1.00  0.00    -0.372 A  
HETATM   24  C   UNL     1     -12.207   9.158  70.904  1.00  0.00    -0.239 A  
HETATM   25  C   UNL     1      -9.817   9.272  70.632  1.00  0.00    -0.332 A  
HETATM   26  C   UNL     1     -12.031   8.653  72.188  1.00  0.00    -0.449 A  
BRANCH  22  27
HETATM   27  O   UNL     1     -10.501   7.816  73.921  1.00  0.00    -0.058 OA 
BRANCH  27  28
HETATM   28  C   UNL     1      -9.756   6.594  73.815  1.00  0.00    -0.224 C  
BRANCH  28  29
HETATM   29  C   UNL     1     -10.453   5.387  74.450  1.00  0.00    -0.224 C  
BRANCH  29  30
HETATM   30  N   UNL     1     -11.110   4.549  73.420  1.00  0.00    -0.301 NA 
HETATM   31  C   UNL     1     -10.712   4.835  72.032  1.00  0.00    -0.046 C  
HETATM   32  C   UNL     1      -9.310   4.348  71.661  1.00  0.00    -0.199 C  
HETATM   33  C   UNL     1      -9.094   2.886  72.039  1.00  0.00    -0.145 C  
HETATM   34  C   UNL     1      -9.552   2.599  73.465  1.00  0.00    -0.125 C  
HETATM   35  C   UNL     1     -10.970   3.117  73.703  1.00  0.00    -0.233 C  
ENDBRANCH  29  30
ENDBRANCH  28  29
ENDBRANCH  27  28
ENDBRANCH  22  27
ENDBRANCH  20  21
ENDBRANCH  10  20
ENDBRANCH   6   9
ENDBRANCH   2   3
TORSDOF 8
ENDMDL
MODEL      102
REMARK 921   NORMALIZED FREE ENERGY PREDICTED BY IDOCK:   -4.73 KCAL/MOL
REMARK 922        TOTAL FREE ENERGY PREDICTED BY IDOCK:   -8.70 KCAL/MOL
REMARK 923 INTER-LIGAND FREE ENERGY PREDICTED BY IDOCK:   -6.93 KCAL/MOL
REMARK 924 INTRA-LIGAND FREE ENERGY PREDICTED BY IDOCK:   -1.76 KCAL/MOL
REMARK 927      BINDING AFFINITY PREDICTED BY RF-SCORE:    0.00 PKD
ROOT
HETATM    1  C   UNL     1      -6.677  15.423  67.329  1.00  0.00    -0.061 C  
HETATM    2  O   UNL     1      -5.841  14.294  67.552  1.00  0.00    -0.343 OA 
ENDROOT
BRANCH   2   3
HETATM    3  C   UNL     1      -6.462  13.131  67.910  1.00  0.00    -0.138 A  
HETATM    4  C   UNL     1      -7.831  12.948  68.088  1.00  0.00    -0.147 A  
HETATM    5  C   UNL     1      -8.338  11.703  68.492  1.00  0.00    -0.140 A  
HETATM    6  C   UNL     1      -7.493  10.607  68.716  1.00  0.00    -0.104 A  
HETATM    7  C   UNL     1      -5.612  12.048  68.111  1.00  0.00    -0.050 A  
HETATM    8  C   UNL     1      -6.116  10.799  68.503  1.00  0.00    -0.043 A  
BRANCH   6   9
HETATM    9  C   UNL     1      -8.036   9.318  69.214  1.00  0.00    -0.098 A  
HETATM   10  C   UNL     1      -8.601   8.240  68.538  1.00  0.00    -0.133 A  
HETATM   11  C   UNL     1      -9.121   7.210  69.425  1.00  0.00    -0.145 A  
HETATM   12  C   UNL     1     -10.177   5.144  70.241  1.00  0.00    -0.342 A  
HETATM   13  C   UNL     1      -8.822   7.511  70.756  1.00  0.00    -0.148 A  
HETATM   14  H   UNL     1     -10.575   3.756  72.321  1.00  0.00     0.000 HD 
HETATM   15  C   UNL     1      -9.818   5.992  69.188  1.00  0.00    -0.185 A  
HETATM   16  S   UNL     1      -8.070   9.039  70.908  1.00  0.00    -0.161 SA 
HETATM   17  C   UNL     1      -9.123   6.632  71.819  1.00  0.00    -0.144 A  
HETATM   18  C   UNL     1      -9.801   5.454  71.532  1.00  0.00    -0.168 A  
HETATM   19  O   UNL     1     -10.111   4.563  72.517  1.00  0.00    -0.163 OA 
BRANCH  10  20
HETATM   20  O   UNL     1      -8.538   8.197  67.176  1.00  0.00    -0.121 OA 
BRANCH  20  21
HETATM   21  C   UNL     1      -9.194   9.069  66.341  1.00  0.00    -0.188 A  
HETATM   22  C   UNL     1     -10.702  10.793  64.707  1.00  0.00    -0.098 A  
HETATM   23  C   UNL     1     -11.112  10.528  66.017  1.00  0.00     0.241 A  
HETATM   24  C   UNL     1      -8.795   9.319  65.034  1.00  0.00    -0.238 A  
HETATM   25  C   UNL     1     -10.357   9.671  66.832  1.00  0.00    -0.307 A  
HETATM   26  C   UNL     1      -9.518  10.203  64.240  1.00  0.00    -0.366 A  
BRANCH  22  27
HETATM   27  O   UNL     1     -11.515  11.606  63.947  1.00  0.00    -0.385 OA 
BRANCH  27  28
HETATM   28  C   UNL     1     -10.851  12.800  63.507  1.00  0.00    -0.238 C  
BRANCH  28  29
HETATM   29  C   UNL     1     -10.400  13.714  64.649  1.00  0.00    -0.384 C  
BRANCH  29  30
HETATM   30  N   UNL     1     -11.485  14.641  65.049  1.00  0.00    -0.371 NA 
HETATM   31  C   UNL     1     -12.462  14.087  66.001  1.00  0.00    -0.455 C  
HETATM   32  C   UNL     1     -11.941  13.939  67.432  1.00  0.00    -0.436 C  
HETATM   33  C   UNL     1     -11.295  15.224  67.941  1.00  0.00    -0.339 C  
HETATM   34  C   UNL     1     -10.319  15.806  66.924  1.00  0.00    -0.295 C  
HETATM   35  C   UNL     1     -10.964  15.920  65.544  1.00  0.00    -0.241 C  
ENDBRANCH  29  30
ENDBRANCH  28  29
ENDBRANCH  27  28
ENDBRANCH  22  27
ENDBRANCH  20  21
ENDBRANCH  10  20
ENDBRANCH   6   9
ENDBRANCH   2   3
TORSDOF 8
ENDMDL
MODEL      103
REMARK 921   NORMALIZED FREE ENERGY PREDICTED BY IDOCK:   -4.69 KCAL/MOL
REMARK 922        TOTAL FREE ENERGY PREDICTED BY IDOCK:   -8.63 KCAL/MOL
REMARK 923 INTER-LIGAND FREE ENERGY PREDICTED BY IDOCK:   -6.88 KCAL/MOL
REMARK 924 INTRA-LIGAND FREE ENERGY PREDICTED BY IDOCK:   -1.75 KCAL/MOL
REMARK 927      BINDING AFFINITY PREDICTED BY RF-SCORE:    0.00 PKD
ROOT
HETATM    1  C   UNL     1      -5.549   7.965  71.177  1.00  0.00    -0.034 C  
HETATM    2  O   UNL     1      -6.795   8.588  71.467  1.00  0.00    -0.065 OA 
ENDROOT
BRANCH   2   3
HETATM    3  C   UNL     1      -7.320   9.391  70.496  1.00  0.00    -0.133 A  
HETATM    4  C   UNL     1      -6.602  10.160  69.584  1.00  0.00    -0.069 A  
HETATM    5  C   UNL     1      -7.269  10.974  68.654  1.00  0.00    -0.091 A  
HETATM    6  C   UNL     1      -8.669  11.030  68.605  1.00  0.00    -0.161 A  
HETATM    7  C   UNL     1      -8.710   9.423  70.448  1.00  0.00    -0.278 A  
HETATM    8  C   UNL     1      -9.381  10.226  69.512  1.00  0.00    -0.200 A  
BRANCH   6   9
HETATM    9  C   UNL     1      -9.360  11.951  67.667  1.00  0.00    -0.183 A  
HETATM   10  C   UNL     1     -10.236  11.699  66.615  1.00  0.00    -0.216 A  
HETATM   11  C   UNL     1     -10.595  12.891  65.862  1.00  0.00    -0.287 A  
HETATM   12  C   UNL     1     -11.615  14.383  64.194  1.00  0.00    -0.183 A  
HETATM   13  C   UNL     1     -10.048  14.031  66.458  1.00  0.00    -0.285 A  
HETATM   14  H   UNL     1     -11.948  16.819  63.588  1.00  0.00     0.000 HD 
HETATM   15  C   UNL     1     -11.392  13.099  64.702  1.00  0.00    -0.363 A  
HETATM   16  S   UNL     1      -9.040  13.635  67.781  1.00  0.00    -0.210 SA 
HETATM   17  C   UNL     1     -10.318  15.335  65.990  1.00  0.00    -0.327 A  
HETATM   18  C   UNL     1     -11.107  15.482  64.856  1.00  0.00    -0.416 A  
HETATM   19  O   UNL     1     -11.409  16.718  64.364  1.00  0.00    -1.089 OA 
BRANCH  10  20
HETATM   20  O   UNL     1     -10.733  10.440  66.446  1.00  0.00    -0.167 OA 
BRANCH  20  21
HETATM   21  C   UNL     1      -9.992   9.362  66.027  1.00  0.00    -0.281 A  
HETATM   22  C   UNL     1      -8.453   7.104  65.355  1.00  0.00    -0.082 A  
HETATM   23  C   UNL     1      -9.340   7.055  66.435  1.00  0.00    -0.182 A  
HETATM   24  C   UNL     1      -9.098   9.416  64.965  1.00  0.00    -0.271 A  
HETATM   25  C   UNL     1     -10.108   8.180  66.767  1.00  0.00    -0.365 A  
HETATM   26  C   UNL     1      -8.368   8.288  64.607  1.00  0.00    -0.115 A  
BRANCH  22  27
HETATM   27  O   UNL     1      -7.694   5.978  65.114  1.00  0.00    -0.084 OA 
BRANCH  27  28
HETATM   28  C   UNL     1      -8.330   4.774  65.565  1.00  0.00    -0.120 C  
BRANCH  28  29
HETATM   29  C   UNL     1      -7.397   3.832  66.331  1.00  0.00    -0.072 C  
BRANCH  29  30
HETATM   30  N   UNL     1      -7.435   4.111  67.786  1.00  0.00    -0.068 NA 
HETATM   31  C   UNL     1      -8.767   4.019  68.406  1.00  0.00    -0.100 C  
HETATM   32  C   UNL     1      -9.291   2.591  68.576  1.00  0.00    -0.254 C  
HETATM   33  C   UNL     1      -8.269   1.684  69.254  1.00  0.00    -0.063 C  
HETATM   34  C   UNL     1      -6.886   1.824  68.627  1.00  0.00    -0.032 C  
HETATM   35  C   UNL     1      -6.472   3.292  68.531  1.00  0.00    -0.036 C  
ENDBRANCH  29  30
ENDBRANCH  28  29
ENDBRANCH  27  28
ENDBRANCH  22  27
ENDBRANCH  20  21
ENDBRANCH  10  20
ENDBRANCH   6   9
ENDBRANCH   2   3
TORSDOF 8
ENDMDL
MODEL      104
REMARK 921   NORMALIZED FREE ENERGY PREDICTED BY IDOCK:   -4.68 KCAL/MOL
REMARK 922        TOTAL FREE ENERGY PREDICTED BY IDOCK:   -8.63 KCAL/MOL
REMARK 923 INTER-LIGAND FREE ENERGY PREDICTED BY IDOCK:   -6.25 KCAL/MOL
REMARK 924 INTRA-LIGAND FREE ENERGY PREDICTED BY IDOCK:   -2.38 KCAL/MOL
REMARK 927      BINDING AFFINITY PREDICTED BY RF-SCORE:    0.00 PKD
ROOT
HETATM    1  C   UNL     1      -8.595   2.415  74.213  1.00  0.00    -0.067 C  
HETATM    2  O   UNL     1      -9.913   2.919  74.035  1.00  0.00    -0.095 OA 
ENDROOT
BRANCH   2   3
HETATM    3  C   UNL     1     -10.051   4.000  73.211  1.00  0.00    -0.140 A  
HETATM    4  C   UNL     1      -9.069   4.535  72.381  1.00  0.00    -0.144 A  
HETATM    5  C   UNL     1      -9.333   5.676  71.606  1.00  0.00    -0.164 A  
HETATM    6  C   UNL     1     -10.586   6.303  71.633  1.00  0.00    -0.271 A  
HETATM    7  C   UNL     1     -11.305   4.601  73.235  1.00  0.00    -0.393 A  
HETATM    8  C   UNL     1     -11.576   5.735  72.453  1.00  0.00    -0.320 A  
BRANCH   6   9
HETATM    9  C   UNL     1     -10.827   7.552  70.866  1.00  0.00    -0.240 A  
HETATM   10  C   UNL     1     -10.784   7.809  69.499  1.00  0.00    -0.198 A  
HETATM   11  C   UNL     1     -10.970   9.214  69.168  1.00  0.00    -0.057 A  
HETATM   12  C   UNL     1     -11.199  11.304  67.892  1.00  0.00    -0.353 A  
HETATM   13  C   UNL     1     -11.259   9.954  70.317  1.00  0.00    -0.301 A  
HETATM   14  H   UNL     1     -11.829  13.747  68.102  1.00  0.00     0.000 HD 
HETATM   15  C   UNL     1     -10.943   9.929  67.939  1.00  0.00    -0.281 A  
HETATM   16  S   UNL     1     -11.167   8.996  71.730  1.00  0.00    -0.373 SA 
HETATM   17  C   UNL     1     -11.580  11.328  70.273  1.00  0.00    -0.366 A  
HETATM   18  C   UNL     1     -11.544  11.978  69.046  1.00  0.00    -0.313 A  
HETATM   19  O   UNL     1     -11.854  13.303  68.941  1.00  0.00    -0.301 OA 
BRANCH  10  20
HETATM   20  O   UNL     1     -10.674   6.767  68.625  1.00  0.00    -0.214 OA 
BRANCH  20  21
HETATM   21  C   UNL     1      -9.598   6.558  67.798  1.00  0.00    -0.122 A  
HETATM   22  C   UNL     1      -7.482   5.972  66.037  1.00  0.00    -0.085 A  
HETATM   23  C   UNL     1      -8.803   5.716  65.659  1.00  0.00    -0.150 A  
HETATM   24  C   UNL     1      -8.283   6.797  68.181  1.00  0.00    -0.114 A  
HETATM   25  C   UNL     1      -9.857   6.011  66.537  1.00  0.00    -0.186 A  
HETATM   26  C   UNL     1      -7.241   6.546  67.295  1.00  0.00    -0.078 A  
BRANCH  22  27
HETATM   27  O   UNL     1      -6.493   5.614  65.146  1.00  0.00    -0.037 OA 
BRANCH  27  28
HETATM   28  C   UNL     1      -6.371   6.536  64.053  1.00  0.00    -0.037 C  
BRANCH  28  29
HETATM   29  C   UNL     1      -5.746   7.879  64.443  1.00  0.00    -0.044 C  
BRANCH  29  30
HETATM   30  N   UNL     1      -6.423   9.002  63.755  1.00  0.00    -0.088 NA 
HETATM   31  C   UNL     1      -7.892   8.917  63.713  1.00  0.00    -0.138 C  
HETATM   32  C   UNL     1      -8.583   9.203  65.049  1.00  0.00    -0.204 C  
HETATM   33  C   UNL     1      -8.092  10.503  65.679  1.00  0.00    -0.161 C  
HETATM   34  C   UNL     1      -6.570  10.593  65.674  1.00  0.00    -0.079 C  
HETATM   35  C   UNL     1      -6.006  10.305  64.283  1.00  0.00    -0.133 C  
ENDBRANCH  29  30
ENDBRANCH  28  29
ENDBRANCH  27  28
ENDBRANCH  22  27
ENDBRANCH  20  21
ENDBRANCH  10  20
ENDBRANCH   6   9
ENDBRANCH   2   3
TORSDOF 8
ENDMDL
MODEL      105
REMARK 921   NORMALIZED FREE ENERGY PREDICTED BY IDOCK:   -4.65 KCAL/MOL
REMARK 922        TOTAL FREE ENERGY PREDICTED BY IDOCK:   -8.58 KCAL/MOL
REMARK 923 INTER-LIGAND FREE ENERGY PREDICTED BY IDOCK:   -7.33 KCAL/MOL
REMARK 924 INTRA-LIGAND FREE ENERGY PREDICTED BY IDOCK:   -1.26 KCAL/MOL
REMARK 927      BINDING AFFINITY PREDICTED BY RF-SCORE:    0.00 PKD
ROOT
HETATM    1  C   UNL     1      -5.828  13.062  70.613  1.00  0.00    -0.123 C  
HETATM    2  O   UNL     1      -5.636  11.725  71.062  1.00  0.00    -0.307 OA 
ENDROOT
BRANCH   2   3
HETATM    3  C   UNL     1      -6.262  10.742  70.350  1.00  0.00    -0.127 A  
HETATM    4  C   UNL     1      -6.397   9.408  70.728  1.00  0.00    -0.081 A  
HETATM    5  C   UNL     1      -7.038   8.488  69.883  1.00  0.00    -0.051 A  
HETATM    6  C   UNL     1      -7.570   8.880  68.646  1.00  0.00    -0.096 A  
HETATM    7  C   UNL     1      -6.801  11.149  69.134  1.00  0.00    -0.102 A  
HETATM    8  C   UNL     1      -7.452  10.235  68.291  1.00  0.00    -0.086 A  
BRANCH   6   9
HETATM    9  C   UNL     1      -8.179   7.881  67.731  1.00  0.00    -0.129 A  
HETATM   10  C   UNL     1      -9.382   7.185  67.805  1.00  0.00    -0.127 A  
HETATM   11  C   UNL     1      -9.546   6.199  66.747  1.00  0.00    -0.174 A  
HETATM   12  C   UNL     1     -10.494   4.422  65.335  1.00  0.00    -0.219 A  
HETATM   13  C   UNL     1      -8.485   6.271  65.841  1.00  0.00    -0.146 A  
HETATM   14  H   UNL     1     -10.169   3.178  63.154  1.00  0.00     0.000 HD 
HETATM   15  C   UNL     1     -10.561   5.243  66.466  1.00  0.00    -0.348 A  
HETATM   16  S   UNL     1      -7.294   7.389  66.344  1.00  0.00    -0.084 SA 
HETATM   17  C   UNL     1      -8.440   5.493  64.664  1.00  0.00    -0.108 A  
HETATM   18  C   UNL     1      -9.458   4.577  64.435  1.00  0.00    -0.069 A  
HETATM   19  O   UNL     1      -9.472   3.805  63.310  1.00  0.00    -0.116 OA 
BRANCH  10  20
HETATM   20  O   UNL     1     -10.299   7.534  68.753  1.00  0.00    -0.194 OA 
BRANCH  20  21
HETATM   21  C   UNL     1     -10.736   8.816  68.976  1.00  0.00    -0.112 A  
HETATM   22  C   UNL     1     -11.550  11.494  69.264  1.00  0.00    -0.322 A  
HETATM   23  C   UNL     1     -11.524  10.900  67.999  1.00  0.00    -0.356 A  
HETATM   24  C   UNL     1     -10.746   9.412  70.231  1.00  0.00    -0.299 A  
HETATM   25  C   UNL     1     -11.120   9.564  67.857  1.00  0.00    -0.053 A  
HETATM   26  C   UNL     1     -11.188  10.723  70.378  1.00  0.00    -0.270 A  
BRANCH  22  27
HETATM   27  O   UNL     1     -11.911  12.824  69.326  1.00  0.00    -0.299 OA 
BRANCH  27  28
HETATM   28  C   UNL     1     -12.233  13.372  68.039  1.00  0.00    -0.100 C  
BRANCH  28  29
HETATM   29  C   UNL     1     -11.010  13.826  67.237  1.00  0.00    -0.292 C  
BRANCH  29  30
HETATM   30  N   UNL     1     -11.414  14.434  65.948  1.00  0.00    -0.337 NA 
HETATM   31  C   UNL     1     -10.411  14.348  64.873  1.00  0.00    -0.423 C  
HETATM   32  C   UNL     1     -10.250  12.952  64.266  1.00  0.00    -0.337 C  
HETATM   33  C   UNL     1     -11.590  12.346  63.862  1.00  0.00    -0.518 C  
HETATM   34  C   UNL     1     -12.628  12.483  64.970  1.00  0.00    -0.424 C  
HETATM   35  C   UNL     1     -12.706  13.922  65.477  1.00  0.00    -0.499 C  
ENDBRANCH  29  30
ENDBRANCH  28  29
ENDBRANCH  27  28
ENDBRANCH  22  27
ENDBRANCH  20  21
ENDBRANCH  10  20
ENDBRANCH   6   9
ENDBRANCH   2   3
TORSDOF 8
ENDMDL
MODEL      106
REMARK 921   NORMALIZED FREE ENERGY PREDICTED BY IDOCK:   -4.63 KCAL/MOL
REMARK 922        TOTAL FREE ENERGY PREDICTED BY IDOCK:   -8.55 KCAL/MOL
REMARK 923 INTER-LIGAND FREE ENERGY PREDICTED BY IDOCK:   -6.93 KCAL/MOL
REMARK 924 INTRA-LIGAND FREE ENERGY PREDICTED BY IDOCK:   -1.62 KCAL/MOL
REMARK 927      BINDING AFFINITY PREDICTED BY RF-SCORE:    0.00 PKD
ROOT
HETATM    1  C   UNL     1      -6.496  15.464  67.580  1.00  0.00    -0.165 C  
HETATM    2  O   UNL     1      -5.732  14.276  67.411  1.00  0.00    -0.344 OA 
ENDROOT
BRANCH   2   3
HETATM    3  C   UNL     1      -6.356  13.097  67.703  1.00  0.00    -0.160 A  
HETATM    4  C   UNL     1      -7.451  12.931  68.548  1.00  0.00    -0.123 A  
HETATM    5  C   UNL     1      -7.979  11.653  68.791  1.00  0.00    -0.086 A  
HETATM    6  C   UNL     1      -7.433  10.511  68.188  1.00  0.00    -0.090 A  
HETATM    7  C   UNL     1      -5.815  11.975  67.084  1.00  0.00    -0.150 A  
HETATM    8  C   UNL     1      -6.346  10.697  67.316  1.00  0.00    -0.064 A  
BRANCH   6   9
HETATM    9  C   UNL     1      -7.953   9.158  68.513  1.00  0.00    -0.102 A  
HETATM   10  C   UNL     1      -8.862   8.342  67.845  1.00  0.00    -0.138 A  
HETATM   11  C   UNL     1      -9.192   7.126  68.573  1.00  0.00    -0.134 A  
HETATM   12  C   UNL     1     -10.193   4.962  69.177  1.00  0.00    -0.186 A  
HETATM   13  C   UNL     1      -8.420   7.025  69.733  1.00  0.00    -0.137 A  
HETATM   14  H   UNL     1     -10.057   3.061  70.843  1.00  0.00     0.000 HD 
HETATM   15  C   UNL     1     -10.094   6.058  68.312  1.00  0.00    -0.194 A  
HETATM   16  S   UNL     1      -7.451   8.412  69.976  1.00  0.00    -0.065 SA 
HETATM   17  C   UNL     1      -8.467   5.895  70.578  1.00  0.00    -0.128 A  
HETATM   18  C   UNL     1      -9.362   4.877  70.275  1.00  0.00    -0.154 A  
HETATM   19  O   UNL     1      -9.444   3.757  71.050  1.00  0.00    -0.142 OA 
BRANCH  10  20
HETATM   20  O   UNL     1      -9.270   8.684  66.589  1.00  0.00    -0.158 OA 
BRANCH  20  21
HETATM   21  C   UNL     1      -9.903   9.861  66.272  1.00  0.00    -0.245 A  
HETATM   22  C   UNL     1     -11.362  12.197  65.694  1.00  0.00    -0.347 A  
HETATM   23  C   UNL     1     -11.657  11.448  66.837  1.00  0.00    -0.088 A  
HETATM   24  C   UNL     1      -9.621  10.596  65.127  1.00  0.00    -0.304 A  
HETATM   25  C   UNL     1     -10.927  10.286  67.125  1.00  0.00    -0.233 A  
HETATM   26  C   UNL     1     -10.314  11.772  64.863  1.00  0.00    -0.334 A  
BRANCH  22  27
HETATM   27  O   UNL     1     -12.150  13.301  65.445  1.00  0.00    -0.371 OA 
BRANCH  27  28
HETATM   28  C   UNL     1     -11.716  14.465  66.163  1.00  0.00    -0.378 C  
BRANCH  28  29
HETATM   29  C   UNL     1     -12.359  14.614  67.545  1.00  0.00     0.139 C  
BRANCH  29  30
HETATM   30  N   UNL     1     -11.330  14.807  68.594  1.00  0.00    -0.271 NA 
HETATM   31  C   UNL     1     -11.632  15.855  69.583  1.00  0.00    -0.336 C  
HETATM   32  C   UNL     1     -12.719  15.480  70.593  1.00  0.00    -0.487 C  
HETATM   33  C   UNL     1     -12.453  14.125  71.242  1.00  0.00    -0.446 C  
HETATM   34  C   UNL     1     -12.099  13.063  70.207  1.00  0.00    -0.388 C  
HETATM   35  C   UNL     1     -10.992  13.552  69.273  1.00  0.00    -0.122 C  
ENDBRANCH  29  30
ENDBRANCH  28  29
ENDBRANCH  27  28
ENDBRANCH  22  27
ENDBRANCH  20  21
ENDBRANCH  10  20
ENDBRANCH   6   9
ENDBRANCH   2   3
TORSDOF 8
ENDMDL
MODEL      107
REMARK 921   NORMALIZED FREE ENERGY PREDICTED BY IDOCK:   -4.57 KCAL/MOL
REMARK 922        TOTAL FREE ENERGY PREDICTED BY IDOCK:   -8.45 KCAL/MOL
REMARK 923 INTER-LIGAND FREE ENERGY PREDICTED BY IDOCK:   -7.69 KCAL/MOL
REMARK 924 INTRA-LIGAND FREE ENERGY PREDICTED BY IDOCK:   -0.76 KCAL/MOL
REMARK 927      BINDING AFFINITY PREDICTED BY RF-SCORE:    0.00 PKD
ROOT
HETATM    1  C   UNL     1     -10.173  19.956  66.124  1.00  0.00    -0.503 C  
HETATM    2  O   UNL     1      -9.707  18.653  65.793  1.00  0.00    -0.457 OA 
ENDROOT
BRANCH   2   3
HETATM    3  C   UNL     1     -10.130  17.628  66.590  1.00  0.00    -0.335 A  
HETATM    4  C   UNL     1     -10.196  17.638  67.981  1.00  0.00    -0.362 A  
HETATM    5  C   UNL     1     -10.620  16.498  68.684  1.00  0.00    -0.316 A  
HETATM    6  C   UNL     1     -10.999  15.326  68.015  1.00  0.00    -0.299 A  
HETATM    7  C   UNL     1     -10.521  16.478  65.911  1.00  0.00    -0.335 A  
HETATM    8  C   UNL     1     -10.956  15.341  66.610  1.00  0.00    -0.297 A  
BRANCH   6   9
HETATM    9  C   UNL     1     -11.374  14.106  68.774  1.00  0.00    -0.278 A  
HETATM   10  C   UNL     1     -11.156  12.758  68.505  1.00  0.00    -0.266 A  
HETATM   11  C   UNL     1     -11.799  11.866  69.458  1.00  0.00    -0.395 A  
HETATM   12  C   UNL     1     -12.555   9.829  70.611  1.00  0.00    -0.185 A  
HETATM   13  C   UNL     1     -12.397  12.597  70.488  1.00  0.00    -0.268 A  
HETATM   14  H   UNL     1     -13.687   8.992  72.715  1.00  0.00     0.000 HD 
HETATM   15  C   UNL     1     -11.896  10.449  69.544  1.00  0.00    -0.218 A  
HETATM   16  S   UNL     1     -12.289  14.282  70.216  1.00  0.00    -0.361 SA 
HETATM   17  C   UNL     1     -13.009  11.980  71.600  1.00  0.00    -0.439 A  
HETATM   18  C   UNL     1     -13.073  10.593  71.637  1.00  0.00    -0.450 A  
HETATM   19  O   UNL     1     -13.644   9.942  72.690  1.00  0.00    -0.211 OA 
BRANCH  10  20
HETATM   20  O   UNL     1     -10.324  12.405  67.483  1.00  0.00    -0.212 OA 
BRANCH  20  21
HETATM   21  C   UNL     1      -9.649  11.212  67.408  1.00  0.00    -0.168 A  
HETATM   22  C   UNL     1      -8.102   8.865  67.270  1.00  0.00    -0.104 A  
HETATM   23  C   UNL     1      -7.697   9.928  68.084  1.00  0.00    -0.082 A  
HETATM   24  C   UNL     1     -10.043  10.162  66.587  1.00  0.00    -0.283 A  
HETATM   25  C   UNL     1      -8.471  11.096  68.154  1.00  0.00    -0.138 A  
HETATM   26  C   UNL     1      -9.300   8.987  66.551  1.00  0.00    -0.246 A  
BRANCH  22  27
HETATM   27  O   UNL     1      -7.270   7.767  67.212  1.00  0.00    -0.086 OA 
BRANCH  27  28
HETATM   28  C   UNL     1      -7.881   6.580  67.738  1.00  0.00    -0.111 C  
BRANCH  28  29
HETATM   29  C   UNL     1      -6.921   5.393  67.860  1.00  0.00    -0.065 C  
BRANCH  29  30
HETATM   30  N   UNL     1      -7.600   4.218  68.455  1.00  0.00    -0.063 NA 
HETATM   31  C   UNL     1      -7.175   2.913  67.922  1.00  0.00    -0.050 C  
HETATM   32  C   UNL     1      -5.790   2.458  68.386  1.00  0.00    -0.023 C  
HETATM   33  C   UNL     1      -5.636   2.547  69.901  1.00  0.00    -0.017 C  
HETATM   34  C   UNL     1      -6.121   3.888  70.440  1.00  0.00    -0.019 C  
HETATM   35  C   UNL     1      -7.520   4.217  69.920  1.00  0.00    -0.050 C  
ENDBRANCH  29  30
ENDBRANCH  28  29
ENDBRANCH  27  28
ENDBRANCH  22  27
ENDBRANCH  20  21
ENDBRANCH  10  20
ENDBRANCH   6   9
ENDBRANCH   2   3
TORSDOF 8
ENDMDL
MODEL      108
REMARK 921   NORMALIZED FREE ENERGY PREDICTED BY IDOCK:   -4.56 KCAL/MOL
REMARK 922        TOTAL FREE ENERGY PREDICTED BY IDOCK:   -8.44 KCAL/MOL
REMARK 923 INTER-LIGAND FREE ENERGY PREDICTED BY IDOCK:   -6.13 KCAL/MOL
REMARK 924 INTRA-LIGAND FREE ENERGY PREDICTED BY IDOCK:   -2.31 KCAL/MOL
REMARK 927      BINDING AFFINITY PREDICTED BY RF-SCORE:    0.00 PKD
ROOT
HETATM    1  C   UNL     1      -7.260   5.283  65.838  1.00  0.00    -0.073 C  
HETATM    2  O   UNL     1      -6.347   6.350  66.066  1.00  0.00    -0.036 OA 
ENDROOT
BRANCH   2   3
HETATM    3  C   UNL     1      -6.875   7.526  66.516  1.00  0.00    -0.062 A  
HETATM    4  C   UNL     1      -6.721   8.064  67.792  1.00  0.00    -0.068 A  
HETATM    5  C   UNL     1      -7.349   9.271  68.138  1.00  0.00    -0.079 A  
HETATM    6  C   UNL     1      -8.136   9.976  67.217  1.00  0.00    -0.114 A  
HETATM    7  C   UNL     1      -7.638   8.223  65.585  1.00  0.00    -0.083 A  
HETATM    8  C   UNL     1      -8.258   9.436  65.924  1.00  0.00    -0.115 A  
BRANCH   6   9
HETATM    9  C   UNL     1      -8.854  11.212  67.619  1.00  0.00    -0.136 A  
HETATM   10  C   UNL     1     -10.189  11.429  67.949  1.00  0.00    -0.182 A  
HETATM   11  C   UNL     1     -10.509  12.831  68.171  1.00  0.00    -0.244 A  
HETATM   12  C   UNL     1     -11.752  14.893  68.675  1.00  0.00    -0.358 A  
HETATM   13  C   UNL     1      -9.355  13.615  68.105  1.00  0.00    -0.212 A  
HETATM   14  H   UNL     1     -11.471  17.366  69.140  1.00  0.00     0.000 HD 
HETATM   15  C   UNL     1     -11.725  13.510  68.463  1.00  0.00    -0.392 A  
HETATM   16  S   UNL     1      -7.986  12.693  67.656  1.00  0.00    -0.183 SA 
HETATM   17  C   UNL     1      -9.361  14.999  68.379  1.00  0.00    -0.193 A  
HETATM   18  C   UNL     1     -10.574  15.613  68.663  1.00  0.00    -0.243 A  
HETATM   19  O   UNL     1     -10.640  16.946  68.945  1.00  0.00    -0.326 OA 
BRANCH  10  20
HETATM   20  O   UNL     1     -11.018  10.359  68.120  1.00  0.00    -0.243 OA 
BRANCH  20  21
HETATM   21  C   UNL     1     -11.086   9.606  69.266  1.00  0.00    -0.118 A  
HETATM   22  C   UNL     1     -11.161   8.216  71.712  1.00  0.00    -0.270 A  
HETATM   23  C   UNL     1     -11.477   9.577  71.666  1.00  0.00    -0.433 A  
HETATM   24  C   UNL     1     -10.755   8.257  69.315  1.00  0.00    -0.140 A  
HETATM   25  C   UNL     1     -11.442  10.268  70.446  1.00  0.00    -0.415 A  
HETATM   26  C   UNL     1     -10.832   7.562  70.516  1.00  0.00    -0.252 A  
BRANCH  22  27
HETATM   27  O   UNL     1     -11.168   7.611  72.951  1.00  0.00    -0.363 OA 
BRANCH  27  28
HETATM   28  C   UNL     1      -9.906   7.713  73.626  1.00  0.00    -0.242 C  
BRANCH  28  29
HETATM   29  C   UNL     1      -9.038   6.457  73.508  1.00  0.00    -0.124 C  
BRANCH  29  30
HETATM   30  N   UNL     1      -7.613   6.768  73.767  1.00  0.00    -0.082 NA 
HETATM   31  C   UNL     1      -6.660   5.718  73.369  1.00  0.00    -0.074 C  
HETATM   32  C   UNL     1      -6.450   5.591  71.859  1.00  0.00    -0.051 C  
HETATM   33  C   UNL     1      -6.139   6.936  71.210  1.00  0.00    -0.037 C  
HETATM   34  C   UNL     1      -7.109   8.021  71.667  1.00  0.00    -0.072 C  
HETATM   35  C   UNL     1      -7.216   8.057  73.191  1.00  0.00    -0.116 C  
ENDBRANCH  29  30
ENDBRANCH  28  29
ENDBRANCH  27  28
ENDBRANCH  22  27
ENDBRANCH  20  21
ENDBRANCH  10  20
ENDBRANCH   6   9
ENDBRANCH   2   3
TORSDOF 8
ENDMDL
MODEL      109
REMARK 921   NORMALIZED FREE ENERGY PREDICTED BY IDOCK:   -4.53 KCAL/MOL
REMARK 922        TOTAL FREE ENERGY PREDICTED BY IDOCK:   -8.40 KCAL/MOL
REMARK 923 INTER-LIGAND FREE ENERGY PREDICTED BY IDOCK:   -6.72 KCAL/MOL
REMARK 924 INTRA-LIGAND FREE ENERGY PREDICTED BY IDOCK:   -1.69 KCAL/MOL
REMARK 927      BINDING AFFINITY PREDICTED BY RF-SCORE:    0.00 PKD
ROOT
HETATM    1  C   UNL     1     -12.492  13.070  71.240  1.00  0.00    -0.218 C  
HETATM    2  O   UNL     1     -13.449  12.019  71.299  1.00  0.00     0.054 OA 
ENDROOT
BRANCH   2   3
HETATM    3  C   UNL     1     -12.964  10.758  71.493  1.00  0.00    -0.456 A  
HETATM    4  C   UNL     1     -13.642   9.696  72.088  1.00  0.00    -0.471 A  
HETATM    5  C   UNL     1     -13.013   8.452  72.259  1.00  0.00    -0.338 A  
HETATM    6  C   UNL     1     -11.696   8.235  71.830  1.00  0.00    -0.381 A  
HETATM    7  C   UNL     1     -11.663  10.552  71.047  1.00  0.00    -0.384 A  
HETATM    8  C   UNL     1     -11.034   9.307  71.205  1.00  0.00    -0.421 A  
BRANCH   6   9
HETATM    9  C   UNL     1     -11.018   6.938  72.084  1.00  0.00    -0.236 A  
HETATM   10  C   UNL     1     -10.799   5.842  71.255  1.00  0.00    -0.270 A  
HETATM   11  C   UNL     1     -10.192   4.711  71.941  1.00  0.00    -0.254 A  
HETATM   12  C   UNL     1      -9.225   2.494  72.388  1.00  0.00    -0.134 A  
HETATM   13  C   UNL     1      -9.875   5.048  73.259  1.00  0.00    -0.152 A  
HETATM   14  H   UNL     1      -7.986   1.137  74.130  1.00  0.00     0.000 HD 
HETATM   15  C   UNL     1      -9.850   3.396  71.520  1.00  0.00    -0.212 A  
HETATM   16  S   UNL     1     -10.421   6.618  73.662  1.00  0.00    -0.319 SA 
HETATM   17  C   UNL     1      -9.187   4.169  74.122  1.00  0.00    -0.110 A  
HETATM   18  C   UNL     1      -8.873   2.897  73.660  1.00  0.00    -0.079 A  
HETATM   19  O   UNL     1      -8.201   2.007  74.447  1.00  0.00    -0.055 OA 
BRANCH  10  20
HETATM   20  O   UNL     1     -11.067   5.948  69.922  1.00  0.00    -0.366 OA 
BRANCH  20  21
HETATM   21  C   UNL     1     -10.213   6.502  69.000  1.00  0.00    -0.177 A  
HETATM   22  C   UNL     1      -8.604   7.619  66.980  1.00  0.00    -0.122 A  
HETATM   23  C   UNL     1      -9.979   7.866  67.000  1.00  0.00    -0.322 A  
HETATM   24  C   UNL     1      -8.848   6.243  68.970  1.00  0.00    -0.124 A  
HETATM   25  C   UNL     1     -10.780   7.311  68.009  1.00  0.00    -0.209 A  
HETATM   26  C   UNL     1      -8.047   6.828  67.996  1.00  0.00    -0.114 A  
BRANCH  22  27
HETATM   27  O   UNL     1      -7.884   8.156  65.933  1.00  0.00    -0.088 OA 
BRANCH  27  28
HETATM   28  C   UNL     1      -7.209   7.158  65.155  1.00  0.00    -0.073 C  
BRANCH  28  29
HETATM   29  C   UNL     1      -8.026   6.642  63.967  1.00  0.00    -0.084 C  
BRANCH  29  30
HETATM   30  N   UNL     1      -7.748   5.209  63.711  1.00  0.00    -0.072 NA 
HETATM   31  C   UNL     1      -7.141   4.478  64.835  1.00  0.00    -0.062 C  
HETATM   32  C   UNL     1      -8.100   4.177  65.989  1.00  0.00    -0.098 C  
HETATM   33  C   UNL     1      -9.393   3.529  65.503  1.00  0.00    -0.158 C  
HETATM   34  C   UNL     1      -9.984   4.274  64.311  1.00  0.00    -0.075 C  
HETATM   35  C   UNL     1      -8.933   4.495  63.224  1.00  0.00    -0.132 C  
ENDBRANCH  29  30
ENDBRANCH  28  29
ENDBRANCH  27  28
ENDBRANCH  22  27
ENDBRANCH  20  21
ENDBRANCH  10  20
ENDBRANCH   6   9
ENDBRANCH   2   3
TORSDOF 8
ENDMDL
MODEL      110
REMARK 921   NORMALIZED FREE ENERGY PREDICTED BY IDOCK:   -4.44 KCAL/MOL
REMARK 922        TOTAL FREE ENERGY PREDICTED BY IDOCK:   -8.27 KCAL/MOL
REMARK 923 INTER-LIGAND FREE ENERGY PREDICTED BY IDOCK:   -6.11 KCAL/MOL
REMARK 924 INTRA-LIGAND FREE ENERGY PREDICTED BY IDOCK:   -2.16 KCAL/MOL
REMARK 927      BINDING AFFINITY PREDICTED BY RF-SCORE:    0.00 PKD
ROOT
HETATM    1  C   UNL     1      -8.688   2.836  73.814  1.00  0.00    -0.072 C  
HETATM    2  O   UNL     1     -10.007   3.356  73.689  1.00  0.00    -0.106 OA 
ENDROOT
BRANCH   2   3
HETATM    3  C   UNL     1     -10.165   4.440  72.875  1.00  0.00    -0.172 A  
HETATM    4  C   UNL     1      -9.241   4.919  71.949  1.00  0.00    -0.171 A  
HETATM    5  C   UNL     1      -9.517   6.071  71.195  1.00  0.00    -0.182 A  
HETATM    6  C   UNL     1     -10.726   6.766  71.339  1.00  0.00    -0.253 A  
HETATM    7  C   UNL     1     -11.377   5.109  73.015  1.00  0.00    -0.381 A  
HETATM    8  C   UNL     1     -11.661   6.254  72.255  1.00  0.00    -0.355 A  
BRANCH   6   9
HETATM    9  C   UNL     1     -10.972   8.025  70.589  1.00  0.00    -0.245 A  
HETATM   10  C   UNL     1     -10.891   8.311  69.230  1.00  0.00    -0.048 A  
HETATM   11  C   UNL     1     -11.100   9.718  68.922  1.00  0.00    -0.139 A  
HETATM   12  C   UNL     1     -11.338  11.829  67.682  1.00  0.00    -0.370 A  
HETATM   13  C   UNL     1     -11.444  10.427  70.076  1.00  0.00    -0.308 A  
HETATM   14  H   UNL     1     -12.034  14.252  67.920  1.00  0.00     0.000 HD 
HETATM   15  C   UNL     1     -11.051  10.460  67.709  1.00  0.00    -0.365 A  
HETATM   16  S   UNL     1     -11.374   9.442  71.471  1.00  0.00    -0.384 SA 
HETATM   17  C   UNL     1     -11.797  11.794  70.049  1.00  0.00    -0.422 A  
HETATM   18  C   UNL     1     -11.737  12.470  68.837  1.00  0.00    -0.322 A  
HETATM   19  O   UNL     1     -12.075  13.789  68.749  1.00  0.00    -0.357 OA 
BRANCH  10  20
HETATM   20  O   UNL     1     -10.727   7.291  68.339  1.00  0.00    -0.189 OA 
BRANCH  20  21
HETATM   21  C   UNL     1      -9.571   7.051  67.638  1.00  0.00    -0.131 A  
HETATM   22  C   UNL     1      -7.276   6.389  66.150  1.00  0.00    -0.072 A  
HETATM   23  C   UNL     1      -8.539   5.976  65.716  1.00  0.00    -0.155 A  
HETATM   24  C   UNL     1      -8.314   7.448  68.078  1.00  0.00    -0.124 A  
HETATM   25  C   UNL     1      -9.682   6.309  66.457  1.00  0.00    -0.180 A  
HETATM   26  C   UNL     1      -7.185   7.156  67.321  1.00  0.00    -0.086 A  
BRANCH  22  27
HETATM   27  O   UNL     1      -6.191   5.986  65.400  1.00  0.00    -0.035 OA 
BRANCH  27  28
HETATM   28  C   UNL     1      -5.566   4.804  65.920  1.00  0.00    -0.017 C  
BRANCH  28  29
HETATM   29  C   UNL     1      -6.290   3.507  65.546  1.00  0.00    -0.032 C  
BRANCH  29  30
HETATM   30  N   UNL     1      -6.262   2.539  66.667  1.00  0.00    -0.024 NA 
HETATM   31  C   UNL     1      -6.267   3.138  68.012  1.00  0.00    -0.032 C  
HETATM   32  C   UNL     1      -7.612   3.729  68.439  1.00  0.00    -0.061 C  
HETATM   33  C   UNL     1      -8.759   2.743  68.236  1.00  0.00    -0.136 C  
HETATM   34  C   UNL     1      -8.713   2.101  66.854  1.00  0.00    -0.132 C  
HETATM   35  C   UNL     1      -7.325   1.535  66.556  1.00  0.00    -0.055 C  
ENDBRANCH  29  30
ENDBRANCH  28  29
ENDBRANCH  27  28
ENDBRANCH  22  27
ENDBRANCH  20  21
ENDBRANCH  10  20
ENDBRANCH   6   9
ENDBRANCH   2   3
TORSDOF 8
ENDMDL
MODEL      111
REMARK 921   NORMALIZED FREE ENERGY PREDICTED BY IDOCK:   -4.43 KCAL/MOL
REMARK 922        TOTAL FREE ENERGY PREDICTED BY IDOCK:   -8.25 KCAL/MOL
REMARK 923 INTER-LIGAND FREE ENERGY PREDICTED BY IDOCK:   -6.66 KCAL/MOL
REMARK 924 INTRA-LIGAND FREE ENERGY PREDICTED BY IDOCK:   -1.60 KCAL/MOL
REMARK 927      BINDING AFFINITY PREDICTED BY RF-SCORE:    0.00 PKD
ROOT
HETATM    1  C   UNL     1      -5.801  13.591  70.582  1.00  0.00    -0.171 C  
HETATM    2  O   UNL     1      -5.444  12.346  71.170  1.00  0.00    -0.283 OA 
ENDROOT
BRANCH   2   3
HETATM    3  C   UNL     1      -5.916  11.220  70.559  1.00  0.00    -0.112 A  
HETATM    4  C   UNL     1      -5.876   9.925  71.072  1.00  0.00    -0.082 A  
HETATM    5  C   UNL     1      -6.369   8.845  70.321  1.00  0.00    -0.039 A  
HETATM    6  C   UNL     1      -6.923   9.033  69.047  1.00  0.00    -0.063 A  
HETATM    7  C   UNL     1      -6.479  11.424  69.304  1.00  0.00    -0.096 A  
HETATM    8  C   UNL     1      -6.983  10.348  68.556  1.00  0.00    -0.062 A  
BRANCH   6   9
HETATM    9  C   UNL     1      -7.371   7.873  68.235  1.00  0.00    -0.098 A  
HETATM   10  C   UNL     1      -8.545   7.126  68.276  1.00  0.00    -0.122 A  
HETATM   11  C   UNL     1      -8.535   5.983  67.375  1.00  0.00    -0.104 A  
HETATM   12  C   UNL     1      -9.226   3.960  66.159  1.00  0.00    -0.161 A  
HETATM   13  C   UNL     1      -7.373   5.980  66.600  1.00  0.00    -0.078 A  
HETATM   14  H   UNL     1      -8.580   2.421  64.255  1.00  0.00     0.000 HD 
HETATM   15  C   UNL     1      -9.467   4.937  67.131  1.00  0.00    -0.154 A  
HETATM   16  S   UNL     1      -6.300   7.230  67.057  1.00  0.00    -0.052 SA 
HETATM   17  C   UNL     1      -7.149   5.036  65.574  1.00  0.00    -0.067 A  
HETATM   18  C   UNL     1      -8.093   4.037  65.374  1.00  0.00    -0.101 A  
HETATM   19  O   UNL     1      -7.934   3.104  64.391  1.00  0.00    -0.081 OA 
BRANCH  10  20
HETATM   20  O   UNL     1      -9.587   7.559  69.042  1.00  0.00    -0.152 OA 
BRANCH  20  21
HETATM   21  C   UNL     1     -10.227   8.762  68.874  1.00  0.00    -0.207 A  
HETATM   22  C   UNL     1     -11.415  11.266  68.386  1.00  0.00    -0.307 A  
HETATM   23  C   UNL     1     -10.908  10.509  67.325  1.00  0.00    -0.338 A  
HETATM   24  C   UNL     1     -10.716   9.522  69.930  1.00  0.00    -0.268 A  
HETATM   25  C   UNL     1     -10.319   9.260  67.570  1.00  0.00    -0.323 A  
HETATM   26  C   UNL     1     -11.339  10.741  69.684  1.00  0.00    -0.362 A  
BRANCH  22  27
HETATM   27  O   UNL     1     -11.937  12.506  68.080  1.00  0.00    -0.342 OA 
BRANCH  27  28
HETATM   28  C   UNL     1     -11.894  12.794  66.675  1.00  0.00    -0.393 C  
BRANCH  28  29
HETATM   29  C   UNL     1     -11.955  14.289  66.348  1.00  0.00    -0.419 C  
BRANCH  29  30
HETATM   30  N   UNL     1     -11.000  14.639  65.270  1.00  0.00    -0.344 NA 
HETATM   31  C   UNL     1     -11.135  16.003  64.733  1.00  0.00    -0.365 C  
HETATM   32  C   UNL     1     -10.625  17.105  65.664  1.00  0.00    -0.187 C  
HETATM   33  C   UNL     1      -9.217  16.817  66.174  1.00  0.00    -0.284 C  
HETATM   34  C   UNL     1      -9.084  15.387  66.686  1.00  0.00    -0.310 C  
HETATM   35  C   UNL     1      -9.610  14.383  65.660  1.00  0.00    -0.131 C  
ENDBRANCH  29  30
ENDBRANCH  28  29
ENDBRANCH  27  28
ENDBRANCH  22  27
ENDBRANCH  20  21
ENDBRANCH  10  20
ENDBRANCH   6   9
ENDBRANCH   2   3
TORSDOF 8
ENDMDL
MODEL      112
REMARK 921   NORMALIZED FREE ENERGY PREDICTED BY IDOCK:   -4.40 KCAL/MOL
REMARK 922        TOTAL FREE ENERGY PREDICTED BY IDOCK:   -8.21 KCAL/MOL
REMARK 923 INTER-LIGAND FREE ENERGY PREDICTED BY IDOCK:   -6.26 KCAL/MOL
REMARK 924 INTRA-LIGAND FREE ENERGY PREDICTED BY IDOCK:   -1.95 KCAL/MOL
REMARK 927      BINDING AFFINITY PREDICTED BY RF-SCORE:    0.00 PKD
ROOT
HETATM    1  C   UNL     1      -6.436  13.221  67.706  1.00  0.00    -0.159 C  
HETATM    2  O   UNL     1      -5.611  12.349  66.943  1.00  0.00    -0.327 OA 
ENDROOT
BRANCH   2   3
HETATM    3  C   UNL     1      -6.169  11.171  66.538  1.00  0.00    -0.139 A  
HETATM    4  C   UNL     1      -7.432  11.009  65.972  1.00  0.00    -0.032 A  
HETATM    5  C   UNL     1      -7.902   9.730  65.630  1.00  0.00    -0.114 A  
HETATM    6  C   UNL     1      -7.119   8.585  65.834  1.00  0.00    -0.076 A  
HETATM    7  C   UNL     1      -5.374  10.046  66.730  1.00  0.00    -0.041 A  
HETATM    8  C   UNL     1      -5.836   8.768  66.379  1.00  0.00    -0.051 A  
BRANCH   6   9
HETATM    9  C   UNL     1      -7.658   7.234  65.537  1.00  0.00    -0.097 A  
HETATM   10  C   UNL     1      -8.161   6.244  66.376  1.00  0.00    -0.112 A  
HETATM   11  C   UNL     1      -8.478   5.004  65.684  1.00  0.00    -0.127 A  
HETATM   12  C   UNL     1      -9.216   2.701  65.233  1.00  0.00    -0.124 A  
HETATM   13  C   UNL     1      -8.298   5.152  64.306  1.00  0.00    -0.137 A  
HETATM   14  H   UNL     1      -9.740   1.070  63.369  1.00  0.00     0.000 HD 
HETATM   15  C   UNL     1      -8.947   3.738  66.133  1.00  0.00    -0.135 A  
HETATM   16  S   UNL     1      -7.644   6.682  63.911  1.00  0.00    -0.112 SA 
HETATM   17  C   UNL     1      -8.626   4.134  63.385  1.00  0.00    -0.104 A  
HETATM   18  C   UNL     1      -9.085   2.918  63.876  1.00  0.00    -0.103 A  
HETATM   19  O   UNL     1      -9.426   1.901  63.033  1.00  0.00    -0.090 OA 
BRANCH  10  20
HETATM   20  O   UNL     1      -8.393   6.534  67.689  1.00  0.00    -0.120 OA 
BRANCH  20  21
HETATM   21  C   UNL     1      -9.032   7.665  68.132  1.00  0.00    -0.126 A  
HETATM   22  C   UNL     1     -10.264   9.952  69.214  1.00  0.00    -0.209 A  
HETATM   23  C   UNL     1      -8.980   9.583  69.627  1.00  0.00    -0.198 A  
HETATM   24  C   UNL     1     -10.315   8.023  67.735  1.00  0.00    -0.294 A  
HETATM   25  C   UNL     1      -8.367   8.445  69.085  1.00  0.00    -0.122 A  
HETATM   26  C   UNL     1     -10.906   9.176  68.239  1.00  0.00    -0.104 A  
BRANCH  22  27
HETATM   27  O   UNL     1     -10.826  11.055  69.823  1.00  0.00    -0.231 OA 
BRANCH  27  28
HETATM   28  C   UNL     1     -11.841  11.674  69.019  1.00  0.00    -0.328 C  
BRANCH  28  29
HETATM   29  C   UNL     1     -11.408  13.003  68.392  1.00  0.00    -0.291 C  
BRANCH  29  30
HETATM   30  N   UNL     1     -10.642  12.779  67.144  1.00  0.00    -0.236 NA 
HETATM   31  C   UNL     1     -11.397  12.143  66.052  1.00  0.00    -0.358 C  
HETATM   32  C   UNL     1     -12.415  13.058  65.367  1.00  0.00    -0.531 C  
HETATM   33  C   UNL     1     -11.798  14.389  64.951  1.00  0.00    -0.419 C  
HETATM   34  C   UNL     1     -10.985  15.012  66.081  1.00  0.00    -0.334 C  
HETATM   35  C   UNL     1      -9.995  14.005  66.666  1.00  0.00    -0.278 C  
ENDBRANCH  29  30
ENDBRANCH  28  29
ENDBRANCH  27  28
ENDBRANCH  22  27
ENDBRANCH  20  21
ENDBRANCH  10  20
ENDBRANCH   6   9
ENDBRANCH   2   3
TORSDOF 8
ENDMDL
MODEL      113
REMARK 921   NORMALIZED FREE ENERGY PREDICTED BY IDOCK:   -4.39 KCAL/MOL
REMARK 922        TOTAL FREE ENERGY PREDICTED BY IDOCK:   -8.20 KCAL/MOL
REMARK 923 INTER-LIGAND FREE ENERGY PREDICTED BY IDOCK:   -6.36 KCAL/MOL
REMARK 924 INTRA-LIGAND FREE ENERGY PREDICTED BY IDOCK:   -1.84 KCAL/MOL
REMARK 927      BINDING AFFINITY PREDICTED BY RF-SCORE:    0.00 PKD
ROOT
HETATM    1  C   UNL     1      -8.943   1.676  69.234  1.00  0.00    -0.089 C  
HETATM    2  O   UNL     1      -9.611   2.620  68.405  1.00  0.00    -0.185 OA 
ENDROOT
BRANCH   2   3
HETATM    3  C   UNL     1      -9.127   3.897  68.414  1.00  0.00    -0.138 A  
HETATM    4  C   UNL     1      -8.127   4.406  67.590  1.00  0.00    -0.099 A  
HETATM    5  C   UNL     1      -7.697   5.736  67.727  1.00  0.00    -0.097 A  
HETATM    6  C   UNL     1      -8.262   6.592  68.682  1.00  0.00    -0.118 A  
HETATM    7  C   UNL     1      -9.711   4.740  69.355  1.00  0.00    -0.266 A  
HETATM    8  C   UNL     1      -9.291   6.072  69.487  1.00  0.00    -0.151 A  
BRANCH   6   9
HETATM    9  C   UNL     1      -7.746   7.972  68.866  1.00  0.00    -0.104 A  
HETATM   10  C   UNL     1      -7.686   9.051  67.989  1.00  0.00    -0.097 A  
HETATM   11  C   UNL     1      -6.986  10.204  68.536  1.00  0.00    -0.069 A  
HETATM   12  C   UNL     1      -5.985  12.439  68.765  1.00  0.00    -0.066 A  
HETATM   13  C   UNL     1      -6.637   9.977  69.870  1.00  0.00    -0.089 A  
HETATM   14  H   UNL     1      -4.931  14.026  70.432  1.00  0.00     0.000 HD 
HETATM   15  C   UNL     1      -6.639  11.472  67.993  1.00  0.00    -0.058 A  
HETATM   16  S   UNL     1      -7.025   8.388  70.367  1.00  0.00    -0.038 SA 
HETATM   17  C   UNL     1      -6.034  10.968  70.675  1.00  0.00    -0.079 A  
HETATM   18  C   UNL     1      -5.720  12.191  70.097  1.00  0.00    -0.153 A  
HETATM   19  O   UNL     1      -5.145  13.189  70.828  1.00  0.00    -0.104 OA 
BRANCH  10  20
HETATM   20  O   UNL     1      -8.335   8.977  66.791  1.00  0.00    -0.113 OA 
BRANCH  20  21
HETATM   21  C   UNL     1      -9.288   9.870  66.369  1.00  0.00    -0.167 A  
HETATM   22  C   UNL     1     -11.373  11.598  65.603  1.00  0.00    -0.170 A  
HETATM   23  C   UNL     1     -11.370  11.021  66.876  1.00  0.00    -0.112 A  
HETATM   24  C   UNL     1      -9.300  10.431  65.097  1.00  0.00    -0.271 A  
HETATM   25  C   UNL     1     -10.329  10.162  67.257  1.00  0.00    -0.291 A  
HETATM   26  C   UNL     1     -10.308  11.317  64.734  1.00  0.00    -0.366 A  
BRANCH  22  27
HETATM   27  O   UNL     1     -12.451  12.395  65.277  1.00  0.00    -0.611 OA 
BRANCH  27  28
HETATM   28  C   UNL     1     -12.063  13.720  64.887  1.00  0.00    -0.403 C  
BRANCH  28  29
HETATM   29  C   UNL     1     -12.009  14.716  66.050  1.00  0.00    -0.242 C  
BRANCH  29  30
HETATM   30  N   UNL     1     -10.652  15.292  66.195  1.00  0.00    -0.303 NA 
HETATM   31  C   UNL     1     -10.567  16.485  67.055  1.00  0.00    -0.255 C  
HETATM   32  C   UNL     1     -10.703  16.198  68.552  1.00  0.00    -0.300 C  
HETATM   33  C   UNL     1      -9.767  15.083  69.008  1.00  0.00    -0.229 C  
HETATM   34  C   UNL     1      -9.836  13.875  68.082  1.00  0.00    -0.240 C  
HETATM   35  C   UNL     1      -9.669  14.290  66.621  1.00  0.00    -0.287 C  
ENDBRANCH  29  30
ENDBRANCH  28  29
ENDBRANCH  27  28
ENDBRANCH  22  27
ENDBRANCH  20  21
ENDBRANCH  10  20
ENDBRANCH   6   9
ENDBRANCH   2   3
TORSDOF 8
ENDMDL
MODEL      114
REMARK 921   NORMALIZED FREE ENERGY PREDICTED BY IDOCK:   -4.34 KCAL/MOL
REMARK 922        TOTAL FREE ENERGY PREDICTED BY IDOCK:   -8.12 KCAL/MOL
REMARK 923 INTER-LIGAND FREE ENERGY PREDICTED BY IDOCK:   -7.11 KCAL/MOL
REMARK 924 INTRA-LIGAND FREE ENERGY PREDICTED BY IDOCK:   -1.01 KCAL/MOL
REMARK 927      BINDING AFFINITY PREDICTED BY RF-SCORE:    0.00 PKD
ROOT
HETATM    1  C   UNL     1     -13.388  12.719  72.140  1.00  0.00    -0.492 C  
HETATM    2  O   UNL     1     -13.594  11.341  72.427  1.00  0.00    -0.145 OA 
ENDROOT
BRANCH   2   3
HETATM    3  C   UNL     1     -12.899  10.444  71.667  1.00  0.00    -0.474 A  
HETATM    4  C   UNL     1     -12.988   9.056  71.742  1.00  0.00    -0.436 A  
HETATM    5  C   UNL     1     -12.189   8.244  70.921  1.00  0.00    -0.101 A  
HETATM    6  C   UNL     1     -11.290   8.798  69.999  1.00  0.00    -0.040 A  
HETATM    7  C   UNL     1     -12.025  11.008  70.744  1.00  0.00    -0.436 A  
HETATM    8  C   UNL     1     -11.232  10.200  69.914  1.00  0.00    -0.343 A  
BRANCH   6   9
HETATM    9  C   UNL     1     -10.397   7.928  69.191  1.00  0.00    -0.219 A  
HETATM   10  C   UNL     1     -10.092   7.939  67.833  1.00  0.00    -0.191 A  
HETATM   11  C   UNL     1      -9.253   6.824  67.420  1.00  0.00    -0.130 A  
HETATM   12  C   UNL     1      -7.915   5.294  66.035  1.00  0.00    -0.104 A  
HETATM   13  C   UNL     1      -8.866   6.065  68.527  1.00  0.00    -0.112 A  
HETATM   14  H   UNL     1      -6.317   3.333  66.146  1.00  0.00     0.000 HD 
HETATM   15  C   UNL     1      -8.754   6.407  66.154  1.00  0.00    -0.151 A  
HETATM   16  S   UNL     1      -9.607   6.615  69.966  1.00  0.00    -0.155 SA 
HETATM   17  C   UNL     1      -7.969   4.980  68.425  1.00  0.00    -0.086 A  
HETATM   18  C   UNL     1      -7.508   4.616  67.166  1.00  0.00    -0.085 A  
HETATM   19  O   UNL     1      -6.633   3.582  67.008  1.00  0.00    -0.037 OA 
BRANCH  10  20
HETATM   20  O   UNL     1     -10.502   8.989  67.064  1.00  0.00    -0.265 OA 
BRANCH  20  21
HETATM   21  C   UNL     1      -9.849  10.195  66.986  1.00  0.00    -0.191 A  
HETATM   22  C   UNL     1      -8.438  12.629  66.999  1.00  0.00    -0.150 A  
HETATM   23  C   UNL     1      -7.880  11.490  67.586  1.00  0.00    -0.125 A  
HETATM   24  C   UNL     1     -10.411  11.332  66.417  1.00  0.00    -0.291 A  
HETATM   25  C   UNL     1      -8.583  10.276  67.576  1.00  0.00    -0.118 A  
HETATM   26  C   UNL     1      -9.696  12.524  66.388  1.00  0.00    -0.253 A  
BRANCH  22  27
HETATM   27  O   UNL     1      -7.714  13.800  67.087  1.00  0.00    -0.121 OA 
BRANCH  27  28
HETATM   28  C   UNL     1      -8.514  14.966  66.848  1.00  0.00    -0.223 C  
BRANCH  28  29
HETATM   29  C   UNL     1      -8.484  15.982  67.993  1.00  0.00    -0.164 C  
BRANCH  29  30
HETATM   30  N   UNL     1      -9.641  16.905  67.918  1.00  0.00    -0.240 NA 
HETATM   31  C   UNL     1     -10.729  16.473  67.025  1.00  0.00    -0.191 C  
HETATM   32  C   UNL     1     -11.573  15.316  67.565  1.00  0.00    -0.223 C  
HETATM   33  C   UNL     1     -12.056  15.577  68.988  1.00  0.00    -0.246 C  
HETATM   34  C   UNL     1     -10.926  16.064  69.888  1.00  0.00    -0.353 C  
HETATM   35  C   UNL     1     -10.174  17.230  69.245  1.00  0.00    -0.218 C  
ENDBRANCH  29  30
ENDBRANCH  28  29
ENDBRANCH  27  28
ENDBRANCH  22  27
ENDBRANCH  20  21
ENDBRANCH  10  20
ENDBRANCH   6   9
ENDBRANCH   2   3
TORSDOF 8
ENDMDL
MODEL      115
REMARK 921   NORMALIZED FREE ENERGY PREDICTED BY IDOCK:   -4.29 KCAL/MOL
REMARK 922        TOTAL FREE ENERGY PREDICTED BY IDOCK:   -8.05 KCAL/MOL
REMARK 923 INTER-LIGAND FREE ENERGY PREDICTED BY IDOCK:   -7.84 KCAL/MOL
REMARK 924 INTRA-LIGAND FREE ENERGY PREDICTED BY IDOCK:   -0.21 KCAL/MOL
REMARK 927      BINDING AFFINITY PREDICTED BY RF-SCORE:    0.00 PKD
ROOT
HETATM    1  C   UNL     1     -10.837  14.953  64.881  1.00  0.00    -0.413 C  
HETATM    2  O   UNL     1     -10.459  13.650  64.454  1.00  0.00    -0.432 OA 
ENDROOT
BRANCH   2   3
HETATM    3  C   UNL     1     -10.300  12.706  65.428  1.00  0.00    -0.291 A  
HETATM    4  C   UNL     1      -9.571  12.851  66.605  1.00  0.00    -0.257 A  
HETATM    5  C   UNL     1      -9.459  11.784  67.512  1.00  0.00    -0.174 A  
HETATM    6  C   UNL     1     -10.081  10.551  67.269  1.00  0.00    -0.242 A  
HETATM    7  C   UNL     1     -10.938  11.495  65.182  1.00  0.00    -0.298 A  
HETATM    8  C   UNL     1     -10.838  10.430  66.091  1.00  0.00     0.011 A  
BRANCH   6   9
HETATM    9  C   UNL     1      -9.893   9.409  68.200  1.00  0.00    -0.160 A  
HETATM   10  C   UNL     1     -10.650   8.978  69.285  1.00  0.00    -0.213 A  
HETATM   11  C   UNL     1     -10.043   7.873  70.012  1.00  0.00    -0.199 A  
HETATM   12  C   UNL     1      -9.660   6.091  71.664  1.00  0.00    -0.170 A  
HETATM   13  C   UNL     1      -8.883   7.439  69.365  1.00  0.00    -0.137 A  
HETATM   14  H   UNL     1      -8.174   4.114  72.205  1.00  0.00     0.000 HD 
HETATM   15  C   UNL     1     -10.418   7.167  71.188  1.00  0.00    -0.225 A  
HETATM   16  S   UNL     1      -8.496   8.427  68.024  1.00  0.00    -0.132 SA 
HETATM   17  C   UNL     1      -8.147   6.316  69.800  1.00  0.00    -0.120 A  
HETATM   18  C   UNL     1      -8.559   5.659  70.953  1.00  0.00    -0.129 A  
HETATM   19  O   UNL     1      -7.892   4.563  71.416  1.00  0.00    -0.081 OA 
BRANCH  10  20
HETATM   20  O   UNL     1     -11.876   9.532  69.508  1.00  0.00     0.191 OA 
BRANCH  20  21
HETATM   21  C   UNL     1     -12.078  10.816  69.952  1.00  0.00    -0.337 A  
HETATM   22  C   UNL     1     -12.627  13.377  70.982  1.00  0.00    -0.343 A  
HETATM   23  C   UNL     1     -12.678  12.257  71.817  1.00  0.00    -0.257 A  
HETATM   24  C   UNL     1     -12.043  11.927  69.118  1.00  0.00    -0.261 A  
HETATM   25  C   UNL     1     -12.402  10.982  71.303  1.00  0.00    -0.426 A  
HETATM   26  C   UNL     1     -12.274  13.197  69.636  1.00  0.00    -0.241 A  
BRANCH  22  27
HETATM   27  O   UNL     1     -12.956  14.594  71.541  1.00  0.00    -0.305 OA 
BRANCH  27  28
HETATM   28  C   UNL     1     -12.646  15.701  70.682  1.00  0.00    -0.414 C  
BRANCH  28  29
HETATM   29  C   UNL     1     -11.146  15.972  70.539  1.00  0.00    -0.353 C  
BRANCH  29  30
HETATM   30  N   UNL     1     -10.691  15.730  69.150  1.00  0.00    -0.230 NA 
HETATM   31  C   UNL     1     -11.061  16.774  68.179  1.00  0.00    -0.254 C  
HETATM   32  C   UNL     1     -10.264  18.073  68.309  1.00  0.00    -0.402 C  
HETATM   33  C   UNL     1      -8.760  17.820  68.346  1.00  0.00    -0.292 C  
HETATM   34  C   UNL     1      -8.400  16.707  69.325  1.00  0.00    -0.019 C  
HETATM   35  C   UNL     1      -9.251  15.462  69.080  1.00  0.00    -0.235 C  
ENDBRANCH  29  30
ENDBRANCH  28  29
ENDBRANCH  27  28
ENDBRANCH  22  27
ENDBRANCH  20  21
ENDBRANCH  10  20
ENDBRANCH   6   9
ENDBRANCH   2   3
TORSDOF 8
ENDMDL
MODEL      116
REMARK 921   NORMALIZED FREE ENERGY PREDICTED BY IDOCK:   -4.27 KCAL/MOL
REMARK 922        TOTAL FREE ENERGY PREDICTED BY IDOCK:   -8.02 KCAL/MOL
REMARK 923 INTER-LIGAND FREE ENERGY PREDICTED BY IDOCK:   -7.32 KCAL/MOL
REMARK 924 INTRA-LIGAND FREE ENERGY PREDICTED BY IDOCK:   -0.70 KCAL/MOL
REMARK 927      BINDING AFFINITY PREDICTED BY RF-SCORE:    0.00 PKD
ROOT
HETATM    1  C   UNL     1     -11.867  15.187  64.410  1.00  0.00    -0.305 C  
HETATM    2  O   UNL     1     -12.068  13.889  63.863  1.00  0.00    -0.481 OA 
ENDROOT
BRANCH   2   3
HETATM    3  C   UNL     1     -11.561  12.839  64.573  1.00  0.00    -0.347 A  
HETATM    4  C   UNL     1     -12.156  12.220  65.670  1.00  0.00    -0.306 A  
HETATM    5  C   UNL     1     -11.509  11.166  66.334  1.00  0.00     0.160 A  
HETATM    6  C   UNL     1     -10.257  10.696  65.911  1.00  0.00    -0.314 A  
HETATM    7  C   UNL     1     -10.328  12.371  64.131  1.00  0.00    -0.409 A  
HETATM    8  C   UNL     1      -9.682  11.310  64.785  1.00  0.00    -0.298 A  
BRANCH   6   9
HETATM    9  C   UNL     1      -9.551   9.631  66.668  1.00  0.00    -0.187 A  
HETATM   10  C   UNL     1      -8.579   9.704  67.661  1.00  0.00    -0.126 A  
HETATM   11  C   UNL     1      -8.058   8.405  68.059  1.00  0.00    -0.123 A  
HETATM   12  C   UNL     1      -6.757   6.658  69.202  1.00  0.00    -0.052 A  
HETATM   13  C   UNL     1      -8.752   7.379  67.411  1.00  0.00    -0.121 A  
HETATM   14  H   UNL     1      -6.563   4.153  69.514  1.00  0.00     0.000 HD 
HETATM   15  C   UNL     1      -7.040   8.009  68.970  1.00  0.00    -0.066 A  
HETATM   16  S   UNL     1      -9.878   7.990  66.279  1.00  0.00     0.008 SA 
HETATM   17  C   UNL     1      -8.518   6.015  67.685  1.00  0.00    -0.107 A  
HETATM   18  C   UNL     1      -7.515   5.682  68.586  1.00  0.00    -0.084 A  
HETATM   19  O   UNL     1      -7.250   4.380  68.897  1.00  0.00    -0.051 OA 
BRANCH  10  20
HETATM   20  O   UNL     1      -8.281  10.914  68.217  1.00  0.00    -0.115 OA 
BRANCH  20  21
HETATM   21  C   UNL     1      -9.193  11.919  68.424  1.00  0.00    -0.173 A  
HETATM   22  C   UNL     1     -10.918  14.105  68.832  1.00  0.00    -0.259 A  
HETATM   23  C   UNL     1      -9.830  14.220  67.961  1.00  0.00    -0.224 A  
HETATM   24  C   UNL     1     -10.264  11.810  69.302  1.00  0.00     0.153 A  
HETATM   25  C   UNL     1      -8.974  13.129  67.756  1.00  0.00    -0.194 A  
HETATM   26  C   UNL     1     -11.140  12.877  69.472  1.00  0.00    -0.049 A  
BRANCH  22  27
HETATM   27  O   UNL     1     -11.691  15.230  69.024  1.00  0.00    -0.319 OA 
BRANCH  27  28
HETATM   28  C   UNL     1     -11.316  16.315  68.162  1.00  0.00    -0.248 C  
BRANCH  28  29
HETATM   29  C   UNL     1     -10.368  17.325  68.815  1.00  0.00    -0.358 C  
BRANCH  29  30
HETATM   30  N   UNL     1      -9.274  17.704  67.891  1.00  0.00    -0.262 NA 
HETATM   31  C   UNL     1      -9.671  17.863  66.482  1.00  0.00    -0.329 C  
HETATM   32  C   UNL     1     -10.477  19.131  66.190  1.00  0.00    -0.558 C  
HETATM   33  C   UNL     1      -9.802  20.379  66.750  1.00  0.00    -0.541 C  
HETATM   34  C   UNL     1      -9.359  20.181  68.195  1.00  0.00    -0.294 C  
HETATM   35  C   UNL     1      -8.550  18.894  68.352  1.00  0.00    -0.346 C  
ENDBRANCH  29  30
ENDBRANCH  28  29
ENDBRANCH  27  28
ENDBRANCH  22  27
ENDBRANCH  20  21
ENDBRANCH  10  20
ENDBRANCH   6   9
ENDBRANCH   2   3
TORSDOF 8
ENDMDL
MODEL      117
REMARK 921   NORMALIZED FREE ENERGY PREDICTED BY IDOCK:   -4.20 KCAL/MOL
REMARK 922        TOTAL FREE ENERGY PREDICTED BY IDOCK:   -7.92 KCAL/MOL
REMARK 923 INTER-LIGAND FREE ENERGY PREDICTED BY IDOCK:   -6.45 KCAL/MOL
REMARK 924 INTRA-LIGAND FREE ENERGY PREDICTED BY IDOCK:   -1.47 KCAL/MOL
REMARK 927      BINDING AFFINITY PREDICTED BY RF-SCORE:    0.00 PKD
ROOT
HETATM    1  C   UNL     1      -8.115   4.427  66.901  1.00  0.00    -0.102 C  
HETATM    2  O   UNL     1      -9.031   5.256  66.195  1.00  0.00    -0.130 OA 
ENDROOT
BRANCH   2   3
HETATM    3  C   UNL     1      -9.409   6.416  66.810  1.00  0.00    -0.147 A  
HETATM    4  C   UNL     1      -8.582   7.495  67.114  1.00  0.00    -0.121 A  
HETATM    5  C   UNL     1      -9.093   8.619  67.782  1.00  0.00    -0.143 A  
HETATM    6  C   UNL     1     -10.443   8.699  68.151  1.00  0.00    -0.241 A  
HETATM    7  C   UNL     1     -10.755   6.488  67.154  1.00  0.00    -0.438 A  
HETATM    8  C   UNL     1     -11.272   7.615  67.811  1.00  0.00     0.360 A  
BRANCH   6   9
HETATM    9  C   UNL     1     -10.953   9.861  68.923  1.00  0.00    -0.179 A  
HETATM   10  C   UNL     1     -11.689   9.926  70.102  1.00  0.00    -0.174 A  
HETATM   11  C   UNL     1     -12.091  11.278  70.460  1.00  0.00    -0.481 A  
HETATM   12  C   UNL     1     -13.087  13.179  71.661  1.00  0.00    -0.444 A  
HETATM   13  C   UNL     1     -11.536  12.205  69.575  1.00  0.00    -0.315 A  
HETATM   14  H   UNL     1     -13.168  15.709  71.739  1.00  0.00     0.000 HD 
HETATM   15  C   UNL     1     -12.883  11.802  71.519  1.00  0.00    -0.450 A  
HETATM   16  S   UNL     1     -10.690  11.440  68.301  1.00  0.00    -0.219 SA 
HETATM   17  C   UNL     1     -11.684  13.598  69.745  1.00  0.00    -0.364 A  
HETATM   18  C   UNL     1     -12.463  14.059  70.798  1.00  0.00    -0.372 A  
HETATM   19  O   UNL     1     -12.634  15.394  71.018  1.00  0.00    -0.363 OA 
BRANCH  10  20
HETATM   20  O   UNL     1     -11.880   8.791  70.834  1.00  0.00    -0.282 OA 
BRANCH  20  21
HETATM   21  C   UNL     1     -10.876   8.091  71.458  1.00  0.00    -0.232 A  
HETATM   22  C   UNL     1      -8.695   6.788  72.666  1.00  0.00    -0.122 A  
HETATM   23  C   UNL     1      -8.717   8.183  72.573  1.00  0.00    -0.266 A  
HETATM   24  C   UNL     1     -10.846   6.704  71.535  1.00  0.00    -0.277 A  
HETATM   25  C   UNL     1      -9.807   8.831  71.973  1.00  0.00    -0.376 A  
HETATM   26  C   UNL     1      -9.787   6.063  72.169  1.00  0.00    -0.181 A  
BRANCH  22  27
HETATM   27  O   UNL     1      -7.572   6.214  73.224  1.00  0.00    -0.096 OA 
BRANCH  27  28
HETATM   28  C   UNL     1      -7.882   5.340  74.320  1.00  0.00    -0.096 C  
BRANCH  28  29
HETATM   29  C   UNL     1      -6.928   4.149  74.451  1.00  0.00    -0.065 C  
BRANCH  29  30
HETATM   30  N   UNL     1      -7.413   2.988  73.669  1.00  0.00    -0.050 NA 
HETATM   31  C   UNL     1      -7.436   3.182  72.209  1.00  0.00    -0.052 C  
HETATM   32  C   UNL     1      -6.057   3.166  71.545  1.00  0.00    -0.014 C  
HETATM   33  C   UNL     1      -5.238   1.947  71.958  1.00  0.00     0.000 C  
HETATM   34  C   UNL     1      -5.261   1.738  73.468  1.00  0.00     0.000 C  
HETATM   35  C   UNL     1      -6.692   1.756  74.005  1.00  0.00    -0.021 C  
ENDBRANCH  29  30
ENDBRANCH  28  29
ENDBRANCH  27  28
ENDBRANCH  22  27
ENDBRANCH  20  21
ENDBRANCH  10  20
ENDBRANCH   6   9
ENDBRANCH   2   3
TORSDOF 8
ENDMDL
MODEL      118
REMARK 921   NORMALIZED FREE ENERGY PREDICTED BY IDOCK:   -4.16 KCAL/MOL
REMARK 922        TOTAL FREE ENERGY PREDICTED BY IDOCK:   -7.86 KCAL/MOL
REMARK 923 INTER-LIGAND FREE ENERGY PREDICTED BY IDOCK:   -6.73 KCAL/MOL
REMARK 924 INTRA-LIGAND FREE ENERGY PREDICTED BY IDOCK:   -1.13 KCAL/MOL
REMARK 927      BINDING AFFINITY PREDICTED BY RF-SCORE:    0.00 PKD
ROOT
HETATM    1  C   UNL     1      -7.118   5.487  73.640  1.00  0.00    -0.086 C  
HETATM    2  O   UNL     1      -6.521   6.754  73.388  1.00  0.00    -0.063 OA 
ENDROOT
BRANCH   2   3
HETATM    3  C   UNL     1      -7.176   7.581  72.521  1.00  0.00    -0.074 A  
HETATM    4  C   UNL     1      -8.551   7.792  72.464  1.00  0.00    -0.184 A  
HETATM    5  C   UNL     1      -9.102   8.648  71.496  1.00  0.00    -0.308 A  
HETATM    6  C   UNL     1      -8.293   9.321  70.570  1.00  0.00    -0.237 A  
HETATM    7  C   UNL     1      -6.358   8.255  71.620  1.00  0.00    -0.049 A  
HETATM    8  C   UNL     1      -6.904   9.120  70.659  1.00  0.00    -0.084 A  
BRANCH   6   9
HETATM    9  C   UNL     1      -8.895  10.164  69.505  1.00  0.00    -0.182 A  
HETATM   10  C   UNL     1      -8.372  11.224  68.772  1.00  0.00    -0.120 A  
HETATM   11  C   UNL     1      -9.347  11.861  67.899  1.00  0.00    -0.187 A  
HETATM   12  C   UNL     1     -10.377  13.375  66.256  1.00  0.00    -0.291 A  
HETATM   13  C   UNL     1     -10.560  11.169  67.933  1.00  0.00    -0.198 A  
HETATM   14  H   UNL     1     -12.469  13.752  64.881  1.00  0.00     0.000 HD 
HETATM   15  C   UNL     1      -9.279  12.988  67.034  1.00  0.00    -0.232 A  
HETATM   16  S   UNL     1     -10.537   9.899  69.077  1.00  0.00    -0.228 SA 
HETATM   17  C   UNL     1     -11.652  11.513  67.106  1.00  0.00    -0.249 A  
HETATM   18  C   UNL     1     -11.533  12.620  66.276  1.00  0.00    -0.364 A  
HETATM   19  O   UNL     1     -12.551  12.994  65.449  1.00  0.00    -0.489 OA 
BRANCH  10  20
HETATM   20  O   UNL     1      -7.039  11.502  68.855  1.00  0.00    -0.097 OA 
BRANCH  20  21
HETATM   21  C   UNL     1      -6.510  12.770  68.875  1.00  0.00    -0.091 A  
HETATM   22  C   UNL     1      -5.582  15.422  69.016  1.00  0.00    -0.098 A  
HETATM   23  C   UNL     1      -6.281  14.864  70.090  1.00  0.00    -0.165 A  
HETATM   24  C   UNL     1      -5.830  13.330  67.801  1.00  0.00    -0.132 A  
HETATM   25  C   UNL     1      -6.740  13.540  70.020  1.00  0.00     0.211 A  
HETATM   26  C   UNL     1      -5.336  14.627  67.887  1.00  0.00    -0.086 A  
BRANCH  22  27
HETATM   27  O   UNL     1      -5.201  16.743  69.133  1.00  0.00    -0.126 OA 
BRANCH  27  28
HETATM   28  C   UNL     1      -5.709  17.563  68.070  1.00  0.00    -0.144 C  
BRANCH  28  29
HETATM   29  C   UNL     1      -7.128  18.083  68.315  1.00  0.00    -0.241 C  
BRANCH  29  30
HETATM   30  N   UNL     1      -7.894  18.156  67.049  1.00  0.00    -0.217 NA 
HETATM   31  C   UNL     1      -9.296  17.714  67.139  1.00  0.00    -0.245 C  
HETATM   32  C   UNL     1     -10.225  18.693  67.861  1.00  0.00    -0.433 C  
HETATM   33  C   UNL     1     -10.095  20.112  67.317  1.00  0.00    -0.572 C  
HETATM   34  C   UNL     1      -8.636  20.536  67.190  1.00  0.00    -0.364 C  
HETATM   35  C   UNL     1      -7.821  19.486  66.435  1.00  0.00    -0.306 C  
ENDBRANCH  29  30
ENDBRANCH  28  29
ENDBRANCH  27  28
ENDBRANCH  22  27
ENDBRANCH  20  21
ENDBRANCH  10  20
ENDBRANCH   6   9
ENDBRANCH   2   3
TORSDOF 8
ENDMDL
MODEL      119
REMARK 921   NORMALIZED FREE ENERGY PREDICTED BY IDOCK:   -4.16 KCAL/MOL
REMARK 922        TOTAL FREE ENERGY PREDICTED BY IDOCK:   -7.86 KCAL/MOL
REMARK 923 INTER-LIGAND FREE ENERGY PREDICTED BY IDOCK:   -6.46 KCAL/MOL
REMARK 924 INTRA-LIGAND FREE ENERGY PREDICTED BY IDOCK:   -1.40 KCAL/MOL
REMARK 927      BINDING AFFINITY PREDICTED BY RF-SCORE:    0.00 PKD
ROOT
HETATM    1  C   UNL     1      -8.851  10.652  63.273  1.00  0.00    -0.201 C  
HETATM    2  O   UNL     1      -8.204   9.390  63.381  1.00  0.00    -0.146 OA 
ENDROOT
BRANCH   2   3
HETATM    3  C   UNL     1      -8.250   8.778  64.601  1.00  0.00    -0.165 A  
HETATM    4  C   UNL     1      -8.455   7.420  64.836  1.00  0.00     0.049 A  
HETATM    5  C   UNL     1      -8.515   6.924  66.148  1.00  0.00    -0.136 A  
HETATM    6  C   UNL     1      -8.361   7.768  67.256  1.00  0.00    -0.118 A  
HETATM    7  C   UNL     1      -8.077   9.625  65.691  1.00  0.00    -0.117 A  
HETATM    8  C   UNL     1      -8.125   9.131  67.003  1.00  0.00    -0.109 A  
BRANCH   6   9
HETATM    9  C   UNL     1      -8.501   7.241  68.638  1.00  0.00    -0.129 A  
HETATM   10  C   UNL     1      -9.508   7.409  69.584  1.00  0.00    -0.156 A  
HETATM   11  C   UNL     1      -9.196   6.812  70.874  1.00  0.00    -0.157 A  
HETATM   12  C   UNL     1      -9.369   6.091  73.219  1.00  0.00    -0.135 A  
HETATM   13  C   UNL     1      -7.988   6.113  70.811  1.00  0.00    -0.115 A  
HETATM   14  H   UNL     1      -8.267   4.645  74.981  1.00  0.00     0.000 HD 
HETATM   15  C   UNL     1      -9.882   6.787  72.119  1.00  0.00    -0.159 A  
HETATM   16  S   UNL     1      -7.223   6.301  69.294  1.00  0.00    -0.088 SA 
HETATM   17  C   UNL     1      -7.493   5.356  71.894  1.00  0.00    -0.093 A  
HETATM   18  C   UNL     1      -8.204   5.361  73.087  1.00  0.00    -0.115 A  
HETATM   19  O   UNL     1      -7.780   4.641  74.165  1.00  0.00    -0.087 OA 
BRANCH  10  20
HETATM   20  O   UNL     1     -10.680   8.002  69.215  1.00  0.00    -0.209 OA 
BRANCH  20  21
HETATM   21  C   UNL     1     -10.918   9.353  69.272  1.00  0.00    -0.117 A  
HETATM   22  C   UNL     1     -11.535  12.087  69.528  1.00  0.00    -0.282 A  
HETATM   23  C   UNL     1     -11.538  11.257  70.653  1.00  0.00    -0.117 A  
HETATM   24  C   UNL     1     -10.930  10.175  68.152  1.00  0.00    -0.313 A  
HETATM   25  C   UNL     1     -11.228   9.896  70.524  1.00  0.00    -0.399 A  
HETATM   26  C   UNL     1     -11.195  11.533  68.284  1.00  0.00    -0.322 A  
BRANCH  22  27
HETATM   27  O   UNL     1     -11.896  13.404  69.717  1.00  0.00    -0.303 OA 
BRANCH  27  28
HETATM   28  C   UNL     1     -11.953  14.146  68.490  1.00  0.00    -0.332 C  
BRANCH  28  29
HETATM   29  C   UNL     1     -11.243  15.501  68.552  1.00  0.00    -0.333 C  
BRANCH  29  30
HETATM   30  N   UNL     1     -10.227  15.620  67.481  1.00  0.00    -0.258 NA 
HETATM   31  C   UNL     1     -10.343  16.821  66.638  1.00  0.00    -0.297 C  
HETATM   32  C   UNL     1      -9.906  18.120  67.319  1.00  0.00    -0.316 C  
HETATM   33  C   UNL     1      -8.529  17.992  67.964  1.00  0.00    -0.263 C  
HETATM   34  C   UNL     1      -8.413  16.721  68.798  1.00  0.00    -0.253 C  
HETATM   35  C   UNL     1      -8.861  15.496  68.001  1.00  0.00    -0.165 C  
ENDBRANCH  29  30
ENDBRANCH  28  29
ENDBRANCH  27  28
ENDBRANCH  22  27
ENDBRANCH  20  21
ENDBRANCH  10  20
ENDBRANCH   6   9
ENDBRANCH   2   3
TORSDOF 8
ENDMDL
MODEL      120
REMARK 921   NORMALIZED FREE ENERGY PREDICTED BY IDOCK:   -4.15 KCAL/MOL
REMARK 922        TOTAL FREE ENERGY PREDICTED BY IDOCK:   -7.85 KCAL/MOL
REMARK 923 INTER-LIGAND FREE ENERGY PREDICTED BY IDOCK:   -5.73 KCAL/MOL
REMARK 924 INTRA-LIGAND FREE ENERGY PREDICTED BY IDOCK:   -2.12 KCAL/MOL
REMARK 927      BINDING AFFINITY PREDICTED BY RF-SCORE:    0.00 PKD
ROOT
HETATM    1  C   UNL     1     -11.853  13.135  64.589  1.00  0.00    -0.370 C  
HETATM    2  O   UNL     1     -11.074  11.949  64.487  1.00  0.00    -0.304 OA 
ENDROOT
BRANCH   2   3
HETATM    3  C   UNL     1     -10.852  11.259  65.644  1.00  0.00    -0.177 A  
HETATM    4  C   UNL     1     -11.299  11.613  66.915  1.00  0.00    -0.364 A  
HETATM    5  C   UNL     1     -10.969  10.829  68.032  1.00  0.00    -0.336 A  
HETATM    6  C   UNL     1     -10.195   9.667  67.906  1.00  0.00    -0.242 A  
HETATM    7  C   UNL     1     -10.098  10.098  65.501  1.00  0.00    -0.338 A  
HETATM    8  C   UNL     1      -9.776   9.306  66.614  1.00  0.00    -0.281 A  
BRANCH   6   9
HETATM    9  C   UNL     1      -9.792   8.889  69.105  1.00  0.00    -0.180 A  
HETATM   10  C   UNL     1     -10.222   7.654  69.583  1.00  0.00    -0.204 A  
HETATM   11  C   UNL     1      -9.650   7.302  70.874  1.00  0.00    -0.170 A  
HETATM   12  C   UNL     1      -9.121   6.077  72.940  1.00  0.00    -0.131 A  
HETATM   13  C   UNL     1      -8.711   8.258  71.272  1.00  0.00    -0.152 A  
HETATM   14  H   UNL     1      -7.583   6.065  74.951  1.00  0.00     0.000 HD 
HETATM   15  C   UNL     1      -9.842   6.196  71.747  1.00  0.00    -0.185 A  
HETATM   16  S   UNL     1      -8.645   9.575  70.184  1.00  0.00    -0.231 SA 
HETATM   17  C   UNL     1      -7.933   8.115  72.440  1.00  0.00    -0.185 A  
HETATM   18  C   UNL     1      -8.157   7.014  73.256  1.00  0.00    -0.097 A  
HETATM   19  O   UNL     1      -7.429   6.819  74.393  1.00  0.00    -0.097 OA 
BRANCH  10  20
HETATM   20  O   UNL     1     -11.023   6.876  68.800  1.00  0.00    -0.213 OA 
BRANCH  20  21
HETATM   21  C   UNL     1     -10.563   5.966  67.881  1.00  0.00    -0.251 A  
HETATM   22  C   UNL     1      -9.798   4.093  65.925  1.00  0.00    -0.199 A  
HETATM   23  C   UNL     1     -10.747   5.074  65.626  1.00  0.00    -0.055 A  
HETATM   24  C   UNL     1      -9.631   4.980  68.184  1.00  0.00    -0.182 A  
HETATM   25  C   UNL     1     -11.125   6.009  66.601  1.00  0.00    -0.118 A  
HETATM   26  C   UNL     1      -9.223   4.081  67.205  1.00  0.00    -0.185 A  
BRANCH  22  27
HETATM   27  O   UNL     1      -9.507   3.177  64.936  1.00  0.00    -0.150 OA 
BRANCH  27  28
HETATM   28  C   UNL     1      -8.097   2.964  64.774  1.00  0.00    -0.086 C  
BRANCH  28  29
HETATM   29  C   UNL     1      -7.419   3.981  63.852  1.00  0.00    -0.062 C  
BRANCH  29  30
HETATM   30  N   UNL     1      -6.111   4.408  64.400  1.00  0.00    -0.021 NA 
HETATM   31  C   UNL     1      -5.203   5.044  63.431  1.00  0.00    -0.009 C  
HETATM   32  C   UNL     1      -5.600   6.467  63.031  1.00  0.00    -0.026 C  
HETATM   33  C   UNL     1      -5.866   7.350  64.246  1.00  0.00    -0.037 C  
HETATM   34  C   UNL     1      -6.772   6.657  65.258  1.00  0.00    -0.050 C  
HETATM   35  C   UNL     1      -6.259   5.256  65.588  1.00  0.00    -0.034 C  
ENDBRANCH  29  30
ENDBRANCH  28  29
ENDBRANCH  27  28
ENDBRANCH  22  27
ENDBRANCH  20  21
ENDBRANCH  10  20
ENDBRANCH   6   9
ENDBRANCH   2   3
TORSDOF 8
ENDMDL
MODEL      121
REMARK 921   NORMALIZED FREE ENERGY PREDICTED BY IDOCK:   -4.10 KCAL/MOL
REMARK 922        TOTAL FREE ENERGY PREDICTED BY IDOCK:   -7.77 KCAL/MOL
REMARK 923 INTER-LIGAND FREE ENERGY PREDICTED BY IDOCK:   -5.48 KCAL/MOL
REMARK 924 INTRA-LIGAND FREE ENERGY PREDICTED BY IDOCK:   -2.29 KCAL/MOL
REMARK 927      BINDING AFFINITY PREDICTED BY RF-SCORE:    0.00 PKD
ROOT
HETATM    1  C   UNL     1      -7.577  13.699  67.458  1.00  0.00    -0.170 C  
HETATM    2  O   UNL     1      -7.776  12.825  68.563  1.00  0.00    -0.132 OA 
ENDROOT
BRANCH   2   3
HETATM    3  C   UNL     1      -7.777  11.487  68.295  1.00  0.00    -0.123 A  
HETATM    4  C   UNL     1      -6.670  10.640  68.318  1.00  0.00    -0.063 A  
HETATM    5  C   UNL     1      -6.804   9.282  67.987  1.00  0.00    -0.068 A  
HETATM    6  C   UNL     1      -8.046   8.734  67.637  1.00  0.00    -0.106 A  
HETATM    7  C   UNL     1      -9.019  10.953  67.968  1.00  0.00    -0.145 A  
HETATM    8  C   UNL     1      -9.158   9.593  67.647  1.00  0.00    -0.141 A  
BRANCH   6   9
HETATM    9  C   UNL     1      -8.158   7.314  67.217  1.00  0.00    -0.112 A  
HETATM   10  C   UNL     1      -7.550   6.163  67.711  1.00  0.00    -0.097 A  
HETATM   11  C   UNL     1      -7.845   4.972  66.927  1.00  0.00    -0.096 A  
HETATM   12  C   UNL     1      -7.885   2.641  66.144  1.00  0.00    -0.081 A  
HETATM   13  C   UNL     1      -8.767   5.263  65.920  1.00  0.00    -0.138 A  
HETATM   14  H   UNL     1      -9.020   1.070  64.514  1.00  0.00     0.000 HD 
HETATM   15  C   UNL     1      -7.407   3.621  67.020  1.00  0.00    -0.068 A  
HETATM   16  S   UNL     1      -9.137   6.932  65.859  1.00  0.00     0.069 SA 
HETATM   17  C   UNL     1      -9.303   4.270  65.072  1.00  0.00    -0.165 A  
HETATM   18  C   UNL     1      -8.845   2.966  65.207  1.00  0.00    -0.131 A  
HETATM   19  O   UNL     1      -9.334   1.963  64.422  1.00  0.00    -0.127 OA 
BRANCH  10  20
HETATM   20  O   UNL     1      -6.847   6.225  68.878  1.00  0.00    -0.061 OA 
BRANCH  20  21
HETATM   21  C   UNL     1      -7.417   6.235  70.128  1.00  0.00    -0.094 A  
HETATM   22  C   UNL     1      -8.748   6.196  72.606  1.00  0.00    -0.124 A  
HETATM   23  C   UNL     1      -9.038   5.232  71.637  1.00  0.00    -0.156 A  
HETATM   24  C   UNL     1      -7.140   7.204  71.085  1.00  0.00    -0.072 A  
HETATM   25  C   UNL     1      -8.372   5.251  70.403  1.00  0.00    -0.111 A  
HETATM   26  C   UNL     1      -7.768   7.160  72.325  1.00  0.00    -0.089 A  
BRANCH  22  27
HETATM   27  O   UNL     1      -9.474   6.148  73.778  1.00  0.00    -0.137 OA 
BRANCH  27  28
HETATM   28  C   UNL     1     -10.883   6.314  73.565  1.00  0.00    -0.176 C  
BRANCH  28  29
HETATM   29  C   UNL     1     -11.285   7.737  73.168  1.00  0.00    -0.218 C  
BRANCH  29  30
HETATM   30  N   UNL     1     -11.934   7.756  71.836  1.00  0.00    -0.289 NA 
HETATM   31  C   UNL     1     -13.231   8.451  71.781  1.00  0.00    -0.355 C  
HETATM   32  C   UNL     1     -13.136   9.977  71.855  1.00  0.00    -0.563 C  
HETATM   33  C   UNL     1     -12.132  10.537  70.853  1.00  0.00    -0.487 C  
HETATM   34  C   UNL     1     -10.811   9.777  70.894  1.00  0.00    -0.399 C  
HETATM   35  C   UNL     1     -11.039   8.270  70.793  1.00  0.00    -0.258 C  
ENDBRANCH  29  30
ENDBRANCH  28  29
ENDBRANCH  27  28
ENDBRANCH  22  27
ENDBRANCH  20  21
ENDBRANCH  10  20
ENDBRANCH   6   9
ENDBRANCH   2   3
TORSDOF 8
ENDMDL
MODEL      122
REMARK 921   NORMALIZED FREE ENERGY PREDICTED BY IDOCK:   -4.08 KCAL/MOL
REMARK 922        TOTAL FREE ENERGY PREDICTED BY IDOCK:   -7.74 KCAL/MOL
REMARK 923 INTER-LIGAND FREE ENERGY PREDICTED BY IDOCK:   -5.57 KCAL/MOL
REMARK 924 INTRA-LIGAND FREE ENERGY PREDICTED BY IDOCK:   -2.18 KCAL/MOL
REMARK 927      BINDING AFFINITY PREDICTED BY RF-SCORE:    0.00 PKD
ROOT
HETATM    1  C   UNL     1     -12.764  14.366  64.042  1.00  0.00     0.287 C  
HETATM    2  O   UNL     1     -11.716  13.430  63.817  1.00  0.00    -0.418 OA 
ENDROOT
BRANCH   2   3
HETATM    3  C   UNL     1     -11.373  12.626  64.866  1.00  0.00    -0.311 A  
HETATM    4  C   UNL     1     -11.844  12.730  66.173  1.00  0.00    -0.484 A  
HETATM    5  C   UNL     1     -11.383  11.856  67.170  1.00  0.00    -0.393 A  
HETATM    6  C   UNL     1     -10.449  10.850  66.884  1.00  0.00    -0.299 A  
HETATM    7  C   UNL     1     -10.460  11.622  64.563  1.00  0.00    -0.359 A  
HETATM    8  C   UNL     1     -10.005  10.739  65.555  1.00  0.00    -0.321 A  
BRANCH   6   9
HETATM    9  C   UNL     1      -9.914   9.981  67.963  1.00  0.00    -0.150 A  
HETATM   10  C   UNL     1     -10.159   8.646  68.269  1.00  0.00    -0.192 A  
HETATM   11  C   UNL     1      -9.514   8.206  69.497  1.00  0.00    -0.156 A  
HETATM   12  C   UNL     1      -8.772   6.798  71.373  1.00  0.00    -0.131 A  
HETATM   13  C   UNL     1      -8.705   9.220  70.017  1.00  0.00    -0.195 A  
HETATM   14  H   UNL     1      -7.199   6.729  73.356  1.00  0.00     0.000 HD 
HETATM   15  C   UNL     1      -9.532   6.976  70.212  1.00  0.00    -0.165 A  
HETATM   16  S   UNL     1      -8.847  10.668  69.120  1.00  0.00    -0.074 SA 
HETATM   17  C   UNL     1      -7.886   9.031  71.151  1.00  0.00    -0.154 A  
HETATM   18  C   UNL     1      -7.938   7.809  71.810  1.00  0.00    -0.094 A  
HETATM   19  O   UNL     1      -7.163   7.565  72.905  1.00  0.00    -0.068 OA 
BRANCH  10  20
HETATM   20  O   UNL     1     -10.866   7.877  67.392  1.00  0.00    -0.237 OA 
BRANCH  20  21
HETATM   21  C   UNL     1     -10.365   6.769  66.753  1.00  0.00    -0.215 A  
HETATM   22  C   UNL     1      -9.222   4.617  65.346  1.00  0.00    -0.155 A  
HETATM   23  C   UNL     1      -8.438   5.716  65.708  1.00  0.00    -0.140 A  
HETATM   24  C   UNL     1     -11.148   5.684  66.379  1.00  0.00     0.060 A  
HETATM   25  C   UNL     1      -9.008   6.786  66.412  1.00  0.00    -0.165 A  
HETATM   26  C   UNL     1     -10.574   4.603  65.720  1.00  0.00    -0.264 A  
BRANCH  22  27
HETATM   27  O   UNL     1      -8.609   3.621  64.614  1.00  0.00    -0.103 OA 
BRANCH  27  28
HETATM   28  C   UNL     1      -8.423   2.414  65.367  1.00  0.00    -0.102 C  
BRANCH  28  29
HETATM   29  C   UNL     1      -7.287   2.493  66.391  1.00  0.00    -0.066 C  
BRANCH  29  30
HETATM   30  N   UNL     1      -7.613   1.716  67.610  1.00  0.00    -0.057 NA 
HETATM   31  C   UNL     1      -6.604   1.778  68.681  1.00  0.00    -0.029 C  
HETATM   32  C   UNL     1      -6.560   3.109  69.434  1.00  0.00    -0.033 C  
HETATM   33  C   UNL     1      -7.942   3.543  69.910  1.00  0.00    -0.056 C  
HETATM   34  C   UNL     1      -8.982   3.431  68.801  1.00  0.00    -0.183 C  
HETATM   35  C   UNL     1      -8.938   2.053  68.142  1.00  0.00    -0.144 C  
ENDBRANCH  29  30
ENDBRANCH  28  29
ENDBRANCH  27  28
ENDBRANCH  22  27
ENDBRANCH  20  21
ENDBRANCH  10  20
ENDBRANCH   6   9
ENDBRANCH   2   3
TORSDOF 8
ENDMDL
MODEL      123
REMARK 921   NORMALIZED FREE ENERGY PREDICTED BY IDOCK:   -4.08 KCAL/MOL
REMARK 922        TOTAL FREE ENERGY PREDICTED BY IDOCK:   -7.74 KCAL/MOL
REMARK 923 INTER-LIGAND FREE ENERGY PREDICTED BY IDOCK:   -6.42 KCAL/MOL
REMARK 924 INTRA-LIGAND FREE ENERGY PREDICTED BY IDOCK:   -1.31 KCAL/MOL
REMARK 927      BINDING AFFINITY PREDICTED BY RF-SCORE:    0.00 PKD
ROOT
HETATM    1  C   UNL     1      -8.756   4.355  66.735  1.00  0.00    -0.112 C  
HETATM    2  O   UNL     1      -8.226   5.221  65.737  1.00  0.00    -0.112 OA 
ENDROOT
BRANCH   2   3
HETATM    3  C   UNL     1      -8.621   6.526  65.784  1.00  0.00    -0.144 A  
HETATM    4  C   UNL     1      -9.620   7.058  66.597  1.00  0.00    -0.220 A  
HETATM    5  C   UNL     1      -9.953   8.420  66.521  1.00  0.00    -0.335 A  
HETATM    6  C   UNL     1      -9.290   9.286  65.640  1.00  0.00    -0.308 A  
HETATM    7  C   UNL     1      -7.943   7.378  64.918  1.00  0.00    -0.128 A  
HETATM    8  C   UNL     1      -8.265   8.742  64.847  1.00  0.00    -0.160 A  
BRANCH   6   9
HETATM    9  C   UNL     1      -9.704  10.707  65.518  1.00  0.00    -0.237 A  
HETATM   10  C   UNL     1      -9.268  11.848  66.184  1.00  0.00    -0.199 A  
HETATM   11  C   UNL     1     -10.028  13.042  65.846  1.00  0.00    -0.270 A  
HETATM   12  C   UNL     1     -10.814  15.372  65.780  1.00  0.00    -0.349 A  
HETATM   13  C   UNL     1     -10.953  12.765  64.837  1.00  0.00    -0.294 A  
HETATM   14  H   UNL     1     -12.348  16.959  64.539  1.00  0.00     0.000 HD 
HETATM   15  C   UNL     1      -9.978  14.385  66.313  1.00  0.00    -0.320 A  
HETATM   16  S   UNL     1     -10.976  11.103  64.435  1.00  0.00    -0.070 SA 
HETATM   17  C   UNL     1     -11.757  13.765  64.248  1.00  0.00    -0.426 A  
HETATM   18  C   UNL     1     -11.666  15.062  64.739  1.00  0.00    -0.370 A  
HETATM   19  O   UNL     1     -12.410  16.072  64.203  1.00  0.00    -0.632 OA 
BRANCH  10  20
HETATM   20  O   UNL     1      -8.164  11.776  66.982  1.00  0.00    -0.161 OA 
BRANCH  20  21
HETATM   21  C   UNL     1      -8.006  10.878  68.009  1.00  0.00    -0.109 A  
HETATM   22  C   UNL     1      -7.800   9.149  70.219  1.00  0.00    -0.125 A  
HETATM   23  C   UNL     1      -9.007   9.799  69.945  1.00  0.00    -0.254 A  
HETATM   24  C   UNL     1      -6.801  10.245  68.291  1.00  0.00    -0.065 A  
HETATM   25  C   UNL     1      -9.108  10.659  68.841  1.00  0.00    -0.181 A  
HETATM   26  C   UNL     1      -6.712   9.359  69.359  1.00  0.00    -0.048 A  
BRANCH  22  27
HETATM   27  O   UNL     1      -7.756   8.356  71.347  1.00  0.00    -0.080 OA 
BRANCH  27  28
HETATM   28  C   UNL     1      -6.517   7.643  71.475  1.00  0.00    -0.038 C  
BRANCH  28  29
HETATM   29  C   UNL     1      -6.686   6.126  71.598  1.00  0.00    -0.059 C  
BRANCH  29  30
HETATM   30  N   UNL     1      -7.253   5.550  70.356  1.00  0.00    -0.065 NA 
HETATM   31  C   UNL     1      -6.755   4.210  70.003  1.00  0.00    -0.034 C  
HETATM   32  C   UNL     1      -7.298   3.080  70.880  1.00  0.00    -0.033 C  
HETATM   33  C   UNL     1      -8.819   3.125  70.993  1.00  0.00    -0.143 C  
HETATM   34  C   UNL     1      -9.319   4.529  71.316  1.00  0.00    -0.209 C  
HETATM   35  C   UNL     1      -8.719   5.560  70.361  1.00  0.00    -0.131 C  
ENDBRANCH  29  30
ENDBRANCH  28  29
ENDBRANCH  27  28
ENDBRANCH  22  27
ENDBRANCH  20  21
ENDBRANCH  10  20
ENDBRANCH   6   9
ENDBRANCH   2   3
TORSDOF 8
ENDMDL
MODEL      124
REMARK 921   NORMALIZED FREE ENERGY PREDICTED BY IDOCK:   -4.04 KCAL/MOL
REMARK 922        TOTAL FREE ENERGY PREDICTED BY IDOCK:   -7.69 KCAL/MOL
REMARK 923 INTER-LIGAND FREE ENERGY PREDICTED BY IDOCK:   -6.07 KCAL/MOL
REMARK 924 INTRA-LIGAND FREE ENERGY PREDICTED BY IDOCK:   -1.61 KCAL/MOL
REMARK 927      BINDING AFFINITY PREDICTED BY RF-SCORE:    0.00 PKD
ROOT
HETATM    1  C   UNL     1      -5.990   8.023  70.276  1.00  0.00    -0.029 C  
HETATM    2  O   UNL     1      -7.373   8.158  69.973  1.00  0.00    -0.059 OA 
ENDROOT
BRANCH   2   3
HETATM    3  C   UNL     1      -7.747   9.284  69.296  1.00  0.00    -0.081 A  
HETATM    4  C   UNL     1      -6.910  10.118  68.558  1.00  0.00    -0.058 A  
HETATM    5  C   UNL     1      -7.419  11.269  67.935  1.00  0.00    -0.094 A  
HETATM    6  C   UNL     1      -8.776  11.609  68.024  1.00  0.00    -0.157 A  
HETATM    7  C   UNL     1      -9.099   9.598  69.378  1.00  0.00    -0.194 A  
HETATM    8  C   UNL     1      -9.613  10.742  68.748  1.00  0.00    -0.194 A  
BRANCH   6   9
HETATM    9  C   UNL     1      -9.285  12.868  67.423  1.00  0.00    -0.197 A  
HETATM   10  C   UNL     1     -10.062  13.093  66.291  1.00  0.00    -0.285 A  
HETATM   11  C   UNL     1     -10.240  14.504  65.982  1.00  0.00    -0.329 A  
HETATM   12  C   UNL     1     -10.951  16.584  64.877  1.00  0.00    -0.223 A  
HETATM   13  C   UNL     1      -9.667  15.300  66.978  1.00  0.00    -0.226 A  
HETATM   14  H   UNL     1     -11.015  19.101  65.145  1.00  0.00     0.000 HD 
HETATM   15  C   UNL     1     -10.890  15.186  64.916  1.00  0.00    -0.437 A  
HETATM   16  S   UNL     1      -8.841  14.362  68.144  1.00  0.00    -0.187 SA 
HETATM   17  C   UNL     1      -9.777  16.707  66.981  1.00  0.00    -0.253 A  
HETATM   18  C   UNL     1     -10.426  17.324  65.918  1.00  0.00    -0.262 A  
HETATM   19  O   UNL     1     -10.571  18.679  65.872  1.00  0.00    -0.479 OA 
BRANCH  10  20
HETATM   20  O   UNL     1     -10.641  12.034  65.655  1.00  0.00    -0.248 OA 
BRANCH  20  21
HETATM   21  C   UNL     1      -9.992  11.214  64.766  1.00  0.00    -0.287 A  
HETATM   22  C   UNL     1      -8.574   9.449  63.094  1.00  0.00    -0.219 A  
HETATM   23  C   UNL     1      -9.021   9.023  64.348  1.00  0.00    -0.034 A  
HETATM   24  C   UNL     1      -9.533  11.642  63.526  1.00  0.00    -0.190 A  
HETATM   25  C   UNL     1      -9.730   9.903  65.179  1.00  0.00    -0.376 A  
HETATM   26  C   UNL     1      -8.868  10.758  62.684  1.00  0.00    -0.311 A  
BRANCH  22  27
HETATM   27  O   UNL     1      -7.842   8.549  62.349  1.00  0.00    -0.125 OA 
BRANCH  27  28
HETATM   28  C   UNL     1      -8.234   7.188  62.582  1.00  0.00    -0.024 C  
BRANCH  28  29
HETATM   29  C   UNL     1      -7.076   6.189  62.506  1.00  0.00    -0.043 C  
BRANCH  29  30
HETATM   30  N   UNL     1      -6.869   5.514  63.809  1.00  0.00    -0.044 NA 
HETATM   31  C   UNL     1      -8.059   5.442  64.673  1.00  0.00    -0.125 C  
HETATM   32  C   UNL     1      -9.115   4.433  64.217  1.00  0.00    -0.151 C  
HETATM   33  C   UNL     1      -8.511   3.059  63.942  1.00  0.00    -0.089 C  
HETATM   34  C   UNL     1      -7.256   3.157  63.081  1.00  0.00    -0.049 C  
HETATM   35  C   UNL     1      -6.276   4.181  63.652  1.00  0.00    -0.018 C  
ENDBRANCH  29  30
ENDBRANCH  28  29
ENDBRANCH  27  28
ENDBRANCH  22  27
ENDBRANCH  20  21
ENDBRANCH  10  20
ENDBRANCH   6   9
ENDBRANCH   2   3
TORSDOF 8
ENDMDL
MODEL      125
REMARK 921   NORMALIZED FREE ENERGY PREDICTED BY IDOCK:   -4.02 KCAL/MOL
REMARK 922        TOTAL FREE ENERGY PREDICTED BY IDOCK:   -7.66 KCAL/MOL
REMARK 923 INTER-LIGAND FREE ENERGY PREDICTED BY IDOCK:   -7.76 KCAL/MOL
REMARK 924 INTRA-LIGAND FREE ENERGY PREDICTED BY IDOCK:    0.10 KCAL/MOL
REMARK 927      BINDING AFFINITY PREDICTED BY RF-SCORE:    0.00 PKD
ROOT
HETATM    1  C   UNL     1      -9.368  10.367  63.242  1.00  0.00    -0.304 C  
HETATM    2  O   UNL     1      -9.646  11.747  63.448  1.00  0.00    -0.315 OA 
ENDROOT
BRANCH   2   3
HETATM    3  C   UNL     1     -10.180  12.092  64.656  1.00  0.00    -0.284 A  
HETATM    4  C   UNL     1     -11.536  12.194  64.961  1.00  0.00    -0.377 A  
HETATM    5  C   UNL     1     -11.952  12.595  66.240  1.00  0.00    -0.439 A  
HETATM    6  C   UNL     1     -11.026  12.893  67.250  1.00  0.00    -0.289 A  
HETATM    7  C   UNL     1      -9.250  12.368  65.653  1.00  0.00     0.141 A  
HETATM    8  C   UNL     1      -9.662  12.757  66.937  1.00  0.00    -0.234 A  
BRANCH   6   9
HETATM    9  C   UNL     1     -11.480  13.387  68.575  1.00  0.00    -0.310 A  
HETATM   10  C   UNL     1     -12.137  12.739  69.618  1.00  0.00    -0.222 A  
HETATM   11  C   UNL     1     -12.509  13.629  70.708  1.00  0.00    -0.432 A  
HETATM   12  C   UNL     1     -13.417  14.466  72.835  1.00  0.00    -0.516 A  
HETATM   13  C   UNL     1     -12.011  14.915  70.484  1.00  0.00    -0.309 A  
HETATM   14  H   UNL     1     -13.485  16.492  74.352  1.00  0.00     0.000 HD 
HETATM   15  C   UNL     1     -13.228  13.426  71.919  1.00  0.00    -0.522 A  
HETATM   16  S   UNL     1     -11.253  15.045  68.957  1.00  0.00    -0.286 SA 
HETATM   17  C   UNL     1     -12.142  15.954  71.429  1.00  0.00    -0.508 A  
HETATM   18  C   UNL     1     -12.849  15.702  72.598  1.00  0.00    -0.445 A  
HETATM   19  O   UNL     1     -13.001  16.665  73.552  1.00  0.00    -0.324 OA 
BRANCH  10  20
HETATM   20  O   UNL     1     -12.283  11.384  69.577  1.00  0.00    -0.296 OA 
BRANCH  20  21
HETATM   21  C   UNL     1     -11.352  10.518  69.058  1.00  0.00    -0.257 A  
HETATM   22  C   UNL     1      -9.307   8.860  68.065  1.00  0.00    -0.142 A  
HETATM   23  C   UNL     1      -9.144   9.524  69.284  1.00  0.00    -0.161 A  
HETATM   24  C   UNL     1     -11.508   9.870  67.838  1.00  0.00     0.290 A  
HETATM   25  C   UNL     1     -10.165  10.348  69.779  1.00  0.00    -0.228 A  
HETATM   26  C   UNL     1     -10.514   9.019  67.368  1.00  0.00    -0.338 A  
BRANCH  22  27
HETATM   27  O   UNL     1      -8.245   8.104  67.614  1.00  0.00    -0.124 OA 
BRANCH  27  28
HETATM   28  C   UNL     1      -8.234   6.779  68.164  1.00  0.00    -0.114 C  
BRANCH  28  29
HETATM   29  C   UNL     1      -7.900   6.732  69.658  1.00  0.00    -0.115 C  
BRANCH  29  30
HETATM   30  N   UNL     1      -6.459   6.986  69.889  1.00  0.00    -0.038 NA 
HETATM   31  C   UNL     1      -6.037   8.387  69.733  1.00  0.00    -0.028 C  
HETATM   32  C   UNL     1      -6.474   9.313  70.871  1.00  0.00    -0.080 C  
HETATM   33  C   UNL     1      -6.112   8.745  72.240  1.00  0.00    -0.072 C  
HETATM   34  C   UNL     1      -6.518   7.280  72.368  1.00  0.00    -0.051 C  
HETATM   35  C   UNL     1      -6.007   6.462  71.183  1.00  0.00    -0.028 C  
ENDBRANCH  29  30
ENDBRANCH  28  29
ENDBRANCH  27  28
ENDBRANCH  22  27
ENDBRANCH  20  21
ENDBRANCH  10  20
ENDBRANCH   6   9
ENDBRANCH   2   3
TORSDOF 8
ENDMDL
MODEL      126
REMARK 921   NORMALIZED FREE ENERGY PREDICTED BY IDOCK:   -4.02 KCAL/MOL
REMARK 922        TOTAL FREE ENERGY PREDICTED BY IDOCK:   -7.65 KCAL/MOL
REMARK 923 INTER-LIGAND FREE ENERGY PREDICTED BY IDOCK:   -6.12 KCAL/MOL
REMARK 924 INTRA-LIGAND FREE ENERGY PREDICTED BY IDOCK:   -1.53 KCAL/MOL
REMARK 927      BINDING AFFINITY PREDICTED BY RF-SCORE:    0.00 PKD
ROOT
HETATM    1  C   UNL     1      -6.082  15.458  69.304  1.00  0.00    -0.113 C  
HETATM    2  O   UNL     1      -5.146  14.390  69.221  1.00  0.00    -0.080 OA 
ENDROOT
BRANCH   2   3
HETATM    3  C   UNL     1      -5.618  13.193  68.765  1.00  0.00    -0.073 A  
HETATM    4  C   UNL     1      -6.479  12.334  69.444  1.00  0.00    -0.105 A  
HETATM    5  C   UNL     1      -6.863  11.109  68.873  1.00  0.00    -0.086 A  
HETATM    6  C   UNL     1      -6.406  10.719  67.607  1.00  0.00    -0.056 A  
HETATM    7  C   UNL     1      -5.170  12.827  67.500  1.00  0.00    -0.072 A  
HETATM    8  C   UNL     1      -5.561  11.610  66.921  1.00  0.00    -0.136 A  
BRANCH   6   9
HETATM    9  C   UNL     1      -6.760   9.389  67.048  1.00  0.00    -0.076 A  
HETATM   10  C   UNL     1      -7.466   9.037  65.901  1.00  0.00    -0.094 A  
HETATM   11  C   UNL     1      -7.697   7.605  65.781  1.00  0.00    -0.100 A  
HETATM   12  C   UNL     1      -8.438   5.421  64.928  1.00  0.00    -0.148 A  
HETATM   13  C   UNL     1      -7.047   6.916  66.808  1.00  0.00    -0.075 A  
HETATM   14  H   UNL     1      -8.213   2.924  65.283  1.00  0.00     0.000 HD 
HETATM   15  C   UNL     1      -8.404   6.816  64.832  1.00  0.00    -0.025 A  
HETATM   16  S   UNL     1      -6.318   7.983  67.928  1.00  0.00    -0.053 SA 
HETATM   17  C   UNL     1      -7.023   5.506  66.879  1.00  0.00    -0.065 A  
HETATM   18  C   UNL     1      -7.727   4.783  65.924  1.00  0.00    -0.091 A  
HETATM   19  O   UNL     1      -7.732   3.419  65.936  1.00  0.00    -0.080 OA 
BRANCH  10  20
HETATM   20  O   UNL     1      -7.781   9.999  64.987  1.00  0.00    -0.128 OA 
BRANCH  20  21
HETATM   21  C   UNL     1      -8.975  10.678  64.956  1.00  0.00    -0.199 A  
HETATM   22  C   UNL     1     -11.491  11.937  65.013  1.00  0.00    -0.244 A  
HETATM   23  C   UNL     1     -10.985  11.323  66.162  1.00  0.00    -0.252 A  
HETATM   24  C   UNL     1      -9.484  11.274  63.808  1.00  0.00    -0.222 A  
HETATM   25  C   UNL     1      -9.730  10.698  66.133  1.00  0.00    -0.253 A  
HETATM   26  C   UNL     1     -10.709  11.931  63.848  1.00  0.00    -0.450 A  
BRANCH  22  27
HETATM   27  O   UNL     1     -12.751  12.490  65.098  1.00  0.00    -0.659 OA 
BRANCH  27  28
HETATM   28  C   UNL     1     -12.722  13.919  65.223  1.00  0.00    -0.449 C  
BRANCH  28  29
HETATM   29  C   UNL     1     -11.524  14.446  66.017  1.00  0.00    -0.349 C  
BRANCH  29  30
HETATM   30  N   UNL     1     -11.924  14.839  67.388  1.00  0.00    -0.300 NA 
HETATM   31  C   UNL     1     -11.845  13.766  68.394  1.00  0.00    -0.376 C  
HETATM   32  C   UNL     1     -10.422  13.398  68.819  1.00  0.00    -0.203 C  
HETATM   33  C   UNL     1      -9.606  14.626  69.212  1.00  0.00    -0.018 C  
HETATM   34  C   UNL     1      -9.734  15.741  68.180  1.00  0.00    -0.211 C  
HETATM   35  C   UNL     1     -11.200  16.026  67.856  1.00  0.00    -0.276 C  
ENDBRANCH  29  30
ENDBRANCH  28  29
ENDBRANCH  27  28
ENDBRANCH  22  27
ENDBRANCH  20  21
ENDBRANCH  10  20
ENDBRANCH   6   9
ENDBRANCH   2   3
TORSDOF 8
ENDMDL
MODEL      127
REMARK 921   NORMALIZED FREE ENERGY PREDICTED BY IDOCK:   -4.01 KCAL/MOL
REMARK 922        TOTAL FREE ENERGY PREDICTED BY IDOCK:   -7.64 KCAL/MOL
REMARK 923 INTER-LIGAND FREE ENERGY PREDICTED BY IDOCK:   -6.79 KCAL/MOL
REMARK 924 INTRA-LIGAND FREE ENERGY PREDICTED BY IDOCK:   -0.86 KCAL/MOL
REMARK 927      BINDING AFFINITY PREDICTED BY RF-SCORE:    0.00 PKD
ROOT
HETATM    1  C   UNL     1     -10.708   5.921  73.386  1.00  0.00    -0.267 C  
HETATM    2  O   UNL     1     -10.490   7.301  73.655  1.00  0.00    -0.365 OA 
ENDROOT
BRANCH   2   3
HETATM    3  C   UNL     1     -10.406   8.132  72.574  1.00  0.00    -0.330 A  
HETATM    4  C   UNL     1      -9.257   8.418  71.842  1.00  0.00    -0.306 A  
HETATM    5  C   UNL     1      -9.301   9.322  70.768  1.00  0.00    -0.322 A  
HETATM    6  C   UNL     1     -10.496   9.952  70.392  1.00  0.00    -0.347 A  
HETATM    7  C   UNL     1     -11.603   8.736  72.203  1.00  0.00    -0.434 A  
HETATM    8  C   UNL     1     -11.654   9.631  71.123  1.00  0.00    -0.456 A  
BRANCH   6   9
HETATM    9  C   UNL     1     -10.513  10.961  69.303  1.00  0.00    -0.202 A  
HETATM   10  C   UNL     1      -9.489  11.465  68.506  1.00  0.00    -0.183 A  
HETATM   11  C   UNL     1      -9.917  12.543  67.627  1.00  0.00    -0.201 A  
HETATM   12  C   UNL     1      -9.893  14.331  65.937  1.00  0.00    -0.322 A  
HETATM   13  C   UNL     1     -11.298  12.735  67.723  1.00  0.00    -0.294 A  
HETATM   14  H   UNL     1     -11.389  15.871  64.596  1.00  0.00     0.000 HD 
HETATM   15  C   UNL     1      -9.221  13.374  66.706  1.00  0.00    -0.242 A  
HETATM   16  S   UNL     1     -11.995  11.742  68.927  1.00  0.00    -0.195 SA 
HETATM   17  C   UNL     1     -11.995  13.653  66.907  1.00  0.00    -0.454 A  
HETATM   18  C   UNL     1     -11.267  14.437  66.021  1.00  0.00    -0.333 A  
HETATM   19  O   UNL     1     -11.887  15.334  65.202  1.00  0.00    -0.188 OA 
BRANCH  10  20
HETATM   20  O   UNL     1      -8.259  10.876  68.544  1.00  0.00    -0.124 OA 
BRANCH  20  21
HETATM   21  C   UNL     1      -7.835   9.910  67.665  1.00  0.00    -0.098 A  
HETATM   22  C   UNL     1      -6.792   7.935  65.953  1.00  0.00    -0.057 A  
HETATM   23  C   UNL     1      -6.408   7.975  67.296  1.00  0.00    -0.056 A  
HETATM   24  C   UNL     1      -8.203   9.881  66.326  1.00  0.00    -0.114 A  
HETATM   25  C   UNL     1      -6.931   8.958  68.149  1.00  0.00    -0.077 A  
HETATM   26  C   UNL     1      -7.720   8.880  65.490  1.00  0.00    -0.088 A  
BRANCH  22  27
HETATM   27  O   UNL     1      -6.204   6.973  65.159  1.00  0.00    -0.036 OA 
BRANCH  27  28
HETATM   28  C   UNL     1      -6.505   5.638  65.592  1.00  0.00    -0.040 C  
BRANCH  28  29
HETATM   29  C   UNL     1      -7.748   5.038  64.927  1.00  0.00    -0.084 C  
BRANCH  29  30
HETATM   30  N   UNL     1      -7.404   3.825  64.150  1.00  0.00    -0.058 NA 
HETATM   31  C   UNL     1      -7.638   2.548  64.846  1.00  0.00    -0.072 C  
HETATM   32  C   UNL     1      -9.112   2.156  64.974  1.00  0.00    -0.127 C  
HETATM   33  C   UNL     1      -9.842   2.234  63.637  1.00  0.00    -0.131 C  
HETATM   34  C   UNL     1      -9.553   3.544  62.911  1.00  0.00    -0.105 C  
HETATM   35  C   UNL     1      -8.051   3.810  62.834  1.00  0.00    -0.076 C  
ENDBRANCH  29  30
ENDBRANCH  28  29
ENDBRANCH  27  28
ENDBRANCH  22  27
ENDBRANCH  20  21
ENDBRANCH  10  20
ENDBRANCH   6   9
ENDBRANCH   2   3
TORSDOF 8
ENDMDL
MODEL      128
REMARK 921   NORMALIZED FREE ENERGY PREDICTED BY IDOCK:   -4.00 KCAL/MOL
REMARK 922        TOTAL FREE ENERGY PREDICTED BY IDOCK:   -7.63 KCAL/MOL
REMARK 923 INTER-LIGAND FREE ENERGY PREDICTED BY IDOCK:   -5.82 KCAL/MOL
REMARK 924 INTRA-LIGAND FREE ENERGY PREDICTED BY IDOCK:   -1.80 KCAL/MOL
REMARK 927      BINDING AFFINITY PREDICTED BY RF-SCORE:    0.00 PKD
ROOT
HETATM    1  C   UNL     1     -11.637   9.170  70.146  1.00  0.00    -0.016 C  
HETATM    2  O   UNL     1     -11.252   9.415  68.798  1.00  0.00    -0.020 OA 
ENDROOT
BRANCH   2   3
HETATM    3  C   UNL     1     -10.991  10.711  68.460  1.00  0.00    -0.248 A  
HETATM    4  C   UNL     1     -10.715  11.191  67.181  1.00  0.00    -0.305 A  
HETATM    5  C   UNL     1     -10.429  12.550  66.974  1.00  0.00    -0.246 A  
HETATM    6  C   UNL     1     -10.421  13.465  68.036  1.00  0.00    -0.243 A  
HETATM    7  C   UNL     1     -11.005  11.611  69.521  1.00  0.00    -0.159 A  
HETATM    8  C   UNL     1     -10.730  12.972  69.316  1.00  0.00     0.027 A  
BRANCH   6   9
HETATM    9  C   UNL     1     -10.044  14.884  67.814  1.00  0.00    -0.234 A  
HETATM   10  C   UNL     1      -8.801  15.480  67.619  1.00  0.00    -0.179 A  
HETATM   11  C   UNL     1      -8.861  16.933  67.558  1.00  0.00    -0.213 A  
HETATM   12  C   UNL     1      -8.197  19.293  67.357  1.00  0.00    -0.311 A  
HETATM   13  C   UNL     1     -10.186  17.372  67.602  1.00  0.00    -0.342 A  
HETATM   14  H   UNL     1      -9.112  21.641  67.108  1.00  0.00     0.000 HD 
HETATM   15  C   UNL     1      -7.861  17.937  67.434  1.00  0.00    -0.217 A  
HETATM   16  S   UNL     1     -11.277  16.078  67.845  1.00  0.00    -0.218 SA 
HETATM   17  C   UNL     1     -10.540  18.732  67.462  1.00  0.00    -0.497 A  
HETATM   18  C   UNL     1      -9.525  19.672  67.339  1.00  0.00    -0.329 A  
HETATM   19  O   UNL     1      -9.807  20.998  67.191  1.00  0.00    -0.342 OA 
BRANCH  10  20
HETATM   20  O   UNL     1      -7.705  14.694  67.417  1.00  0.00    -0.182 OA 
BRANCH  20  21
HETATM   21  C   UNL     1      -7.097  13.944  68.393  1.00  0.00    -0.104 A  
HETATM   22  C   UNL     1      -5.980  12.270  70.359  1.00  0.00    -0.098 A  
HETATM   23  C   UNL     1      -6.508  11.722  69.187  1.00  0.00    -0.097 A  
HETATM   24  C   UNL     1      -6.587  14.487  69.566  1.00  0.00    -0.143 A  
HETATM   25  C   UNL     1      -7.062  12.558  68.206  1.00  0.00    -0.104 A  
HETATM   26  C   UNL     1      -5.998  13.663  70.519  1.00  0.00    -0.145 A  
BRANCH  22  27
HETATM   27  O   UNL     1      -5.495  11.387  71.302  1.00  0.00    -0.310 OA 
BRANCH  27  28
HETATM   28  C   UNL     1      -5.390  10.046  70.804  1.00  0.00    -0.060 C  
BRANCH  28  29
HETATM   29  C   UNL     1      -5.504   8.972  71.889  1.00  0.00    -0.059 C  
BRANCH  29  30
HETATM   30  N   UNL     1      -6.816   8.288  71.827  1.00  0.00    -0.073 NA 
HETATM   31  C   UNL     1      -6.769   6.881  71.393  1.00  0.00    -0.060 C  
HETATM   32  C   UNL     1      -6.214   5.913  72.440  1.00  0.00    -0.045 C  
HETATM   33  C   UNL     1      -6.895   6.082  73.794  1.00  0.00    -0.080 C  
HETATM   34  C   UNL     1      -6.974   7.548  74.206  1.00  0.00    -0.113 C  
HETATM   35  C   UNL     1      -7.560   8.405  73.085  1.00  0.00    -0.060 C  
ENDBRANCH  29  30
ENDBRANCH  28  29
ENDBRANCH  27  28
ENDBRANCH  22  27
ENDBRANCH  20  21
ENDBRANCH  10  20
ENDBRANCH   6   9
ENDBRANCH   2   3
TORSDOF 8
ENDMDL
MODEL      129
REMARK 921   NORMALIZED FREE ENERGY PREDICTED BY IDOCK:   -3.99 KCAL/MOL
REMARK 922        TOTAL FREE ENERGY PREDICTED BY IDOCK:   -7.61 KCAL/MOL
REMARK 923 INTER-LIGAND FREE ENERGY PREDICTED BY IDOCK:   -6.03 KCAL/MOL
REMARK 924 INTRA-LIGAND FREE ENERGY PREDICTED BY IDOCK:   -1.59 KCAL/MOL
REMARK 927      BINDING AFFINITY PREDICTED BY RF-SCORE:    0.00 PKD
ROOT
HETATM    1  C   UNL     1      -5.137   9.290  64.272  1.00  0.00    -0.053 C  
HETATM    2  O   UNL     1      -6.545   9.132  64.139  1.00  0.00    -0.086 OA 
ENDROOT
BRANCH   2   3
HETATM    3  C   UNL     1      -7.237   8.808  65.270  1.00  0.00    -0.084 A  
HETATM    4  C   UNL     1      -6.862   9.102  66.579  1.00  0.00    -0.080 A  
HETATM    5  C   UNL     1      -7.652   8.679  67.660  1.00  0.00    -0.098 A  
HETATM    6  C   UNL     1      -8.840   7.962  67.460  1.00  0.00    -0.128 A  
HETATM    7  C   UNL     1      -8.422   8.113  65.055  1.00  0.00    -0.117 A  
HETATM    8  C   UNL     1      -9.220   7.698  66.133  1.00  0.00    -0.168 A  
BRANCH   6   9
HETATM    9  C   UNL     1      -9.626   7.457  68.615  1.00  0.00    -0.146 A  
HETATM   10  C   UNL     1     -10.798   7.927  69.200  1.00  0.00    -0.038 A  
HETATM   11  C   UNL     1     -11.176   7.200  70.403  1.00  0.00    -0.320 A  
HETATM   12  C   UNL     1     -12.399   6.481  72.413  1.00  0.00    -0.040 A  
HETATM   13  C   UNL     1     -10.312   6.123  70.617  1.00  0.00    -0.214 A  
HETATM   14  H   UNL     1     -12.519   4.661  74.168  1.00  0.00     0.000 HD 
HETATM   15  C   UNL     1     -12.235   7.363  71.339  1.00  0.00    -0.374 A  
HETATM   16  S   UNL     1      -9.035   6.097  69.481  1.00  0.00    -0.133 SA 
HETATM   17  C   UNL     1     -10.505   5.191  71.659  1.00  0.00    -0.255 A  
HETATM   18  C   UNL     1     -11.558   5.394  72.543  1.00  0.00    -0.159 A  
HETATM   19  O   UNL     1     -11.799   4.522  73.564  1.00  0.00    -0.173 OA 
BRANCH  10  20
HETATM   20  O   UNL     1     -11.509   8.911  68.578  1.00  0.00     0.493 OA 
BRANCH  20  21
HETATM   21  C   UNL     1     -11.244  10.253  68.698  1.00  0.00    -0.208 A  
HETATM   22  C   UNL     1     -10.874  13.023  69.027  1.00  0.00    -0.155 A  
HETATM   23  C   UNL     1     -11.566  12.287  69.992  1.00  0.00    -0.236 A  
HETATM   24  C   UNL     1     -10.569  10.988  67.731  1.00  0.00    -0.250 A  
HETATM   25  C   UNL     1     -11.748  10.906  69.828  1.00  0.00    -0.413 A  
HETATM   26  C   UNL     1     -10.351  12.349  67.914  1.00  0.00    -0.215 A  
BRANCH  22  27
HETATM   27  O   UNL     1     -10.774  14.384  69.227  1.00  0.00    -0.245 OA 
BRANCH  27  28
HETATM   28  C   UNL     1      -9.415  14.847  69.222  1.00  0.00    -0.114 C  
BRANCH  28  29
HETATM   29  C   UNL     1      -9.112  15.862  68.116  1.00  0.00    -0.182 C  
BRANCH  29  30
HETATM   30  N   UNL     1     -10.227  16.824  67.955  1.00  0.00    -0.288 NA 
HETATM   31  C   UNL     1     -10.216  17.958  68.893  1.00  0.00    -0.330 C  
HETATM   32  C   UNL     1      -9.146  19.013  68.601  1.00  0.00    -0.401 C  
HETATM   33  C   UNL     1      -9.170  19.463  67.143  1.00  0.00    -0.375 C  
HETATM   34  C   UNL     1      -9.225  18.276  66.188  1.00  0.00    -0.135 C  
HETATM   35  C   UNL     1     -10.343  17.308  66.575  1.00  0.00    -0.308 C  
ENDBRANCH  29  30
ENDBRANCH  28  29
ENDBRANCH  27  28
ENDBRANCH  22  27
ENDBRANCH  20  21
ENDBRANCH  10  20
ENDBRANCH   6   9
ENDBRANCH   2   3
TORSDOF 8
ENDMDL
MODEL      130
REMARK 921   NORMALIZED FREE ENERGY PREDICTED BY IDOCK:   -3.98 KCAL/MOL
REMARK 922        TOTAL FREE ENERGY PREDICTED BY IDOCK:   -7.60 KCAL/MOL
REMARK 923 INTER-LIGAND FREE ENERGY PREDICTED BY IDOCK:   -6.52 KCAL/MOL
REMARK 924 INTRA-LIGAND FREE ENERGY PREDICTED BY IDOCK:   -1.08 KCAL/MOL
REMARK 927      BINDING AFFINITY PREDICTED BY RF-SCORE:    0.00 PKD
ROOT
HETATM    1  C   UNL     1      -5.718   7.888  63.272  1.00  0.00    -0.055 C  
HETATM    2  O   UNL     1      -5.168   7.850  64.584  1.00  0.00    -0.029 OA 
ENDROOT
BRANCH   2   3
HETATM    3  C   UNL     1      -5.977   7.376  65.576  1.00  0.00    -0.038 A  
HETATM    4  C   UNL     1      -7.218   6.767  65.408  1.00  0.00    -0.077 A  
HETATM    5  C   UNL     1      -7.968   6.354  66.521  1.00  0.00    -0.109 A  
HETATM    6  C   UNL     1      -7.493   6.530  67.828  1.00  0.00    -0.097 A  
HETATM    7  C   UNL     1      -5.484   7.541  66.866  1.00  0.00    -0.027 A  
HETATM    8  C   UNL     1      -6.226   7.120  67.981  1.00  0.00    -0.035 A  
BRANCH   6   9
HETATM    9  C   UNL     1      -8.329   6.157  68.997  1.00  0.00    -0.112 A  
HETATM   10  C   UNL     1      -9.029   6.941  69.909  1.00  0.00    -0.142 A  
HETATM   11  C   UNL     1      -9.631   6.174  70.990  1.00  0.00    -0.194 A  
HETATM   12  C   UNL     1     -10.879   5.587  73.026  1.00  0.00    -0.316 A  
HETATM   13  C   UNL     1      -9.445   4.805  70.782  1.00  0.00    -0.162 A  
HETATM   14  H   UNL     1     -11.791   3.632  74.352  1.00  0.00     0.000 HD 
HETATM   15  C   UNL     1     -10.367   6.548  72.148  1.00  0.00    -0.219 A  
HETATM   16  S   UNL     1      -8.469   4.496  69.413  1.00  0.00    -0.078 SA 
HETATM   17  C   UNL     1     -10.011   3.826  71.627  1.00  0.00    -0.211 A  
HETATM   18  C   UNL     1     -10.725   4.245  72.742  1.00  0.00    -0.137 A  
HETATM   19  O   UNL     1     -11.302   3.345  73.589  1.00  0.00    -0.220 OA 
BRANCH  10  20
HETATM   20  O   UNL     1      -9.167   8.278  69.675  1.00  0.00    -0.156 OA 
BRANCH  20  21
HETATM   21  C   UNL     1      -9.255   8.842  68.427  1.00  0.00    -0.137 A  
HETATM   22  C   UNL     1      -9.366  10.161  65.943  1.00  0.00    -0.175 A  
HETATM   23  C   UNL     1      -8.325  10.429  66.836  1.00  0.00    -0.124 A  
HETATM   24  C   UNL     1     -10.300   8.587  67.546  1.00  0.00    -0.334 A  
HETATM   25  C   UNL     1      -8.269   9.769  68.072  1.00  0.00    -0.109 A  
HETATM   26  C   UNL     1     -10.332   9.208  66.302  1.00  0.00    -0.166 A  
BRANCH  22  27
HETATM   27  O   UNL     1      -9.386  10.880  64.767  1.00  0.00    -0.210 OA 
BRANCH  27  28
HETATM   28  C   UNL     1     -10.712  11.264  64.374  1.00  0.00    -0.339 C  
BRANCH  28  29
HETATM   29  C   UNL     1     -10.865  12.762  64.095  1.00  0.00    -0.406 C  
BRANCH  29  30
HETATM   30  N   UNL     1     -11.856  13.376  65.009  1.00  0.00    -0.337 NA 
HETATM   31  C   UNL     1     -11.574  13.205  66.444  1.00  0.00    -0.349 C  
HETATM   32  C   UNL     1     -10.423  14.066  66.971  1.00  0.00    -0.275 C  
HETATM   33  C   UNL     1     -10.578  15.531  66.577  1.00  0.00    -0.307 C  
HETATM   34  C   UNL     1     -10.912  15.686  65.098  1.00  0.00    -0.411 C  
HETATM   35  C   UNL     1     -12.087  14.791  64.703  1.00  0.00    -0.427 C  
ENDBRANCH  29  30
ENDBRANCH  28  29
ENDBRANCH  27  28
ENDBRANCH  22  27
ENDBRANCH  20  21
ENDBRANCH  10  20
ENDBRANCH   6   9
ENDBRANCH   2   3
TORSDOF 8
ENDMDL
MODEL      131
REMARK 921   NORMALIZED FREE ENERGY PREDICTED BY IDOCK:   -3.94 KCAL/MOL
REMARK 922        TOTAL FREE ENERGY PREDICTED BY IDOCK:   -7.54 KCAL/MOL
REMARK 923 INTER-LIGAND FREE ENERGY PREDICTED BY IDOCK:   -6.32 KCAL/MOL
REMARK 924 INTRA-LIGAND FREE ENERGY PREDICTED BY IDOCK:   -1.22 KCAL/MOL
REMARK 927      BINDING AFFINITY PREDICTED BY RF-SCORE:    0.00 PKD
ROOT
HETATM    1  C   UNL     1     -12.725  14.459  64.891  1.00  0.00    -0.178 C  
HETATM    2  O   UNL     1     -12.811  13.068  65.180  1.00  0.00    -0.656 OA 
ENDROOT
BRANCH   2   3
HETATM    3  C   UNL     1     -11.968  12.587  66.140  1.00  0.00    -0.366 A  
HETATM    4  C   UNL     1     -11.898  13.011  67.465  1.00  0.00    -0.408 A  
HETATM    5  C   UNL     1     -10.957  12.453  68.345  1.00  0.00    -0.272 A  
HETATM    6  C   UNL     1     -10.070  11.451  67.926  1.00  0.00    -0.198 A  
HETATM    7  C   UNL     1     -11.106  11.581  65.715  1.00  0.00    -0.272 A  
HETATM    8  C   UNL     1     -10.172  11.013  66.595  1.00  0.00    -0.280 A  
BRANCH   6   9
HETATM    9  C   UNL     1      -9.030  10.924  68.847  1.00  0.00    -0.140 A  
HETATM   10  C   UNL     1      -7.643  11.033  68.820  1.00  0.00    -0.127 A  
HETATM   11  C   UNL     1      -6.981  10.258  69.858  1.00  0.00    -0.142 A  
HETATM   12  C   UNL     1      -5.237   9.254  71.273  1.00  0.00    -0.042 A  
HETATM   13  C   UNL     1      -7.923   9.671  70.708  1.00  0.00     0.070 A  
HETATM   14  H   UNL     1      -4.865   7.932  73.399  1.00  0.00     0.000 HD 
HETATM   15  C   UNL     1      -5.612  10.027  70.168  1.00  0.00    -0.047 A  
HETATM   16  S   UNL     1      -9.522   9.947  70.171  1.00  0.00    -0.071 SA 
HETATM   17  C   UNL     1      -7.555   8.943  71.860  1.00  0.00     0.025 A  
HETATM   18  C   UNL     1      -6.204   8.750  72.119  1.00  0.00    -0.069 A  
HETATM   19  O   UNL     1      -5.789   8.063  73.222  1.00  0.00    -0.052 OA 
BRANCH  10  20
HETATM   20  O   UNL     1      -7.056  11.887  67.932  1.00  0.00    -0.081 OA 
BRANCH  20  21
HETATM   21  C   UNL     1      -6.884  13.232  68.147  1.00  0.00    -0.114 A  
HETATM   22  C   UNL     1      -6.511  16.010  68.398  1.00  0.00    -0.120 A  
HETATM   23  C   UNL     1      -7.192  15.489  67.294  1.00  0.00    -0.242 A  
HETATM   24  C   UNL     1      -6.194  13.750  69.237  1.00  0.00    -0.105 A  
HETATM   25  C   UNL     1      -7.379  14.104  67.172  1.00  0.00     0.136 A  
HETATM   26  C   UNL     1      -6.045  15.125  69.381  1.00  0.00    -0.112 A  
BRANCH  22  27
HETATM   27  O   UNL     1      -6.320  17.376  68.431  1.00  0.00    -0.166 OA 
BRANCH  27  28
HETATM   28  C   UNL     1      -7.554  18.107  68.468  1.00  0.00    -0.289 C  
BRANCH  28  29
HETATM   29  C   UNL     1      -7.889  18.823  67.157  1.00  0.00    -0.237 C  
BRANCH  29  30
HETATM   30  N   UNL     1      -9.354  18.975  66.992  1.00  0.00    -0.302 NA 
HETATM   31  C   UNL     1      -9.950  18.168  65.914  1.00  0.00    -0.097 C  
HETATM   32  C   UNL     1     -10.050  16.672  66.222  1.00  0.00    -0.342 C  
HETATM   33  C   UNL     1     -10.704  16.410  67.575  1.00  0.00    -0.298 C  
HETATM   34  C   UNL     1     -10.104  17.285  68.670  1.00  0.00    -0.341 C  
HETATM   35  C   UNL     1     -10.077  18.754  68.249  1.00  0.00    -0.383 C  
ENDBRANCH  29  30
ENDBRANCH  28  29
ENDBRANCH  27  28
ENDBRANCH  22  27
ENDBRANCH  20  21
ENDBRANCH  10  20
ENDBRANCH   6   9
ENDBRANCH   2   3
TORSDOF 8
ENDMDL
MODEL      132
REMARK 921   NORMALIZED FREE ENERGY PREDICTED BY IDOCK:   -3.92 KCAL/MOL
REMARK 922        TOTAL FREE ENERGY PREDICTED BY IDOCK:   -7.51 KCAL/MOL
REMARK 923 INTER-LIGAND FREE ENERGY PREDICTED BY IDOCK:   -7.03 KCAL/MOL
REMARK 924 INTRA-LIGAND FREE ENERGY PREDICTED BY IDOCK:   -0.48 KCAL/MOL
REMARK 927      BINDING AFFINITY PREDICTED BY RF-SCORE:    0.00 PKD
ROOT
HETATM    1  C   UNL     1      -9.866  18.730  69.009  1.00  0.00    -0.300 C  
HETATM    2  O   UNL     1     -10.929  18.186  68.235  1.00  0.00    -0.138 OA 
ENDROOT
BRANCH   2   3
HETATM    3  C   UNL     1     -10.750  16.923  67.747  1.00  0.00    -0.315 A  
HETATM    4  C   UNL     1     -11.122  15.737  68.375  1.00  0.00    -0.341 A  
HETATM    5  C   UNL     1     -10.848  14.496  67.776  1.00  0.00    -0.267 A  
HETATM    6  C   UNL     1     -10.206  14.411  66.533  1.00  0.00    -0.276 A  
HETATM    7  C   UNL     1     -10.129  16.855  66.505  1.00  0.00    -0.320 A  
HETATM    8  C   UNL     1      -9.863  15.617  65.898  1.00  0.00    -0.382 A  
BRANCH   6   9
HETATM    9  C   UNL     1      -9.856  13.092  65.947  1.00  0.00    -0.237 A  
HETATM   10  C   UNL     1      -9.184  12.000  66.488  1.00  0.00    -0.216 A  
HETATM   11  C   UNL     1      -8.942  10.934  65.526  1.00  0.00    -0.213 A  
HETATM   12  C   UNL     1      -8.206   8.812  64.525  1.00  0.00    -0.168 A  
HETATM   13  C   UNL     1      -9.552  11.230  64.304  1.00  0.00    -0.225 A  
HETATM   14  H   UNL     1      -8.394   7.379  62.447  1.00  0.00     0.000 HD 
HETATM   15  C   UNL     1      -8.258   9.690  65.613  1.00  0.00    -0.121 A  
HETATM   16  S   UNL     1     -10.256  12.788  64.305  1.00  0.00    -0.259 SA 
HETATM   17  C   UNL     1      -9.559  10.324  63.222  1.00  0.00    -0.305 A  
HETATM   18  C   UNL     1      -8.879   9.120  63.360  1.00  0.00    -0.063 A  
HETATM   19  O   UNL     1      -8.860   8.202  62.352  1.00  0.00    -0.018 OA 
BRANCH  10  20
HETATM   20  O   UNL     1      -8.907  11.979  67.824  1.00  0.00    -0.152 OA 
BRANCH  20  21
HETATM   21  C   UNL     1      -9.486  11.117  68.723  1.00  0.00    -0.165 A  
HETATM   22  C   UNL     1     -10.534   9.222  70.521  1.00  0.00    -0.255 A  
HETATM   23  C   UNL     1      -9.152   9.326  70.334  1.00  0.00    -0.288 A  
HETATM   24  C   UNL     1     -10.860  11.002  68.896  1.00  0.00    -0.262 A  
HETATM   25  C   UNL     1      -8.631  10.273  69.440  1.00  0.00    -0.167 A  
HETATM   26  C   UNL     1     -11.375  10.095  69.814  1.00  0.00    -0.312 A  
BRANCH  22  27
HETATM   27  O   UNL     1     -10.980   8.239  71.378  1.00  0.00    -0.235 OA 
BRANCH  27  28
HETATM   28  C   UNL     1     -10.117   7.092  71.404  1.00  0.00    -0.188 C  
BRANCH  28  29
HETATM   29  C   UNL     1      -9.737   6.635  72.815  1.00  0.00    -0.153 C  
BRANCH  29  30
HETATM   30  N   UNL     1      -8.341   6.143  72.858  1.00  0.00    -0.116 NA 
HETATM   31  C   UNL     1      -7.512   6.508  71.697  1.00  0.00    -0.089 C  
HETATM   32  C   UNL     1      -7.086   7.978  71.660  1.00  0.00    -0.072 C  
HETATM   33  C   UNL     1      -6.470   8.429  72.981  1.00  0.00    -0.109 C  
HETATM   34  C   UNL     1      -7.320   8.003  74.173  1.00  0.00    -0.207 C  
HETATM   35  C   UNL     1      -7.662   6.516  74.103  1.00  0.00    -0.097 C  
ENDBRANCH  29  30
ENDBRANCH  28  29
ENDBRANCH  27  28
ENDBRANCH  22  27
ENDBRANCH  20  21
ENDBRANCH  10  20
ENDBRANCH   6   9
ENDBRANCH   2   3
TORSDOF 8
ENDMDL
MODEL      133
REMARK 921   NORMALIZED FREE ENERGY PREDICTED BY IDOCK:   -3.92 KCAL/MOL
REMARK 922        TOTAL FREE ENERGY PREDICTED BY IDOCK:   -7.50 KCAL/MOL
REMARK 923 INTER-LIGAND FREE ENERGY PREDICTED BY IDOCK:   -5.46 KCAL/MOL
REMARK 924 INTRA-LIGAND FREE ENERGY PREDICTED BY IDOCK:   -2.05 KCAL/MOL
REMARK 927      BINDING AFFINITY PREDICTED BY RF-SCORE:    0.00 PKD
ROOT
HETATM    1  C   UNL     1      -6.771   4.896  71.342  1.00  0.00    -0.039 C  
HETATM    2  O   UNL     1      -6.216   6.184  71.581  1.00  0.00    -0.039 OA 
ENDROOT
BRANCH   2   3
HETATM    3  C   UNL     1      -6.839   7.242  70.984  1.00  0.00    -0.055 A  
HETATM    4  C   UNL     1      -7.654   8.180  71.613  1.00  0.00    -0.097 A  
HETATM    5  C   UNL     1      -8.264   9.206  70.873  1.00  0.00    -0.220 A  
HETATM    6  C   UNL     1      -8.067   9.325  69.490  1.00  0.00    -0.111 A  
HETATM    7  C   UNL     1      -6.619   7.358  69.616  1.00  0.00    -0.040 A  
HETATM    8  C   UNL     1      -7.219   8.389  68.874  1.00  0.00    -0.078 A  
BRANCH   6   9
HETATM    9  C   UNL     1      -8.778  10.369  68.709  1.00  0.00    -0.146 A  
HETATM   10  C   UNL     1     -10.041  10.373  68.124  1.00  0.00    -0.155 A  
HETATM   11  C   UNL     1     -10.310  11.567  67.336  1.00  0.00    -0.235 A  
HETATM   12  C   UNL     1     -11.438  13.215  65.899  1.00  0.00    -0.366 A  
HETATM   13  C   UNL     1      -9.258  12.479  67.452  1.00  0.00    -0.186 A  
HETATM   14  H   UNL     1     -11.258  15.571  64.990  1.00  0.00     0.000 HD 
HETATM   15  C   UNL     1     -11.414  11.968  66.533  1.00  0.00    -0.413 A  
HETATM   16  S   UNL     1      -7.960  11.839  68.363  1.00  0.00    -0.145 SA 
HETATM   17  C   UNL     1      -9.299  13.764  66.869  1.00  0.00    -0.267 A  
HETATM   18  C   UNL     1     -10.403  14.106  66.098  1.00  0.00    -0.300 A  
HETATM   19  O   UNL     1     -10.503  15.337  65.518  1.00  0.00    -0.317 OA 
BRANCH  10  20
HETATM   20  O   UNL     1     -10.910   9.359  68.401  1.00  0.00    -0.194 OA 
BRANCH  20  21
HETATM   21  C   UNL     1     -10.651   8.031  68.170  1.00  0.00    -0.116 A  
HETATM   22  C   UNL     1     -10.202   5.329  67.524  1.00  0.00    -0.178 A  
HETATM   23  C   UNL     1     -10.111   6.313  66.535  1.00  0.00    -0.168 A  
HETATM   24  C   UNL     1     -10.757   7.050  69.150  1.00  0.00    -0.240 A  
HETATM   25  C   UNL     1     -10.333   7.659  66.860  1.00  0.00    -0.388 A  
HETATM   26  C   UNL     1     -10.495   5.721  68.839  1.00  0.00    -0.326 A  
BRANCH  22  27
HETATM   27  O   UNL     1     -10.019   4.021  67.127  1.00  0.00    -0.164 OA 
BRANCH  27  28
HETATM   28  C   UNL     1      -8.701   3.532  67.416  1.00  0.00    -0.114 C  
BRANCH  28  29
HETATM   29  C   UNL     1      -7.630   4.626  67.448  1.00  0.00    -0.085 C  
BRANCH  29  30
HETATM   30  N   UNL     1      -6.563   4.357  66.455  1.00  0.00    -0.044 NA 
HETATM   31  C   UNL     1      -7.037   3.946  65.123  1.00  0.00    -0.066 C  
HETATM   32  C   UNL     1      -7.650   5.074  64.291  1.00  0.00    -0.074 C  
HETATM   33  C   UNL     1      -6.743   6.300  64.234  1.00  0.00    -0.038 C  
HETATM   34  C   UNL     1      -6.228   6.685  65.616  1.00  0.00    -0.038 C  
HETATM   35  C   UNL     1      -5.625   5.478  66.335  1.00  0.00    -0.017 C  
ENDBRANCH  29  30
ENDBRANCH  28  29
ENDBRANCH  27  28
ENDBRANCH  22  27
ENDBRANCH  20  21
ENDBRANCH  10  20
ENDBRANCH   6   9
ENDBRANCH   2   3
TORSDOF 8
ENDMDL
MODEL      134
REMARK 921   NORMALIZED FREE ENERGY PREDICTED BY IDOCK:   -3.84 KCAL/MOL
REMARK 922        TOTAL FREE ENERGY PREDICTED BY IDOCK:   -7.39 KCAL/MOL
REMARK 923 INTER-LIGAND FREE ENERGY PREDICTED BY IDOCK:   -6.75 KCAL/MOL
REMARK 924 INTRA-LIGAND FREE ENERGY PREDICTED BY IDOCK:   -0.64 KCAL/MOL
REMARK 927      BINDING AFFINITY PREDICTED BY RF-SCORE:    0.00 PKD
ROOT
HETATM    1  C   UNL     1      -8.397  16.920  68.676  1.00  0.00    -0.261 C  
HETATM    2  O   UNL     1      -7.651  16.080  67.803  1.00  0.00    -0.129 OA 
ENDROOT
BRANCH   2   3
HETATM    3  C   UNL     1      -7.884  14.738  67.894  1.00  0.00    -0.137 A  
HETATM    4  C   UNL     1      -7.103  13.726  67.341  1.00  0.00    -0.093 A  
HETATM    5  C   UNL     1      -7.475  12.379  67.481  1.00  0.00    -0.150 A  
HETATM    6  C   UNL     1      -8.629  12.010  68.186  1.00  0.00    -0.173 A  
HETATM    7  C   UNL     1      -9.023  14.386  68.612  1.00  0.00    -0.172 A  
HETATM    8  C   UNL     1      -9.392  13.040  68.763  1.00  0.00     0.127 A  
BRANCH   6   9
HETATM    9  C   UNL     1      -9.051  10.588  68.262  1.00  0.00    -0.146 A  
HETATM   10  C   UNL     1      -9.819   9.813  67.398  1.00  0.00    -0.174 A  
HETATM   11  C   UNL     1     -10.099   8.480  67.911  1.00  0.00    -0.258 A  
HETATM   12  C   UNL     1     -10.948   6.179  68.099  1.00  0.00    -0.398 A  
HETATM   13  C   UNL     1      -9.426   8.267  69.116  1.00  0.00    -0.155 A  
HETATM   14  H   UNL     1     -10.785   4.067  69.485  1.00  0.00     0.000 HD 
HETATM   15  C   UNL     1     -10.873   7.396  67.412  1.00  0.00    -0.299 A  
HETATM   16  S   UNL     1      -8.613   9.673  69.648  1.00  0.00    -0.204 SA 
HETATM   17  C   UNL     1      -9.443   7.023  69.784  1.00  0.00    -0.145 A  
HETATM   18  C   UNL     1     -10.212   5.995  69.253  1.00  0.00    -0.207 A  
HETATM   19  O   UNL     1     -10.259   4.770  69.849  1.00  0.00    -0.252 OA 
BRANCH  10  20
HETATM   20  O   UNL     1     -10.145  10.306  66.169  1.00  0.00    -0.230 OA 
BRANCH  20  21
HETATM   21  C   UNL     1     -10.577  11.588  65.936  1.00  0.00    -0.268 A  
HETATM   22  C   UNL     1     -11.278  14.266  65.432  1.00  0.00    -0.329 A  
HETATM   23  C   UNL     1     -10.222  13.673  64.734  1.00  0.00    -0.363 A  
HETATM   24  C   UNL     1     -11.616  12.184  66.641  1.00  0.00    -0.416 A  
HETATM   25  C   UNL     1      -9.876  12.337  64.985  1.00  0.00    -0.158 A  
HETATM   26  C   UNL     1     -11.989  13.494  66.362  1.00  0.00    -0.459 A  
BRANCH  22  27
HETATM   27  O   UNL     1     -11.535  15.596  65.171  1.00  0.00    -0.224 OA 
BRANCH  27  28
HETATM   28  C   UNL     1     -11.165  16.456  66.258  1.00  0.00     0.349 C  
BRANCH  28  29
HETATM   29  C   UNL     1     -10.033  17.431  65.919  1.00  0.00    -0.149 C  
BRANCH  29  30
HETATM   30  N   UNL     1     -10.519  18.830  65.916  1.00  0.00    -0.578 NA 
HETATM   31  C   UNL     1     -11.168  19.271  67.162  1.00  0.00     0.064 C  
HETATM   32  C   UNL     1     -10.206  19.513  68.328  1.00  0.00    -0.552 C  
HETATM   33  C   UNL     1      -9.040  20.412  67.929  1.00  0.00    -0.241 C  
HETATM   34  C   UNL     1      -8.408  19.967  66.614  1.00  0.00    -0.363 C  
HETATM   35  C   UNL     1      -9.468  19.778  65.530  1.00  0.00     0.388 C  
ENDBRANCH  29  30
ENDBRANCH  28  29
ENDBRANCH  27  28
ENDBRANCH  22  27
ENDBRANCH  20  21
ENDBRANCH  10  20
ENDBRANCH   6   9
ENDBRANCH   2   3
TORSDOF 8
ENDMDL
MODEL      135
REMARK 921   NORMALIZED FREE ENERGY PREDICTED BY IDOCK:   -3.83 KCAL/MOL
REMARK 922        TOTAL FREE ENERGY PREDICTED BY IDOCK:   -7.37 KCAL/MOL
REMARK 923 INTER-LIGAND FREE ENERGY PREDICTED BY IDOCK:   -5.52 KCAL/MOL
REMARK 924 INTRA-LIGAND FREE ENERGY PREDICTED BY IDOCK:   -1.85 KCAL/MOL
REMARK 927      BINDING AFFINITY PREDICTED BY RF-SCORE:    0.00 PKD
ROOT
HETATM    1  C   UNL     1      -8.948   4.432  65.316  1.00  0.00    -0.140 C  
HETATM    2  O   UNL     1      -9.789   5.150  66.211  1.00  0.00    -0.162 OA 
ENDROOT
BRANCH   2   3
HETATM    3  C   UNL     1      -9.698   6.512  66.180  1.00  0.00     0.073 A  
HETATM    4  C   UNL     1      -8.857   7.264  65.362  1.00  0.00     0.078 A  
HETATM    5  C   UNL     1      -8.837   8.665  65.455  1.00  0.00    -0.220 A  
HETATM    6  C   UNL     1      -9.663   9.349  66.358  1.00  0.00    -0.315 A  
HETATM    7  C   UNL     1     -10.536   7.178  67.068  1.00  0.00    -0.413 A  
HETATM    8  C   UNL     1     -10.527   8.579  67.156  1.00  0.00    -0.370 A  
BRANCH   6   9
HETATM    9  C   UNL     1      -9.577  10.826  66.498  1.00  0.00    -0.183 A  
HETATM   10  C   UNL     1      -8.564  11.641  66.995  1.00  0.00    -0.169 A  
HETATM   11  C   UNL     1      -8.935  13.046  67.066  1.00  0.00    -0.225 A  
HETATM   12  C   UNL     1      -8.838  15.472  67.461  1.00  0.00    -0.191 A  
HETATM   13  C   UNL     1     -10.198  13.249  66.505  1.00  0.00    -0.283 A  
HETATM   14  H   UNL     1     -10.071  17.644  67.046  1.00  0.00     0.000 HD 
HETATM   15  C   UNL     1      -8.260  14.201  67.550  1.00  0.00    -0.196 A  
HETATM   16  S   UNL     1     -10.936  11.775  66.050  1.00  0.00    -0.294 SA 
HETATM   17  C   UNL     1     -10.764  14.534  66.354  1.00  0.00    -0.309 A  
HETATM   18  C   UNL     1     -10.061  15.629  66.840  1.00  0.00    -0.263 A  
HETATM   19  O   UNL     1     -10.553  16.895  66.713  1.00  0.00    -0.290 OA 
BRANCH  10  20
HETATM   20  O   UNL     1      -7.343  11.098  67.270  1.00  0.00    -0.104 OA 
BRANCH  20  21
HETATM   21  C   UNL     1      -7.079  10.284  68.344  1.00  0.00    -0.078 A  
HETATM   22  C   UNL     1      -6.533   8.468  70.423  1.00  0.00    -0.036 A  
HETATM   23  C   UNL     1      -5.960   8.286  69.161  1.00  0.00    -0.038 A  
HETATM   24  C   UNL     1      -7.663  10.456  69.594  1.00  0.00    -0.152 A  
HETATM   25  C   UNL     1      -6.230   9.194  68.127  1.00  0.00    -0.054 A  
HETATM   26  C   UNL     1      -7.360   9.581  70.632  1.00  0.00    -0.133 A  
BRANCH  22  27
HETATM   27  O   UNL     1      -6.263   7.512  71.379  1.00  0.00    -0.036 OA 
BRANCH  27  28
HETATM   28  C   UNL     1      -6.431   6.174  70.889  1.00  0.00    -0.045 C  
BRANCH  28  29
HETATM   29  C   UNL     1      -6.725   5.146  71.986  1.00  0.00    -0.052 C  
BRANCH  29  30
HETATM   30  N   UNL     1      -7.991   5.463  72.688  1.00  0.00    -0.102 NA 
HETATM   31  C   UNL     1      -9.141   5.741  71.811  1.00  0.00    -0.142 C  
HETATM   32  C   UNL     1      -9.728   4.507  71.122  1.00  0.00    -0.256 C  
HETATM   33  C   UNL     1     -10.009   3.380  72.112  1.00  0.00    -0.230 C  
HETATM   34  C   UNL     1      -8.824   3.135  73.040  1.00  0.00    -0.091 C  
HETATM   35  C   UNL     1      -8.345   4.439  73.677  1.00  0.00    -0.097 C  
ENDBRANCH  29  30
ENDBRANCH  28  29
ENDBRANCH  27  28
ENDBRANCH  22  27
ENDBRANCH  20  21
ENDBRANCH  10  20
ENDBRANCH   6   9
ENDBRANCH   2   3
TORSDOF 8
ENDMDL
MODEL      136
REMARK 921   NORMALIZED FREE ENERGY PREDICTED BY IDOCK:   -3.82 KCAL/MOL
REMARK 922        TOTAL FREE ENERGY PREDICTED BY IDOCK:   -7.36 KCAL/MOL
REMARK 923 INTER-LIGAND FREE ENERGY PREDICTED BY IDOCK:   -7.13 KCAL/MOL
REMARK 924 INTRA-LIGAND FREE ENERGY PREDICTED BY IDOCK:   -0.22 KCAL/MOL
REMARK 927      BINDING AFFINITY PREDICTED BY RF-SCORE:    0.00 PKD
ROOT
HETATM    1  C   UNL     1     -11.283   4.866  73.375  1.00  0.00    -0.338 C  
HETATM    2  O   UNL     1     -10.651   6.115  73.121  1.00  0.00    -0.221 OA 
ENDROOT
BRANCH   2   3
HETATM    3  C   UNL     1     -10.330   6.389  71.823  1.00  0.00    -0.203 A  
HETATM    4  C   UNL     1     -10.745   5.672  70.702  1.00  0.00    -0.333 A  
HETATM    5  C   UNL     1     -10.313   6.042  69.418  1.00  0.00    -0.298 A  
HETATM    6  C   UNL     1      -9.467   7.142  69.221  1.00  0.00    -0.152 A  
HETATM    7  C   UNL     1      -9.505   7.494  71.640  1.00  0.00    -0.170 A  
HETATM    8  C   UNL     1      -9.081   7.874  70.358  1.00  0.00    -0.154 A  
BRANCH   6   9
HETATM    9  C   UNL     1      -8.959   7.477  67.866  1.00  0.00    -0.131 A  
HETATM   10  C   UNL     1      -9.272   8.523  67.003  1.00  0.00    -0.152 A  
HETATM   11  C   UNL     1      -8.626   8.414  65.703  1.00  0.00    -0.197 A  
HETATM   12  C   UNL     1      -7.925   8.892  63.394  1.00  0.00    -0.157 A  
HETATM   13  C   UNL     1      -7.752   7.325  65.680  1.00  0.00    -0.105 A  
HETATM   14  H   UNL     1      -6.317   8.173  61.575  1.00  0.00     0.000 HD 
HETATM   15  C   UNL     1      -8.698   9.200  64.519  1.00  0.00    -0.192 A  
HETATM   16  S   UNL     1      -7.831   6.415  67.125  1.00  0.00    -0.109 SA 
HETATM   17  C   UNL     1      -6.921   7.043  64.574  1.00  0.00    -0.051 A  
HETATM   18  C   UNL     1      -7.027   7.844  63.444  1.00  0.00    -0.076 A  
HETATM   19  O   UNL     1      -6.244   7.625  62.348  1.00  0.00    -0.066 OA 
BRANCH  10  20
HETATM   20  O   UNL     1     -10.038   9.557  67.456  1.00  0.00    -0.178 OA 
BRANCH  20  21
HETATM   21  C   UNL     1     -10.044  10.816  66.908  1.00  0.00    -0.212 A  
HETATM   22  C   UNL     1     -10.148  13.323  65.633  1.00  0.00    -0.272 A  
HETATM   23  C   UNL     1     -11.207  12.420  65.497  1.00  0.00    -0.364 A  
HETATM   24  C   UNL     1      -8.984  11.707  67.030  1.00  0.00    -0.182 A  
HETATM   25  C   UNL     1     -11.155  11.172  66.135  1.00  0.00    -0.152 A  
HETATM   26  C   UNL     1      -9.054  12.961  66.434  1.00  0.00    -0.083 A  
BRANCH  22  27
HETATM   27  O   UNL     1     -10.243  14.511  64.941  1.00  0.00    -0.405 OA 
BRANCH  27  28
HETATM   28  C   UNL     1     -10.862  15.553  65.709  1.00  0.00    -0.331 C  
BRANCH  28  29
HETATM   29  C   UNL     1     -11.441  15.076  67.044  1.00  0.00    -0.284 C  
BRANCH  29  30
HETATM   30  N   UNL     1     -11.365  16.143  68.070  1.00  0.00    -0.289 NA 
HETATM   31  C   UNL     1     -11.084  15.678  69.438  1.00  0.00    -0.303 C  
HETATM   32  C   UNL     1      -9.640  15.228  69.671  1.00  0.00    -0.188 C  
HETATM   33  C   UNL     1      -8.632  16.268  69.191  1.00  0.00    -0.212 C  
HETATM   34  C   UNL     1      -8.964  16.770  67.790  1.00  0.00    -0.216 C  
HETATM   35  C   UNL     1     -10.425  17.205  67.693  1.00  0.00    -0.355 C  
ENDBRANCH  29  30
ENDBRANCH  28  29
ENDBRANCH  27  28
ENDBRANCH  22  27
ENDBRANCH  20  21
ENDBRANCH  10  20
ENDBRANCH   6   9
ENDBRANCH   2   3
TORSDOF 8
ENDMDL
MODEL      137
REMARK 921   NORMALIZED FREE ENERGY PREDICTED BY IDOCK:   -3.80 KCAL/MOL
REMARK 922        TOTAL FREE ENERGY PREDICTED BY IDOCK:   -7.32 KCAL/MOL
REMARK 923 INTER-LIGAND FREE ENERGY PREDICTED BY IDOCK:   -6.07 KCAL/MOL
REMARK 924 INTRA-LIGAND FREE ENERGY PREDICTED BY IDOCK:   -1.26 KCAL/MOL
REMARK 927      BINDING AFFINITY PREDICTED BY RF-SCORE:    0.00 PKD
ROOT
HETATM    1  C   UNL     1      -6.006  12.801  67.546  1.00  0.00    -0.143 C  
HETATM    2  O   UNL     1      -7.141  12.031  67.168  1.00  0.00    -0.137 OA 
ENDROOT
BRANCH   2   3
HETATM    3  C   UNL     1      -7.565  11.084  68.057  1.00  0.00    -0.092 A  
HETATM    4  C   UNL     1      -7.470  11.155  69.445  1.00  0.00    -0.029 A  
HETATM    5  C   UNL     1      -7.916  10.091  70.246  1.00  0.00    -0.039 A  
HETATM    6  C   UNL     1      -8.477   8.937  69.681  1.00  0.00    -0.129 A  
HETATM    7  C   UNL     1      -8.135   9.953  67.483  1.00  0.00    -0.110 A  
HETATM    8  C   UNL     1      -8.592   8.892  68.281  1.00  0.00    -0.134 A  
BRANCH   6   9
HETATM    9  C   UNL     1      -8.875   7.789  70.536  1.00  0.00    -0.145 A  
HETATM   10  C   UNL     1     -10.130   7.332  70.929  1.00  0.00    -0.188 A  
HETATM   11  C   UNL     1     -10.073   6.232  71.880  1.00  0.00    -0.205 A  
HETATM   12  C   UNL     1     -10.748   4.442  73.426  1.00  0.00    -0.315 A  
HETATM   13  C   UNL     1      -8.751   5.828  72.084  1.00  0.00    -0.133 A  
HETATM   14  H   UNL     1      -9.865   2.490  74.775  1.00  0.00     0.000 HD 
HETATM   15  C   UNL     1     -11.077   5.507  72.581  1.00  0.00    -0.334 A  
HETATM   16  S   UNL     1      -7.644   6.837  71.261  1.00  0.00    -0.093 SA 
HETATM   17  C   UNL     1      -8.414   4.716  72.885  1.00  0.00    -0.110 A  
HETATM   18  C   UNL     1      -9.433   4.040  73.544  1.00  0.00    -0.103 A  
HETATM   19  O   UNL     1      -9.168   2.952  74.324  1.00  0.00    -0.081 OA 
BRANCH  10  20
HETATM   20  O   UNL     1     -11.246   7.860  70.348  1.00  0.00    -0.269 OA 
BRANCH  20  21
HETATM   21  C   UNL     1     -11.772   9.090  70.656  1.00  0.00    -0.198 A  
HETATM   22  C   UNL     1     -13.013  11.521  71.342  1.00  0.00    -0.348 A  
HETATM   23  C   UNL     1     -13.257  10.370  72.096  1.00  0.00    -0.418 A  
HETATM   24  C   UNL     1     -11.542  10.231  69.897  1.00  0.00    -0.326 A  
HETATM   25  C   UNL     1     -12.636   9.160  71.755  1.00  0.00    -0.446 A  
HETATM   26  C   UNL     1     -12.123  11.441  70.260  1.00  0.00    -0.459 A  
BRANCH  22  27
HETATM   27  O   UNL     1     -13.693  12.665  71.703  1.00  0.00    -0.083 OA 
BRANCH  27  28
HETATM   28  C   UNL     1     -13.087  13.343  72.813  1.00  0.00    -0.072 C  
BRANCH  28  29
HETATM   29  C   UNL     1     -11.924  14.258  72.419  1.00  0.00     0.273 C  
BRANCH  29  30
HETATM   30  N   UNL     1     -12.419  15.541  71.867  1.00  0.00    -0.364 NA 
HETATM   31  C   UNL     1     -11.374  16.522  71.529  1.00  0.00     0.071 C  
HETATM   32  C   UNL     1     -10.572  16.187  70.269  1.00  0.00    -0.151 C  
HETATM   33  C   UNL     1     -11.477  15.868  69.083  1.00  0.00    -0.377 C  
HETATM   34  C   UNL     1     -12.578  14.884  69.463  1.00  0.00    -0.028 C  
HETATM   35  C   UNL     1     -13.314  15.340  70.722  1.00  0.00    -0.353 C  
ENDBRANCH  29  30
ENDBRANCH  28  29
ENDBRANCH  27  28
ENDBRANCH  22  27
ENDBRANCH  20  21
ENDBRANCH  10  20
ENDBRANCH   6   9
ENDBRANCH   2   3
TORSDOF 8
ENDMDL
MODEL      138
REMARK 921   NORMALIZED FREE ENERGY PREDICTED BY IDOCK:   -3.79 KCAL/MOL
REMARK 922        TOTAL FREE ENERGY PREDICTED BY IDOCK:   -7.32 KCAL/MOL
REMARK 923 INTER-LIGAND FREE ENERGY PREDICTED BY IDOCK:   -7.24 KCAL/MOL
REMARK 924 INTRA-LIGAND FREE ENERGY PREDICTED BY IDOCK:   -0.07 KCAL/MOL
REMARK 927      BINDING AFFINITY PREDICTED BY RF-SCORE:    0.00 PKD
ROOT
HETATM    1  C   UNL     1      -8.371  10.476  62.441  1.00  0.00    -0.206 C  
HETATM    2  O   UNL     1      -7.257  10.317  63.313  1.00  0.00    -0.139 OA 
ENDROOT
BRANCH   2   3
HETATM    3  C   UNL     1      -7.534   9.997  64.611  1.00  0.00    -0.143 A  
HETATM    4  C   UNL     1      -6.903  10.514  65.740  1.00  0.00    -0.127 A  
HETATM    5  C   UNL     1      -7.262  10.072  67.024  1.00  0.00    -0.090 A  
HETATM    6  C   UNL     1      -8.267   9.112  67.211  1.00  0.00    -0.114 A  
HETATM    7  C   UNL     1      -8.545   9.057  64.782  1.00  0.00    -0.201 A  
HETATM    8  C   UNL     1      -8.915   8.621  66.064  1.00  0.00    -0.227 A  
BRANCH   6   9
HETATM    9  C   UNL     1      -8.584   8.600  68.569  1.00  0.00    -0.135 A  
HETATM   10  C   UNL     1      -9.747   8.682  69.330  1.00  0.00    -0.173 A  
HETATM   11  C   UNL     1      -9.598   8.145  70.674  1.00  0.00    -0.179 A  
HETATM   12  C   UNL     1     -10.090   7.454  72.983  1.00  0.00    -0.323 A  
HETATM   13  C   UNL     1      -8.334   7.570  70.835  1.00  0.00    -0.114 A  
HETATM   14  H   UNL     1      -9.163   6.161  74.952  1.00  0.00     0.000 HD 
HETATM   15  C   UNL     1     -10.477   8.073  71.790  1.00  0.00    -0.287 A  
HETATM   16  S   UNL     1      -7.348   7.807  69.459  1.00  0.00    -0.090 SA 
HETATM   17  C   UNL     1      -7.956   6.888  72.012  1.00  0.00    -0.095 A  
HETATM   18  C   UNL     1      -8.854   6.844  73.070  1.00  0.00    -0.126 A  
HETATM   19  O   UNL     1      -8.548   6.191  74.228  1.00  0.00    -0.115 OA 
BRANCH  10  20
HETATM   20  O   UNL     1     -10.893   9.146  68.753  1.00  0.00    -0.171 OA 
BRANCH  20  21
HETATM   21  C   UNL     1     -11.165  10.472  68.526  1.00  0.00    -0.274 A  
HETATM   22  C   UNL     1     -11.850  13.183  68.207  1.00  0.00    -0.349 A  
HETATM   23  C   UNL     1     -11.800  12.616  69.484  1.00  0.00    -0.376 A  
HETATM   24  C   UNL     1     -11.231  11.032  67.256  1.00  0.00    -0.330 A  
HETATM   25  C   UNL     1     -11.456  11.265  69.641  1.00  0.00    -0.380 A  
HETATM   26  C   UNL     1     -11.528  12.382  67.102  1.00  0.00    -0.423 A  
BRANCH  22  27
HETATM   27  O   UNL     1     -12.241  14.503  68.121  1.00  0.00    -0.234 OA 
BRANCH  27  28
HETATM   28  C   UNL     1     -11.360  15.390  68.826  1.00  0.00    -0.320 C  
BRANCH  28  29
HETATM   29  C   UNL     1     -12.002  16.058  70.045  1.00  0.00    -0.182 C  
BRANCH  29  30
HETATM   30  N   UNL     1     -11.316  15.655  71.295  1.00  0.00    -0.377 NA 
HETATM   31  C   UNL     1     -11.665  16.449  72.485  1.00  0.00    -0.352 C  
HETATM   32  C   UNL     1     -13.058  16.164  73.052  1.00  0.00    -0.486 C  
HETATM   33  C   UNL     1     -13.297  14.671  73.257  1.00  0.00    -0.273 C  
HETATM   34  C   UNL     1     -12.889  13.861  72.032  1.00  0.00    -0.393 C  
HETATM   35  C   UNL     1     -11.476  14.224  71.576  1.00  0.00     0.560 C  
ENDBRANCH  29  30
ENDBRANCH  28  29
ENDBRANCH  27  28
ENDBRANCH  22  27
ENDBRANCH  20  21
ENDBRANCH  10  20
ENDBRANCH   6   9
ENDBRANCH   2   3
TORSDOF 8
ENDMDL
MODEL      139
REMARK 921   NORMALIZED FREE ENERGY PREDICTED BY IDOCK:   -3.78 KCAL/MOL
REMARK 922        TOTAL FREE ENERGY PREDICTED BY IDOCK:   -7.30 KCAL/MOL
REMARK 923 INTER-LIGAND FREE ENERGY PREDICTED BY IDOCK:   -5.89 KCAL/MOL
REMARK 924 INTRA-LIGAND FREE ENERGY PREDICTED BY IDOCK:   -1.41 KCAL/MOL
REMARK 927      BINDING AFFINITY PREDICTED BY RF-SCORE:    0.00 PKD
ROOT
HETATM    1  C   UNL     1     -13.482   8.654  72.250  1.00  0.00    -0.374 C  
HETATM    2  O   UNL     1     -12.152   9.128  72.078  1.00  0.00    -0.367 OA 
ENDROOT
BRANCH   2   3
HETATM    3  C   UNL     1     -11.489   8.709  70.961  1.00  0.00    -0.278 A  
HETATM    4  C   UNL     1     -11.392   9.396  69.753  1.00  0.00    -0.071 A  
HETATM    5  C   UNL     1     -10.705   8.834  68.665  1.00  0.00    -0.109 A  
HETATM    6  C   UNL     1     -10.088   7.578  68.760  1.00  0.00    -0.191 A  
HETATM    7  C   UNL     1     -10.867   7.470  71.076  1.00  0.00    -0.249 A  
HETATM    8  C   UNL     1     -10.169   6.910  69.994  1.00  0.00    -0.211 A  
BRANCH   6   9
HETATM    9  C   UNL     1      -9.429   6.964  67.579  1.00  0.00    -0.128 A  
HETATM   10  C   UNL     1      -8.298   7.343  66.862  1.00  0.00    -0.122 A  
HETATM   11  C   UNL     1      -8.059   6.522  65.684  1.00  0.00    -0.128 A  
HETATM   12  C   UNL     1      -7.050   5.619  63.631  1.00  0.00    -0.051 A  
HETATM   13  C   UNL     1      -8.977   5.471  65.623  1.00  0.00    -0.146 A  
HETATM   14  H   UNL     1      -7.156   3.683  62.003  1.00  0.00     0.000 HD 
HETATM   15  C   UNL     1      -7.083   6.577  64.650  1.00  0.00    -0.060 A  
HETATM   16  S   UNL     1     -10.146   5.576  66.866  1.00  0.00    -0.228 SA 
HETATM   17  C   UNL     1      -8.914   4.465  64.636  1.00  0.00    -0.150 A  
HETATM   18  C   UNL     1      -7.939   4.563  63.651  1.00  0.00    -0.089 A  
HETATM   19  O   UNL     1      -7.823   3.615  62.677  1.00  0.00    -0.061 OA 
BRANCH  10  20
HETATM   20  O   UNL     1      -7.499   8.335  67.348  1.00  0.00    -0.091 OA 
BRANCH  20  21
HETATM   21  C   UNL     1      -7.720   9.676  67.152  1.00  0.00    -0.091 A  
HETATM   22  C   UNL     1      -8.206  12.440  66.940  1.00  0.00    -0.089 A  
HETATM   23  C   UNL     1      -7.567  11.923  68.071  1.00  0.00    -0.122 A  
HETATM   24  C   UNL     1      -8.370  10.188  66.036  1.00  0.00    -0.130 A  
HETATM   25  C   UNL     1      -7.323  10.546  68.174  1.00  0.00    -0.088 A  
HETATM   26  C   UNL     1      -8.573  11.558  65.913  1.00  0.00     0.009 A  
BRANCH  22  27
HETATM   27  O   UNL     1      -8.458  13.796  66.925  1.00  0.00    -0.168 OA 
BRANCH  27  28
HETATM   28  C   UNL     1      -7.588  14.531  67.798  1.00  0.00    -0.159 C  
BRANCH  28  29
HETATM   29  C   UNL     1      -8.240  15.767  68.423  1.00  0.00    -0.151 C  
BRANCH  29  30
HETATM   30  N   UNL     1      -9.530  16.080  67.765  1.00  0.00    -0.216 NA 
HETATM   31  C   UNL     1     -10.521  16.756  68.619  1.00  0.00    -0.333 C  
HETATM   32  C   UNL     1     -10.211  18.227  68.908  1.00  0.00    -0.299 C  
HETATM   33  C   UNL     1      -9.909  19.009  67.633  1.00  0.00    -0.395 C  
HETATM   34  C   UNL     1      -8.915  18.272  66.742  1.00  0.00    -0.289 C  
HETATM   35  C   UNL     1      -9.346  16.824  66.515  1.00  0.00    -0.264 C  
ENDBRANCH  29  30
ENDBRANCH  28  29
ENDBRANCH  27  28
ENDBRANCH  22  27
ENDBRANCH  20  21
ENDBRANCH  10  20
ENDBRANCH   6   9
ENDBRANCH   2   3
TORSDOF 8
ENDMDL
MODEL      140
REMARK 921   NORMALIZED FREE ENERGY PREDICTED BY IDOCK:   -3.78 KCAL/MOL
REMARK 922        TOTAL FREE ENERGY PREDICTED BY IDOCK:   -7.30 KCAL/MOL
REMARK 923 INTER-LIGAND FREE ENERGY PREDICTED BY IDOCK:   -5.98 KCAL/MOL
REMARK 924 INTRA-LIGAND FREE ENERGY PREDICTED BY IDOCK:   -1.32 KCAL/MOL
REMARK 927      BINDING AFFINITY PREDICTED BY RF-SCORE:    0.00 PKD
ROOT
HETATM    1  C   UNL     1      -6.662  14.452  69.507  1.00  0.00    -0.141 C  
HETATM    2  O   UNL     1      -6.565  13.700  68.302  1.00  0.00    -0.085 OA 
ENDROOT
BRANCH   2   3
HETATM    3  C   UNL     1      -6.756  12.352  68.402  1.00  0.00    -0.069 A  
HETATM    4  C   UNL     1      -6.553  11.572  69.539  1.00  0.00    -0.120 A  
HETATM    5  C   UNL     1      -6.755  10.183  69.497  1.00  0.00    -0.066 A  
HETATM    6  C   UNL     1      -7.175   9.541  68.323  1.00  0.00    -0.076 A  
HETATM    7  C   UNL     1      -7.190  11.731  67.236  1.00  0.00    -0.142 A  
HETATM    8  C   UNL     1      -7.404  10.345  67.193  1.00  0.00    -0.092 A  
BRANCH   6   9
HETATM    9  C   UNL     1      -7.313   8.063  68.274  1.00  0.00    -0.095 A  
HETATM   10  C   UNL     1      -8.308   7.219  68.759  1.00  0.00    -0.129 A  
HETATM   11  C   UNL     1      -7.995   5.806  68.604  1.00  0.00    -0.101 A  
HETATM   12  C   UNL     1      -8.161   3.354  68.682  1.00  0.00    -0.070 A  
HETATM   13  C   UNL     1      -6.801   5.643  67.897  1.00  0.00    -0.064 A  
HETATM   14  H   UNL     1      -7.070   1.222  67.860  1.00  0.00     0.000 HD 
HETATM   15  C   UNL     1      -8.671   4.618  68.996  1.00  0.00    -0.108 A  
HETATM   16  S   UNL     1      -6.046   7.142  67.570  1.00  0.00    -0.042 SA 
HETATM   17  C   UNL     1      -6.311   4.374  67.520  1.00  0.00    -0.037 A  
HETATM   18  C   UNL     1      -7.012   3.246  67.925  1.00  0.00    -0.050 A  
HETATM   19  O   UNL     1      -6.590   1.994  67.582  1.00  0.00    -0.028 OA 
BRANCH  10  20
HETATM   20  O   UNL     1      -9.472   7.757  69.225  1.00  0.00    -0.155 OA 
BRANCH  20  21
HETATM   21  C   UNL     1     -10.055   8.895  68.726  1.00  0.00    -0.200 A  
HETATM   22  C   UNL     1     -11.331  11.256  67.878  1.00  0.00    -0.299 A  
HETATM   23  C   UNL     1     -10.846  11.149  69.185  1.00  0.00    -0.284 A  
HETATM   24  C   UNL     1     -10.552   8.996  67.432  1.00  0.00    -0.309 A  
HETATM   25  C   UNL     1     -10.208   9.973  69.605  1.00  0.00    -0.267 A  
HETATM   26  C   UNL     1     -11.145  10.177  67.001  1.00  0.00    -0.061 A  
BRANCH  22  27
HETATM   27  O   UNL     1     -11.990  12.421  67.546  1.00  0.00    -0.482 OA 
BRANCH  27  28
HETATM   28  C   UNL     1     -12.240  12.534  66.137  1.00  0.00    -0.140 C  
BRANCH  28  29
HETATM   29  C   UNL     1     -12.393  13.978  65.650  1.00  0.00    -0.479 C  
BRANCH  29  30
HETATM   30  N   UNL     1     -11.316  14.337  64.699  1.00  0.00    -0.378 NA 
HETATM   31  C   UNL     1     -11.204  15.772  64.391  1.00  0.00    -0.236 C  
HETATM   32  C   UNL     1     -10.611  16.619  65.520  1.00  0.00    -0.273 C  
HETATM   33  C   UNL     1      -9.306  16.033  66.049  1.00  0.00    -0.380 C  
HETATM   34  C   UNL     1      -9.428  14.537  66.320  1.00  0.00    -0.310 C  
HETATM   35  C   UNL     1     -10.013  13.805  65.114  1.00  0.00    -0.211 C  
ENDBRANCH  29  30
ENDBRANCH  28  29
ENDBRANCH  27  28
ENDBRANCH  22  27
ENDBRANCH  20  21
ENDBRANCH  10  20
ENDBRANCH   6   9
ENDBRANCH   2   3
TORSDOF 8
ENDMDL
MODEL      141
REMARK 921   NORMALIZED FREE ENERGY PREDICTED BY IDOCK:   -3.77 KCAL/MOL
REMARK 922        TOTAL FREE ENERGY PREDICTED BY IDOCK:   -7.29 KCAL/MOL
REMARK 923 INTER-LIGAND FREE ENERGY PREDICTED BY IDOCK:   -5.57 KCAL/MOL
REMARK 924 INTRA-LIGAND FREE ENERGY PREDICTED BY IDOCK:   -1.72 KCAL/MOL
REMARK 927      BINDING AFFINITY PREDICTED BY RF-SCORE:    0.00 PKD
ROOT
HETATM    1  C   UNL     1      -5.828  13.729  70.340  1.00  0.00    -0.162 C  
HETATM    2  O   UNL     1      -5.887  12.451  70.962  1.00  0.00    -0.344 OA 
ENDROOT
BRANCH   2   3
HETATM    3  C   UNL     1      -6.248  11.399  70.170  1.00  0.00    -0.138 A  
HETATM    4  C   UNL     1      -5.668  10.132  70.167  1.00  0.00    -0.054 A  
HETATM    5  C   UNL     1      -6.114   9.145  69.273  1.00  0.00    -0.041 A  
HETATM    6  C   UNL     1      -7.156   9.395  68.369  1.00  0.00    -0.072 A  
HETATM    7  C   UNL     1      -7.295  11.656  69.291  1.00  0.00     0.025 A  
HETATM    8  C   UNL     1      -7.751  10.668  68.404  1.00  0.00    -0.106 A  
BRANCH   6   9
HETATM    9  C   UNL     1      -7.566   8.366  67.379  1.00  0.00    -0.098 A  
HETATM   10  C   UNL     1      -8.200   7.138  67.545  1.00  0.00    -0.117 A  
HETATM   11  C   UNL     1      -8.314   6.375  66.311  1.00  0.00    -0.123 A  
HETATM   12  C   UNL     1      -8.849   4.585  64.711  1.00  0.00    -0.149 A  
HETATM   13  C   UNL     1      -7.847   7.122  65.227  1.00  0.00    -0.121 A  
HETATM   14  H   UNL     1      -8.897   4.021  62.243  1.00  0.00     0.000 HD 
HETATM   15  C   UNL     1      -8.820   5.078  66.020  1.00  0.00    -0.130 A  
HETATM   16  S   UNL     1      -7.182   8.617  65.725  1.00  0.00    -0.081 SA 
HETATM   17  C   UNL     1      -7.930   6.660  63.896  1.00  0.00    -0.075 A  
HETATM   18  C   UNL     1      -8.437   5.388  63.666  1.00  0.00    -0.059 A  
HETATM   19  O   UNL     1      -8.550   4.892  62.400  1.00  0.00    -0.105 OA 
BRANCH  10  20
HETATM   20  O   UNL     1      -8.721   6.813  68.763  1.00  0.00    -0.125 OA 
BRANCH  20  21
HETATM   21  C   UNL     1      -9.445   7.672  69.552  1.00  0.00    -0.152 A  
HETATM   22  C   UNL     1     -10.954   9.543  71.014  1.00  0.00    -0.353 A  
HETATM   23  C   UNL     1     -11.271   9.273  69.680  1.00  0.00    -0.061 A  
HETATM   24  C   UNL     1      -9.120   7.952  70.874  1.00  0.00    -0.157 A  
HETATM   25  C   UNL     1     -10.519   8.338  68.953  1.00  0.00    -0.209 A  
HETATM   26  C   UNL     1      -9.891   8.847  71.608  1.00  0.00    -0.387 A  
BRANCH  22  27
HETATM   27  O   UNL     1     -11.703  10.508  71.655  1.00  0.00    -0.096 OA 
BRANCH  27  28
HETATM   28  C   UNL     1     -12.419  11.352  70.741  1.00  0.00    -0.365 C  
BRANCH  28  29
HETATM   29  C   UNL     1     -12.322  12.844  71.070  1.00  0.00    -0.225 C  
BRANCH  29  30
HETATM   30  N   UNL     1     -12.728  13.673  69.912  1.00  0.00    -0.045 NA 
HETATM   31  C   UNL     1     -12.623  15.128  70.115  1.00  0.00    -0.279 C  
HETATM   32  C   UNL     1     -11.192  15.668  70.113  1.00  0.00    -0.346 C  
HETATM   33  C   UNL     1     -10.403  15.192  68.898  1.00  0.00    -0.243 C  
HETATM   34  C   UNL     1     -10.557  13.692  68.677  1.00  0.00    -0.260 C  
HETATM   35  C   UNL     1     -12.030  13.283  68.682  1.00  0.00    -0.310 C  
ENDBRANCH  29  30
ENDBRANCH  28  29
ENDBRANCH  27  28
ENDBRANCH  22  27
ENDBRANCH  20  21
ENDBRANCH  10  20
ENDBRANCH   6   9
ENDBRANCH   2   3
TORSDOF 8
ENDMDL
MODEL      142
REMARK 921   NORMALIZED FREE ENERGY PREDICTED BY IDOCK:   -3.76 KCAL/MOL
REMARK 922        TOTAL FREE ENERGY PREDICTED BY IDOCK:   -7.27 KCAL/MOL
REMARK 923 INTER-LIGAND FREE ENERGY PREDICTED BY IDOCK:   -6.20 KCAL/MOL
REMARK 924 INTRA-LIGAND FREE ENERGY PREDICTED BY IDOCK:   -1.07 KCAL/MOL
REMARK 927      BINDING AFFINITY PREDICTED BY RF-SCORE:    0.00 PKD
ROOT
HETATM    1  C   UNL     1      -8.535  15.652  68.743  1.00  0.00    -0.192 C  
HETATM    2  O   UNL     1      -8.667  15.333  67.362  1.00  0.00    -0.163 OA 
ENDROOT
BRANCH   2   3
HETATM    3  C   UNL     1      -8.614  14.010  67.030  1.00  0.00    -0.174 A  
HETATM    4  C   UNL     1      -9.584  13.296  66.331  1.00  0.00    -0.260 A  
HETATM    5  C   UNL     1      -9.421  11.924  66.082  1.00  0.00    -0.243 A  
HETATM    6  C   UNL     1      -8.280  11.234  66.516  1.00  0.00    -0.165 A  
HETATM    7  C   UNL     1      -7.468  13.343  67.450  1.00  0.00    -0.134 A  
HETATM    8  C   UNL     1      -7.295  11.974  67.194  1.00  0.00    -0.134 A  
BRANCH   6   9
HETATM    9  C   UNL     1      -8.155   9.768  66.312  1.00  0.00    -0.113 A  
HETATM   10  C   UNL     1      -7.863   8.741  67.205  1.00  0.00    -0.096 A  
HETATM   11  C   UNL     1      -7.717   7.442  66.565  1.00  0.00    -0.093 A  
HETATM   12  C   UNL     1      -7.339   5.037  66.218  1.00  0.00    -0.082 A  
HETATM   13  C   UNL     1      -8.017   7.530  65.203  1.00  0.00    -0.128 A  
HETATM   14  H   UNL     1      -7.496   3.188  64.495  1.00  0.00     0.000 HD 
HETATM   15  C   UNL     1      -7.371   6.154  67.060  1.00  0.00    -0.083 A  
HETATM   16  S   UNL     1      -8.322   9.142  64.722  1.00  0.00    -0.178 SA 
HETATM   17  C   UNL     1      -8.049   6.399  64.359  1.00  0.00    -0.076 A  
HETATM   18  C   UNL     1      -7.707   5.163  64.894  1.00  0.00    -0.085 A  
HETATM   19  O   UNL     1      -7.730   4.034  64.129  1.00  0.00    -0.080 OA 
BRANCH  10  20
HETATM   20  O   UNL     1      -7.836   9.006  68.543  1.00  0.00    -0.099 OA 
BRANCH  20  21
HETATM   21  C   UNL     1      -8.941   9.326  69.293  1.00  0.00    -0.147 A  
HETATM   22  C   UNL     1     -11.170   9.824  70.936  1.00  0.00    -0.359 A  
HETATM   23  C   UNL     1     -10.008   9.267  71.478  1.00  0.00    -0.281 A  
HETATM   24  C   UNL     1     -10.102   9.863  68.752  1.00  0.00    -0.186 A  
HETATM   25  C   UNL     1      -8.896   9.022  70.658  1.00  0.00    -0.259 A  
HETATM   26  C   UNL     1     -11.189  10.147  69.572  1.00  0.00    -0.288 A  
BRANCH  22  27
HETATM   27  O   UNL     1     -12.241   9.994  71.788  1.00  0.00    -0.384 OA 
BRANCH  27  28
HETATM   28  C   UNL     1     -13.276  10.811  71.222  1.00  0.00    -0.232 C  
BRANCH  28  29
HETATM   29  C   UNL     1     -13.601  12.058  72.049  1.00  0.00    -0.130 C  
BRANCH  29  30
HETATM   30  N   UNL     1     -12.439  12.976  72.107  1.00  0.00     0.194 NA 
HETATM   31  C   UNL     1     -11.943  13.442  70.801  1.00  0.00    -0.139 C  
HETATM   32  C   UNL     1     -12.838  14.476  70.114  1.00  0.00    -0.166 C  
HETATM   33  C   UNL     1     -13.199  15.629  71.045  1.00  0.00    -0.435 C  
HETATM   34  C   UNL     1     -13.669  15.129  72.407  1.00  0.00    -0.600 C  
HETATM   35  C   UNL     1     -12.683  14.119  72.993  1.00  0.00    -0.209 C  
ENDBRANCH  29  30
ENDBRANCH  28  29
ENDBRANCH  27  28
ENDBRANCH  22  27
ENDBRANCH  20  21
ENDBRANCH  10  20
ENDBRANCH   6   9
ENDBRANCH   2   3
TORSDOF 8
ENDMDL
MODEL      143
REMARK 921   NORMALIZED FREE ENERGY PREDICTED BY IDOCK:   -3.72 KCAL/MOL
REMARK 922        TOTAL FREE ENERGY PREDICTED BY IDOCK:   -7.21 KCAL/MOL
REMARK 923 INTER-LIGAND FREE ENERGY PREDICTED BY IDOCK:   -5.27 KCAL/MOL
REMARK 924 INTRA-LIGAND FREE ENERGY PREDICTED BY IDOCK:   -1.94 KCAL/MOL
REMARK 927      BINDING AFFINITY PREDICTED BY RF-SCORE:    0.00 PKD
ROOT
HETATM    1  C   UNL     1      -7.343   3.378  74.529  1.00  0.00    -0.053 C  
HETATM    2  O   UNL     1      -8.685   3.708  74.193  1.00  0.00    -0.088 OA 
ENDROOT
BRANCH   2   3
HETATM    3  C   UNL     1      -8.862   4.607  73.180  1.00  0.00    -0.111 A  
HETATM    4  C   UNL     1      -7.927   4.944  72.204  1.00  0.00    -0.110 A  
HETATM    5  C   UNL     1      -8.226   5.915  71.234  1.00  0.00    -0.123 A  
HETATM    6  C   UNL     1      -9.468   6.564  71.209  1.00  0.00    -0.172 A  
HETATM    7  C   UNL     1     -10.105   5.230  73.157  1.00  0.00    -0.205 A  
HETATM    8  C   UNL     1     -10.412   6.193  72.183  1.00  0.00    -0.237 A  
BRANCH   6   9
HETATM    9  C   UNL     1      -9.742   7.642  70.225  1.00  0.00    -0.179 A  
HETATM   10  C   UNL     1     -10.360   7.606  68.978  1.00  0.00    -0.213 A  
HETATM   11  C   UNL     1     -10.319   8.881  68.276  1.00  0.00    -0.250 A  
HETATM   12  C   UNL     1     -10.632  10.615  66.560  1.00  0.00    -0.257 A  
HETATM   13  C   UNL     1      -9.755   9.869  69.086  1.00  0.00    -0.198 A  
HETATM   14  H   UNL     1     -10.396  13.097  66.121  1.00  0.00     0.000 HD 
HETATM   15  C   UNL     1     -10.758   9.288  66.985  1.00  0.00    -0.199 A  
HETATM   16  S   UNL     1      -9.187   9.230  70.566  1.00  0.00    -0.264 SA 
HETATM   17  C   UNL     1      -9.681  11.222  68.691  1.00  0.00    -0.200 A  
HETATM   18  C   UNL     1     -10.128  11.568  67.422  1.00  0.00    -0.191 A  
HETATM   19  O   UNL     1     -10.090  12.861  66.990  1.00  0.00    -0.239 OA 
BRANCH  10  20
HETATM   20  O   UNL     1     -11.001   6.470  68.580  1.00  0.00    -0.278 OA 
BRANCH  20  21
HETATM   21  C   UNL     1     -10.457   5.521  67.750  1.00  0.00    -0.180 A  
HETATM   22  C   UNL     1      -9.505   3.583  65.946  1.00  0.00    -0.138 A  
HETATM   23  C   UNL     1     -10.325   4.621  65.495  1.00  0.00    -0.225 A  
HETATM   24  C   UNL     1      -9.655   4.480  68.202  1.00  0.00    -0.203 A  
HETATM   25  C   UNL     1     -10.796   5.588  66.394  1.00  0.00    -0.195 A  
HETATM   26  C   UNL     1      -9.152   3.546  67.303  1.00  0.00    -0.194 A  
BRANCH  22  27
HETATM   27  O   UNL     1      -9.116   2.640  65.018  1.00  0.00    -0.131 OA 
BRANCH  27  28
HETATM   28  C   UNL     1      -7.925   3.015  64.311  1.00  0.00    -0.082 C  
BRANCH  28  29
HETATM   29  C   UNL     1      -6.758   3.397  65.226  1.00  0.00    -0.041 C  
BRANCH  29  30
HETATM   30  N   UNL     1      -5.982   4.524  64.658  1.00  0.00    -0.017 NA 
HETATM   31  C   UNL     1      -6.666   5.284  63.598  1.00  0.00    -0.041 C  
HETATM   32  C   UNL     1      -7.793   6.193  64.095  1.00  0.00    -0.117 C  
HETATM   33  C   UNL     1      -7.342   7.082  65.250  1.00  0.00    -0.077 C  
HETATM   34  C   UNL     1      -6.598   6.286  66.317  1.00  0.00    -0.048 C  
HETATM   35  C   UNL     1      -5.490   5.435  65.697  1.00  0.00    -0.013 C  
ENDBRANCH  29  30
ENDBRANCH  28  29
ENDBRANCH  27  28
ENDBRANCH  22  27
ENDBRANCH  20  21
ENDBRANCH  10  20
ENDBRANCH   6   9
ENDBRANCH   2   3
TORSDOF 8
ENDMDL
MODEL      144
REMARK 921   NORMALIZED FREE ENERGY PREDICTED BY IDOCK:   -3.71 KCAL/MOL
REMARK 922        TOTAL FREE ENERGY PREDICTED BY IDOCK:   -7.20 KCAL/MOL
REMARK 923 INTER-LIGAND FREE ENERGY PREDICTED BY IDOCK:   -5.82 KCAL/MOL
REMARK 924 INTRA-LIGAND FREE ENERGY PREDICTED BY IDOCK:   -1.39 KCAL/MOL
REMARK 927      BINDING AFFINITY PREDICTED BY RF-SCORE:    0.00 PKD
ROOT
HETATM    1  C   UNL     1     -10.868   7.498  67.874  1.00  0.00    -0.058 C  
HETATM    2  O   UNL     1     -10.757   8.215  66.650  1.00  0.00    -0.210 OA 
ENDROOT
BRANCH   2   3
HETATM    3  C   UNL     1     -10.536   9.559  66.745  1.00  0.00    -0.193 A  
HETATM    4  C   UNL     1     -10.209  10.417  65.697  1.00  0.00    -0.308 A  
HETATM    5  C   UNL     1      -9.973  11.780  65.937  1.00  0.00    -0.266 A  
HETATM    6  C   UNL     1     -10.069  12.322  67.226  1.00  0.00    -0.212 A  
HETATM    7  C   UNL     1     -10.652  10.086  68.027  1.00  0.00    -0.280 A  
HETATM    8  C   UNL     1     -10.429  11.451  68.269  1.00  0.00    -0.221 A  
BRANCH   6   9
HETATM    9  C   UNL     1      -9.745  13.750  67.476  1.00  0.00    -0.230 A  
HETATM   10  C   UNL     1      -8.522  14.397  67.630  1.00  0.00    -0.185 A  
HETATM   11  C   UNL     1      -8.652  15.803  67.984  1.00  0.00    -0.163 A  
HETATM   12  C   UNL     1      -8.098  18.128  68.565  1.00  0.00    -0.314 A  
HETATM   13  C   UNL     1      -9.995  16.188  67.976  1.00  0.00    -0.238 A  
HETATM   14  H   UNL     1      -9.101  20.430  68.885  1.00  0.00     0.000 HD 
HETATM   15  C   UNL     1      -7.700  16.815  68.291  1.00  0.00    -0.187 A  
HETATM   16  S   UNL     1     -11.035  14.863  67.687  1.00  0.00    -0.310 SA 
HETATM   17  C   UNL     1     -10.402  17.523  68.189  1.00  0.00    -0.375 A  
HETATM   18  C   UNL     1      -9.432  18.474  68.480  1.00  0.00    -0.347 A  
HETATM   19  O   UNL     1      -9.765  19.780  68.686  1.00  0.00    -0.376 OA 
BRANCH  10  20
HETATM   20  O   UNL     1      -7.368  13.722  67.357  1.00  0.00    -0.171 OA 
BRANCH  20  21
HETATM   21  C   UNL     1      -7.070  12.470  67.835  1.00  0.00    -0.111 A  
HETATM   22  C   UNL     1      -6.537   9.831  68.654  1.00  0.00    -0.051 A  
HETATM   23  C   UNL     1      -6.450  10.179  67.303  1.00  0.00    -0.068 A  
HETATM   24  C   UNL     1      -7.173  12.120  69.176  1.00  0.00     0.022 A  
HETATM   25  C   UNL     1      -6.713  11.496  66.897  1.00  0.00    -0.139 A  
HETATM   26  C   UNL     1      -6.869  10.826  69.586  1.00  0.00    -0.133 A  
BRANCH  22  27
HETATM   27  O   UNL     1      -6.312   8.510  68.978  1.00  0.00    -0.043 OA 
BRANCH  27  28
HETATM   28  C   UNL     1      -6.126   7.679  67.823  1.00  0.00    -0.045 C  
BRANCH  28  29
HETATM   29  C   UNL     1      -7.260   6.675  67.594  1.00  0.00    -0.090 C  
BRANCH  29  30
HETATM   30  N   UNL     1      -6.829   5.299  67.931  1.00  0.00    -0.059 NA 
HETATM   31  C   UNL     1      -7.819   4.495  68.667  1.00  0.00    -0.075 C  
HETATM   32  C   UNL     1      -9.000   4.013  67.822  1.00  0.00    -0.149 C  
HETATM   33  C   UNL     1      -8.543   3.337  66.533  1.00  0.00    -0.117 C  
HETATM   34  C   UNL     1      -7.487   4.163  65.807  1.00  0.00    -0.081 C  
HETATM   35  C   UNL     1      -6.356   4.564  66.752  1.00  0.00    -0.037 C  
ENDBRANCH  29  30
ENDBRANCH  28  29
ENDBRANCH  27  28
ENDBRANCH  22  27
ENDBRANCH  20  21
ENDBRANCH  10  20
ENDBRANCH   6   9
ENDBRANCH   2   3
TORSDOF 8
ENDMDL
MODEL      145
REMARK 921   NORMALIZED FREE ENERGY PREDICTED BY IDOCK:   -3.70 KCAL/MOL
REMARK 922        TOTAL FREE ENERGY PREDICTED BY IDOCK:   -7.18 KCAL/MOL
REMARK 923 INTER-LIGAND FREE ENERGY PREDICTED BY IDOCK:   -6.10 KCAL/MOL
REMARK 924 INTRA-LIGAND FREE ENERGY PREDICTED BY IDOCK:   -1.08 KCAL/MOL
REMARK 927      BINDING AFFINITY PREDICTED BY RF-SCORE:    0.00 PKD
ROOT
HETATM    1  C   UNL     1      -9.678   6.600  72.465  1.00  0.00    -0.157 C  
HETATM    2  O   UNL     1      -9.279   7.961  72.582  1.00  0.00    -0.166 OA 
ENDROOT
BRANCH   2   3
HETATM    3  C   UNL     1      -9.679   8.806  71.586  1.00  0.00    -0.296 A  
HETATM    4  C   UNL     1     -10.968   9.294  71.388  1.00  0.00    -0.429 A  
HETATM    5  C   UNL     1     -11.254  10.134  70.299  1.00  0.00    -0.387 A  
HETATM    6  C   UNL     1     -10.257  10.514  69.389  1.00  0.00    -0.245 A  
HETATM    7  C   UNL     1      -8.676   9.189  70.702  1.00  0.00    -0.272 A  
HETATM    8  C   UNL     1      -8.955  10.037  69.619  1.00  0.00    -0.221 A  
BRANCH   6   9
HETATM    9  C   UNL     1     -10.590  11.342  68.201  1.00  0.00    -0.192 A  
HETATM   10  C   UNL     1     -10.658  11.016  66.850  1.00  0.00    -0.258 A  
HETATM   11  C   UNL     1     -10.905  12.165  65.990  1.00  0.00    -0.318 A  
HETATM   12  C   UNL     1     -11.287  13.552  63.995  1.00  0.00    -0.306 A  
HETATM   13  C   UNL     1     -11.125  13.312  66.756  1.00  0.00    -0.292 A  
HETATM   14  H   UNL     1     -11.963  15.871  63.239  1.00  0.00     0.000 HD 
HETATM   15  C   UNL     1     -10.992  12.314  64.578  1.00  0.00    -0.358 A  
HETATM   16  S   UNL     1     -10.900  13.016  68.424  1.00  0.00    -0.267 SA 
HETATM   17  C   UNL     1     -11.485  14.550  66.181  1.00  0.00    -0.357 A  
HETATM   18  C   UNL     1     -11.560  14.641  64.797  1.00  0.00    -0.418 A  
HETATM   19  O   UNL     1     -11.912  15.809  64.186  1.00  0.00    -0.527 OA 
BRANCH  10  20
HETATM   20  O   UNL     1     -10.587   9.708  66.472  1.00  0.00    -0.174 OA 
BRANCH  20  21
HETATM   21  C   UNL     1      -9.422   9.054  66.151  1.00  0.00    -0.253 A  
HETATM   22  C   UNL     1      -6.949   7.888  65.486  1.00  0.00    -0.059 A  
HETATM   23  C   UNL     1      -6.995   9.024  66.299  1.00  0.00    -0.079 A  
HETATM   24  C   UNL     1      -9.376   7.934  65.330  1.00  0.00     0.546 A  
HETATM   25  C   UNL     1      -8.228   9.603  66.632  1.00  0.00    -0.120 A  
HETATM   26  C   UNL     1      -8.157   7.334  65.035  1.00  0.00    -0.120 A  
BRANCH  22  27
HETATM   27  O   UNL     1      -5.702   7.399  65.159  1.00  0.00    -0.036 OA 
BRANCH  27  28
HETATM   28  C   UNL     1      -5.290   6.318  66.008  1.00  0.00    -0.013 C  
BRANCH  28  29
HETATM   29  C   UNL     1      -5.648   4.933  65.463  1.00  0.00    -0.014 C  
BRANCH  29  30
HETATM   30  N   UNL     1      -5.543   3.900  66.520  1.00  0.00    -0.017 NA 
HETATM   31  C   UNL     1      -6.337   4.163  67.732  1.00  0.00    -0.037 C  
HETATM   32  C   UNL     1      -7.844   3.960  67.560  1.00  0.00    -0.086 C  
HETATM   33  C   UNL     1      -8.171   2.610  66.930  1.00  0.00    -0.083 C  
HETATM   34  C   UNL     1      -7.309   2.336  65.702  1.00  0.00    -0.066 C  
HETATM   35  C   UNL     1      -5.829   2.556  66.009  1.00  0.00    -0.022 C  
ENDBRANCH  29  30
ENDBRANCH  28  29
ENDBRANCH  27  28
ENDBRANCH  22  27
ENDBRANCH  20  21
ENDBRANCH  10  20
ENDBRANCH   6   9
ENDBRANCH   2   3
TORSDOF 8
ENDMDL
MODEL      146
REMARK 921   NORMALIZED FREE ENERGY PREDICTED BY IDOCK:   -3.68 KCAL/MOL
REMARK 922        TOTAL FREE ENERGY PREDICTED BY IDOCK:   -7.15 KCAL/MOL
REMARK 923 INTER-LIGAND FREE ENERGY PREDICTED BY IDOCK:   -6.31 KCAL/MOL
REMARK 924 INTRA-LIGAND FREE ENERGY PREDICTED BY IDOCK:   -0.84 KCAL/MOL
REMARK 927      BINDING AFFINITY PREDICTED BY RF-SCORE:    0.00 PKD
ROOT
HETATM    1  C   UNL     1      -6.681   7.239  63.603  1.00  0.00    -0.052 C  
HETATM    2  O   UNL     1      -8.017   7.726  63.644  1.00  0.00    -0.138 OA 
ENDROOT
BRANCH   2   3
HETATM    3  C   UNL     1      -8.216   8.919  64.277  1.00  0.00    -0.169 A  
HETATM    4  C   UNL     1      -7.296   9.593  65.077  1.00  0.00    -0.117 A  
HETATM    5  C   UNL     1      -7.643  10.803  65.700  1.00  0.00    -0.044 A  
HETATM    6  C   UNL     1      -8.911  11.375  65.530  1.00  0.00    -0.096 A  
HETATM    7  C   UNL     1      -9.473   9.484  64.084  1.00  0.00     0.084 A  
HETATM    8  C   UNL     1      -9.819  10.699  64.696  1.00  0.00    -0.382 A  
BRANCH   6   9
HETATM    9  C   UNL     1      -9.288  12.616  66.254  1.00  0.00    -0.160 A  
HETATM   10  C   UNL     1      -9.379  12.889  67.616  1.00  0.00    -0.195 A  
HETATM   11  C   UNL     1      -9.906  14.214  67.906  1.00  0.00    -0.224 A  
HETATM   12  C   UNL     1     -10.688  16.203  69.123  1.00  0.00    -0.292 A  
HETATM   13  C   UNL     1     -10.093  14.937  66.726  1.00  0.00    -0.251 A  
HETATM   14  H   UNL     1     -11.385  18.619  68.823  1.00  0.00     0.000 HD 
HETATM   15  C   UNL     1     -10.221  14.885  69.121  1.00  0.00    -0.243 A  
HETATM   16  S   UNL     1      -9.769  13.988  65.341  1.00  0.00     0.045 SA 
HETATM   17  C   UNL     1     -10.504  16.287  66.720  1.00  0.00    -0.287 A  
HETATM   18  C   UNL     1     -10.794  16.897  67.934  1.00  0.00    -0.310 A  
HETATM   19  O   UNL     1     -11.186  18.202  67.992  1.00  0.00    -0.010 OA 
BRANCH  10  20
HETATM   20  O   UNL     1      -8.901  11.980  68.514  1.00  0.00    -0.166 OA 
BRANCH  20  21
HETATM   21  C   UNL     1      -9.687  11.114  69.234  1.00  0.00     0.057 A  
HETATM   22  C   UNL     1     -11.214   9.193  70.612  1.00  0.00    -0.270 A  
HETATM   23  C   UNL     1      -9.891   8.917  70.257  1.00  0.00    -0.211 A  
HETATM   24  C   UNL     1     -11.008  11.382  69.572  1.00  0.00    -0.226 A  
HETATM   25  C   UNL     1      -9.130   9.876  69.572  1.00  0.00    -0.237 A  
HETATM   26  C   UNL     1     -11.749  10.449  70.289  1.00  0.00    -0.406 A  
BRANCH  22  27
HETATM   27  O   UNL     1     -11.919   8.189  71.241  1.00  0.00    -0.289 OA 
BRANCH  27  28
HETATM   28  C   UNL     1     -11.127   7.470  72.198  1.00  0.00    -0.256 C  
BRANCH  28  29
HETATM   29  C   UNL     1     -11.417   5.967  72.237  1.00  0.00    -0.312 C  
BRANCH  29  30
HETATM   30  N   UNL     1     -11.051   5.388  73.550  1.00  0.00    -0.275 NA 
HETATM   31  C   UNL     1     -10.473   4.034  73.499  1.00  0.00    -0.183 C  
HETATM   32  C   UNL     1      -9.037   3.977  72.973  1.00  0.00    -0.123 C  
HETATM   33  C   UNL     1      -8.127   4.971  73.687  1.00  0.00    -0.106 C  
HETATM   34  C   UNL     1      -8.760   6.356  73.769  1.00  0.00    -0.132 C  
HETATM   35  C   UNL     1     -10.181   6.280  74.324  1.00  0.00    -0.335 C  
ENDBRANCH  29  30
ENDBRANCH  28  29
ENDBRANCH  27  28
ENDBRANCH  22  27
ENDBRANCH  20  21
ENDBRANCH  10  20
ENDBRANCH   6   9
ENDBRANCH   2   3
TORSDOF 8
ENDMDL
MODEL      147
REMARK 921   NORMALIZED FREE ENERGY PREDICTED BY IDOCK:   -3.68 KCAL/MOL
REMARK 922        TOTAL FREE ENERGY PREDICTED BY IDOCK:   -7.15 KCAL/MOL
REMARK 923 INTER-LIGAND FREE ENERGY PREDICTED BY IDOCK:   -6.55 KCAL/MOL
REMARK 924 INTRA-LIGAND FREE ENERGY PREDICTED BY IDOCK:   -0.60 KCAL/MOL
REMARK 927      BINDING AFFINITY PREDICTED BY RF-SCORE:    0.00 PKD
ROOT
HETATM    1  C   UNL     1      -8.538   3.122  73.877  1.00  0.00    -0.073 C  
HETATM    2  O   UNL     1      -9.791   3.796  73.897  1.00  0.00    -0.106 OA 
ENDROOT
BRANCH   2   3
HETATM    3  C   UNL     1      -9.934   4.853  73.045  1.00  0.00    -0.151 A  
HETATM    4  C   UNL     1      -8.904   5.599  72.476  1.00  0.00    -0.130 A  
HETATM    5  C   UNL     1      -9.190   6.689  71.638  1.00  0.00    -0.145 A  
HETATM    6  C   UNL     1     -10.510   7.054  71.340  1.00  0.00    -0.225 A  
HETATM    7  C   UNL     1     -11.249   5.193  72.744  1.00  0.00    -0.323 A  
HETATM    8  C   UNL     1     -11.539   6.275  71.898  1.00  0.00    -0.369 A  
BRANCH   6   9
HETATM    9  C   UNL     1     -10.798   8.254  70.513  1.00  0.00    -0.232 A  
HETATM   10  C   UNL     1     -10.739   8.452  69.136  1.00  0.00    -0.106 A  
HETATM   11  C   UNL     1     -10.989   9.830  68.740  1.00  0.00    -0.185 A  
HETATM   12  C   UNL     1     -11.297  11.848  67.367  1.00  0.00    -0.389 A  
HETATM   13  C   UNL     1     -11.339  10.604  69.849  1.00  0.00    -0.313 A  
HETATM   14  H   UNL     1     -12.054  14.262  67.456  1.00  0.00     0.000 HD 
HETATM   15  C   UNL     1     -10.973  10.492  67.480  1.00  0.00    -0.365 A  
HETATM   16  S   UNL     1     -11.229   9.715  71.305  1.00  0.00    -0.346 SA 
HETATM   17  C   UNL     1     -11.729  11.956  69.738  1.00  0.00    -0.403 A  
HETATM   18  C   UNL     1     -11.700  12.554  68.484  1.00  0.00    -0.324 A  
HETATM   19  O   UNL     1     -12.074  13.854  68.314  1.00  0.00    -0.366 OA 
BRANCH  10  20
HETATM   20  O   UNL     1     -10.558   7.380  68.313  1.00  0.00    -0.202 OA 
BRANCH  20  21
HETATM   21  C   UNL     1      -9.524   7.256  67.417  1.00  0.00    -0.132 A  
HETATM   22  C   UNL     1      -7.527   7.061  65.445  1.00  0.00    -0.088 A  
HETATM   23  C   UNL     1      -8.480   8.081  65.382  1.00  0.00    -0.155 A  
HETATM   24  C   UNL     1      -8.587   6.232  67.471  1.00  0.00    -0.107 A  
HETATM   25  C   UNL     1      -9.473   8.179  66.367  1.00  0.00    -0.285 A  
HETATM   26  C   UNL     1      -7.575   6.160  66.519  1.00  0.00    -0.094 A  
BRANCH  22  27
HETATM   27  O   UNL     1      -6.608   6.994  64.418  1.00  0.00    -0.044 OA 
BRANCH  27  28
HETATM   28  C   UNL     1      -6.768   5.822  63.606  1.00  0.00    -0.037 C  
BRANCH  28  29
HETATM   29  C   UNL     1      -8.146   5.710  62.946  1.00  0.00    -0.109 C  
BRANCH  29  30
HETATM   30  N   UNL     1      -8.465   4.302  62.615  1.00  0.00    -0.085 NA 
HETATM   31  C   UNL     1      -7.604   3.296  63.259  1.00  0.00    -0.063 C  
HETATM   32  C   UNL     1      -7.870   3.097  64.753  1.00  0.00    -0.078 C  
HETATM   33  C   UNL     1      -9.350   2.871  65.046  1.00  0.00    -0.133 C  
HETATM   34  C   UNL     1     -10.228   3.896  64.336  1.00  0.00    -0.239 C  
HETATM   35  C   UNL     1      -9.878   3.986  62.851  1.00  0.00    -0.148 C  
ENDBRANCH  29  30
ENDBRANCH  28  29
ENDBRANCH  27  28
ENDBRANCH  22  27
ENDBRANCH  20  21
ENDBRANCH  10  20
ENDBRANCH   6   9
ENDBRANCH   2   3
TORSDOF 8
ENDMDL
MODEL      148
REMARK 921   NORMALIZED FREE ENERGY PREDICTED BY IDOCK:   -3.64 KCAL/MOL
REMARK 922        TOTAL FREE ENERGY PREDICTED BY IDOCK:   -7.10 KCAL/MOL
REMARK 923 INTER-LIGAND FREE ENERGY PREDICTED BY IDOCK:   -6.47 KCAL/MOL
REMARK 924 INTRA-LIGAND FREE ENERGY PREDICTED BY IDOCK:   -0.63 KCAL/MOL
REMARK 927      BINDING AFFINITY PREDICTED BY RF-SCORE:    0.00 PKD
ROOT
HETATM    1  C   UNL     1      -9.778   4.684  66.040  1.00  0.00    -0.202 C  
HETATM    2  O   UNL     1      -8.990   5.618  65.310  1.00  0.00    -0.130 OA 
ENDROOT
BRANCH   2   3
HETATM    3  C   UNL     1      -9.128   6.934  65.646  1.00  0.00     0.136 A  
HETATM    4  C   UNL     1     -10.106   7.474  66.477  1.00  0.00    -0.194 A  
HETATM    5  C   UNL     1     -10.157   8.857  66.714  1.00  0.00    -0.350 A  
HETATM    6  C   UNL     1      -9.225   9.732  66.137  1.00  0.00    -0.221 A  
HETATM    7  C   UNL     1      -8.186   7.787  65.080  1.00  0.00    -0.135 A  
HETATM    8  C   UNL     1      -8.226   9.169  65.325  1.00  0.00    -0.135 A  
BRANCH   6   9
HETATM    9  C   UNL     1      -9.336  11.200  66.338  1.00  0.00    -0.188 A  
HETATM   10  C   UNL     1      -8.913  12.015  67.383  1.00  0.00    -0.176 A  
HETATM   11  C   UNL     1      -9.330  13.402  67.240  1.00  0.00    -0.233 A  
HETATM   12  C   UNL     1      -9.650  15.803  67.670  1.00  0.00    -0.220 A  
HETATM   13  C   UNL     1      -9.969  13.598  66.013  1.00  0.00    -0.302 A  
HETATM   14  H   UNL     1     -10.477  17.956  66.625  1.00  0.00     0.000 HD 
HETATM   15  C   UNL     1      -9.181  14.547  68.071  1.00  0.00    -0.190 A  
HETATM   16  S   UNL     1     -10.166  12.131  65.158  1.00  0.00    -0.279 SA 
HETATM   17  C   UNL     1     -10.390  14.871  65.572  1.00  0.00    -0.388 A  
HETATM   18  C   UNL     1     -10.217  15.957  66.421  1.00  0.00    -0.301 A  
HETATM   19  O   UNL     1     -10.596  17.213  66.045  1.00  0.00    -0.303 OA 
BRANCH  10  20
HETATM   20  O   UNL     1      -8.106  11.496  68.353  1.00  0.00    -0.136 OA 
BRANCH  20  21
HETATM   21  C   UNL     1      -8.479  10.500  69.221  1.00  0.00    -0.129 A  
HETATM   22  C   UNL     1      -9.347   8.590  71.097  1.00  0.00    -0.196 A  
HETATM   23  C   UNL     1     -10.202   9.619  70.695  1.00  0.00    -0.346 A  
HETATM   24  C   UNL     1      -7.623   9.485  69.633  1.00  0.00    -0.103 A  
HETATM   25  C   UNL     1      -9.769  10.569  69.758  1.00  0.00    -0.010 A  
HETATM   26  C   UNL     1      -8.066   8.518  70.529  1.00  0.00    -0.112 A  
BRANCH  22  27
HETATM   27  O   UNL     1      -9.819   7.719  72.056  1.00  0.00    -0.162 OA 
BRANCH  27  28
HETATM   28  C   UNL     1      -9.536   6.346  71.748  1.00  0.00    -0.153 C  
BRANCH  28  29
HETATM   29  C   UNL     1      -8.523   5.696  72.694  1.00  0.00    -0.120 C  
BRANCH  29  30
HETATM   30  N   UNL     1      -9.176   5.239  73.942  1.00  0.00    -0.125 NA 
HETATM   31  C   UNL     1     -10.623   5.501  74.024  1.00  0.00    -0.249 C  
HETATM   32  C   UNL     1     -11.483   4.597  73.138  1.00  0.00    -0.317 C  
HETATM   33  C   UNL     1     -11.146   3.121  73.330  1.00  0.00    -0.283 C  
HETATM   34  C   UNL     1      -9.642   2.876  73.286  1.00  0.00    -0.134 C  
HETATM   35  C   UNL     1      -8.901   3.827  74.225  1.00  0.00    -0.087 C  
ENDBRANCH  29  30
ENDBRANCH  28  29
ENDBRANCH  27  28
ENDBRANCH  22  27
ENDBRANCH  20  21
ENDBRANCH  10  20
ENDBRANCH   6   9
ENDBRANCH   2   3
TORSDOF 8
ENDMDL
MODEL      149
REMARK 921   NORMALIZED FREE ENERGY PREDICTED BY IDOCK:   -3.60 KCAL/MOL
REMARK 922        TOTAL FREE ENERGY PREDICTED BY IDOCK:   -7.04 KCAL/MOL
REMARK 923 INTER-LIGAND FREE ENERGY PREDICTED BY IDOCK:   -6.05 KCAL/MOL
REMARK 924 INTRA-LIGAND FREE ENERGY PREDICTED BY IDOCK:   -0.99 KCAL/MOL
REMARK 927      BINDING AFFINITY PREDICTED BY RF-SCORE:    0.00 PKD
ROOT
HETATM    1  C   UNL     1     -13.373   7.588  72.391  1.00  0.00     0.265 C  
HETATM    2  O   UNL     1     -12.062   8.142  72.397  1.00  0.00    -0.351 OA 
ENDROOT
BRANCH   2   3
HETATM    3  C   UNL     1     -11.769   9.038  71.410  1.00  0.00    -0.322 A  
HETATM    4  C   UNL     1     -10.827   8.871  70.397  1.00  0.00    -0.269 A  
HETATM    5  C   UNL     1     -10.599   9.892  69.459  1.00  0.00    -0.264 A  
HETATM    6  C   UNL     1     -11.312  11.098  69.504  1.00  0.00    -0.359 A  
HETATM    7  C   UNL     1     -12.497  10.223  71.456  1.00  0.00    -0.524 A  
HETATM    8  C   UNL     1     -12.280  11.240  70.514  1.00  0.00    -0.474 A  
BRANCH   6   9
HETATM    9  C   UNL     1     -11.007  12.196  68.551  1.00  0.00    -0.238 A  
HETATM   10  C   UNL     1      -9.804  12.810  68.217  1.00  0.00    -0.224 A  
HETATM   11  C   UNL     1      -9.962  13.941  67.315  1.00  0.00    -0.242 A  
HETATM   12  C   UNL     1      -9.458  15.868  65.872  1.00  0.00    -0.372 A  
HETATM   13  C   UNL     1     -11.295  14.066  66.914  1.00  0.00    -0.329 A  
HETATM   14  H   UNL     1     -10.476  17.454  64.182  1.00  0.00     0.000 HD 
HETATM   15  C   UNL     1      -9.042  14.878  66.768  1.00  0.00    -0.295 A  
HETATM   16  S   UNL     1     -12.307  12.943  67.714  1.00  0.00     0.549 SA 
HETATM   17  C   UNL     1     -11.714  15.020  65.963  1.00  0.00    -0.094 A  
HETATM   18  C   UNL     1     -10.774  15.909  65.457  1.00  0.00    -0.372 A  
HETATM   19  O   UNL     1     -11.119  16.847  64.528  1.00  0.00    -1.054 OA 
BRANCH  10  20
HETATM   20  O   UNL     1      -8.632  12.271  68.662  1.00  0.00    -0.102 OA 
BRANCH  20  21
HETATM   21  C   UNL     1      -7.812  11.468  67.908  1.00  0.00    -0.123 A  
HETATM   22  C   UNL     1      -6.037   9.982  66.309  1.00  0.00    -0.068 A  
HETATM   23  C   UNL     1      -5.587  11.116  66.990  1.00  0.00    -0.076 A  
HETATM   24  C   UNL     1      -8.263  10.350  67.217  1.00  0.00    -0.121 A  
HETATM   25  C   UNL     1      -6.472  11.854  67.790  1.00  0.00    -0.084 A  
HETATM   26  C   UNL     1      -7.376   9.593  66.460  1.00  0.00    -0.090 A  
BRANCH  22  27
HETATM   27  O   UNL     1      -5.126   9.331  65.503  1.00  0.00    -0.035 OA 
BRANCH  27  28
HETATM   28  C   UNL     1      -5.232   7.902  65.588  1.00  0.00    -0.028 C  
BRANCH  28  29
HETATM   29  C   UNL     1      -5.875   7.255  64.358  1.00  0.00    -0.037 C  
BRANCH  29  30
HETATM   30  N   UNL     1      -5.682   5.786  64.367  1.00  0.00    -0.023 NA 
HETATM   31  C   UNL     1      -6.394   5.067  65.436  1.00  0.00    -0.035 C  
HETATM   32  C   UNL     1      -7.907   4.957  65.228  1.00  0.00    -0.091 C  
HETATM   33  C   UNL     1      -8.256   4.430  63.839  1.00  0.00    -0.099 C  
HETATM   34  C   UNL     1      -7.476   5.157  62.748  1.00  0.00    -0.045 C  
HETATM   35  C   UNL     1      -5.981   5.182  63.064  1.00  0.00    -0.017 C  
ENDBRANCH  29  30
ENDBRANCH  28  29
ENDBRANCH  27  28
ENDBRANCH  22  27
ENDBRANCH  20  21
ENDBRANCH  10  20
ENDBRANCH   6   9
ENDBRANCH   2   3
TORSDOF 8
ENDMDL
MODEL      150
REMARK 921   NORMALIZED FREE ENERGY PREDICTED BY IDOCK:   -3.59 KCAL/MOL
REMARK 922        TOTAL FREE ENERGY PREDICTED BY IDOCK:   -7.02 KCAL/MOL
REMARK 923 INTER-LIGAND FREE ENERGY PREDICTED BY IDOCK:   -5.93 KCAL/MOL
REMARK 924 INTRA-LIGAND FREE ENERGY PREDICTED BY IDOCK:   -1.09 KCAL/MOL
REMARK 927      BINDING AFFINITY PREDICTED BY RF-SCORE:    0.00 PKD
ROOT
HETATM    1  C   UNL     1     -11.620   5.390  73.090  1.00  0.00    -0.136 C  
HETATM    2  O   UNL     1     -10.832   6.570  72.987  1.00  0.00    -0.246 OA 
ENDROOT
BRANCH   2   3
HETATM    3  C   UNL     1     -10.442   6.941  71.732  1.00  0.00    -0.203 A  
HETATM    4  C   UNL     1     -10.904   6.404  70.532  1.00  0.00    -0.335 A  
HETATM    5  C   UNL     1     -10.393   6.855  69.305  1.00  0.00    -0.212 A  
HETATM    6  C   UNL     1      -9.417   7.860  69.244  1.00  0.00    -0.152 A  
HETATM    7  C   UNL     1      -9.487   7.951  71.687  1.00  0.00    -0.194 A  
HETATM    8  C   UNL     1      -8.982   8.412  70.462  1.00  0.00    -0.160 A  
BRANCH   6   9
HETATM    9  C   UNL     1      -8.832   8.274  67.943  1.00  0.00    -0.138 A  
HETATM   10  C   UNL     1      -8.746   9.522  67.334  1.00  0.00    -0.125 A  
HETATM   11  C   UNL     1      -8.195   9.473  65.988  1.00  0.00    -0.115 A  
HETATM   12  C   UNL     1      -7.385  10.153  63.768  1.00  0.00    -0.113 A  
HETATM   13  C   UNL     1      -7.781   8.176  65.675  1.00  0.00    -0.090 A  
HETATM   14  H   UNL     1      -6.167   9.318  61.712  1.00  0.00     0.000 HD 
HETATM   15  C   UNL     1      -7.983  10.467  64.993  1.00  0.00    -0.126 A  
HETATM   16  S   UNL     1      -8.178   7.066  66.914  1.00  0.00    -0.119 SA 
HETATM   17  C   UNL     1      -7.121   7.861  64.468  1.00  0.00    -0.073 A  
HETATM   18  C   UNL     1      -6.934   8.870  63.532  1.00  0.00    -0.089 A  
HETATM   19  O   UNL     1      -6.294   8.627  62.352  1.00  0.00    -0.095 OA 
BRANCH  10  20
HETATM   20  O   UNL     1      -9.077  10.638  68.046  1.00  0.00    -0.142 OA 
BRANCH  20  21
HETATM   21  C   UNL     1      -8.388  11.825  67.993  1.00  0.00    -0.154 A  
HETATM   22  C   UNL     1      -7.069  14.296  67.721  1.00  0.00    -0.177 A  
HETATM   23  C   UNL     1      -8.403  14.163  67.325  1.00  0.00    -0.212 A  
HETATM   24  C   UNL     1      -7.056  11.952  68.371  1.00  0.00    -0.086 A  
HETATM   25  C   UNL     1      -9.060  12.932  67.464  1.00  0.00    -0.191 A  
HETATM   26  C   UNL     1      -6.418  13.184  68.275  1.00  0.00    -0.096 A  
BRANCH  22  27
HETATM   27  O   UNL     1      -6.471  15.521  67.513  1.00  0.00    -0.156 OA 
BRANCH  27  28
HETATM   28  C   UNL     1      -7.348  16.622  67.792  1.00  0.00    -0.148 C  
BRANCH  28  29
HETATM   29  C   UNL     1      -6.690  17.751  68.590  1.00  0.00    -0.230 C  
BRANCH  29  30
HETATM   30  N   UNL     1      -7.409  19.031  68.395  1.00  0.00    -0.282 NA 
HETATM   31  C   UNL     1      -7.145  20.059  69.415  1.00  0.00    -0.151 C  
HETATM   32  C   UNL     1      -5.766  20.716  69.311  1.00  0.00    -0.408 C  
HETATM   33  C   UNL     1      -5.473  21.209  67.898  1.00  0.00    -0.370 C  
HETATM   34  C   UNL     1      -5.794  20.146  66.852  1.00  0.00    -0.191 C  
HETATM   35  C   UNL     1      -7.200  19.583  67.053  1.00  0.00    -0.215 C  
ENDBRANCH  29  30
ENDBRANCH  28  29
ENDBRANCH  27  28
ENDBRANCH  22  27
ENDBRANCH  20  21
ENDBRANCH  10  20
ENDBRANCH   6   9
ENDBRANCH   2   3
TORSDOF 8
ENDMDL
MODEL      151
REMARK 921   NORMALIZED FREE ENERGY PREDICTED BY IDOCK:   -3.53 KCAL/MOL
REMARK 922        TOTAL FREE ENERGY PREDICTED BY IDOCK:   -6.93 KCAL/MOL
REMARK 923 INTER-LIGAND FREE ENERGY PREDICTED BY IDOCK:   -7.27 KCAL/MOL
REMARK 924 INTRA-LIGAND FREE ENERGY PREDICTED BY IDOCK:    0.34 KCAL/MOL
REMARK 927      BINDING AFFINITY PREDICTED BY RF-SCORE:    0.00 PKD
ROOT
HETATM    1  C   UNL     1      -9.761   4.692  66.153  1.00  0.00    -0.203 C  
HETATM    2  O   UNL     1      -8.930   5.585  65.422  1.00  0.00    -0.157 OA 
ENDROOT
BRANCH   2   3
HETATM    3  C   UNL     1      -9.132   6.920  65.627  1.00  0.00     0.136 A  
HETATM    4  C   UNL     1     -10.182   7.495  66.338  1.00  0.00    -0.022 A  
HETATM    5  C   UNL     1     -10.291   8.891  66.446  1.00  0.00    -0.189 A  
HETATM    6  C   UNL     1      -9.349   9.745  65.856  1.00  0.00    -0.260 A  
HETATM    7  C   UNL     1      -8.179   7.754  65.052  1.00  0.00    -0.123 A  
HETATM    8  C   UNL     1      -8.278   9.150  65.167  1.00  0.00    -0.147 A  
BRANCH   6   9
HETATM    9  C   UNL     1      -9.518  11.220  65.915  1.00  0.00    -0.222 A  
HETATM   10  C   UNL     1      -9.304  12.125  66.951  1.00  0.00    -0.203 A  
HETATM   11  C   UNL     1      -9.711  13.484  66.625  1.00  0.00    -0.281 A  
HETATM   12  C   UNL     1     -10.144  15.899  66.797  1.00  0.00    -0.276 A  
HETATM   13  C   UNL     1     -10.123  13.566  65.292  1.00  0.00    -0.257 A  
HETATM   14  H   UNL     1     -10.806  17.940  65.452  1.00  0.00     0.000 HD 
HETATM   15  C   UNL     1      -9.733  14.693  67.374  1.00  0.00    -0.218 A  
HETATM   16  S   UNL     1     -10.138  12.033  64.536  1.00  0.00    -0.244 SA 
HETATM   17  C   UNL     1     -10.479  14.788  64.682  1.00  0.00    -0.174 A  
HETATM   18  C   UNL     1     -10.480  15.941  65.458  1.00  0.00    -0.404 A  
HETATM   19  O   UNL     1     -10.805  17.151  64.921  1.00  0.00    -0.751 OA 
BRANCH  10  20
HETATM   20  O   UNL     1      -8.676  11.706  68.087  1.00  0.00    -0.147 OA 
BRANCH  20  21
HETATM   21  C   UNL     1      -9.255  10.911  69.045  1.00  0.00    -0.115 A  
HETATM   22  C   UNL     1     -10.540   9.435  71.068  1.00  0.00    -0.330 A  
HETATM   23  C   UNL     1     -11.224  10.453  70.397  1.00  0.00    -0.399 A  
HETATM   24  C   UNL     1      -8.569   9.910  69.723  1.00  0.00    -0.219 A  
HETATM   25  C   UNL     1     -10.583  11.186  69.387  1.00  0.00    -0.174 A  
HETATM   26  C   UNL     1      -9.217   9.154  70.694  1.00  0.00    -0.310 A  
BRANCH  22  27
HETATM   27  O   UNL     1     -11.214   8.788  72.082  1.00  0.00    -0.353 OA 
BRANCH  27  28
HETATM   28  C   UNL     1     -11.098   7.359  72.000  1.00  0.00    -0.242 C  
BRANCH  28  29
HETATM   29  C   UNL     1     -10.622   6.702  73.299  1.00  0.00    -0.291 C  
BRANCH  29  30
HETATM   30  N   UNL     1      -9.510   5.758  73.042  1.00  0.00    -0.150 NA 
HETATM   31  C   UNL     1      -9.025   5.725  71.652  1.00  0.00    -0.136 C  
HETATM   32  C   UNL     1      -8.201   6.947  71.238  1.00  0.00    -0.114 C  
HETATM   33  C   UNL     1      -7.088   7.250  72.236  1.00  0.00    -0.067 C  
HETATM   34  C   UNL     1      -7.600   7.237  73.673  1.00  0.00    -0.119 C  
HETATM   35  C   UNL     1      -8.388   5.961  73.965  1.00  0.00    -0.113 C  
ENDBRANCH  29  30
ENDBRANCH  28  29
ENDBRANCH  27  28
ENDBRANCH  22  27
ENDBRANCH  20  21
ENDBRANCH  10  20
ENDBRANCH   6   9
ENDBRANCH   2   3
TORSDOF 8
ENDMDL
MODEL      152
REMARK 921   NORMALIZED FREE ENERGY PREDICTED BY IDOCK:   -3.49 KCAL/MOL
REMARK 922        TOTAL FREE ENERGY PREDICTED BY IDOCK:   -6.88 KCAL/MOL
REMARK 923 INTER-LIGAND FREE ENERGY PREDICTED BY IDOCK:   -5.24 KCAL/MOL
REMARK 924 INTRA-LIGAND FREE ENERGY PREDICTED BY IDOCK:   -1.64 KCAL/MOL
REMARK 927      BINDING AFFINITY PREDICTED BY RF-SCORE:    0.00 PKD
ROOT
HETATM    1  C   UNL     1      -5.803  12.991  68.194  1.00  0.00    -0.093 C  
HETATM    2  O   UNL     1      -5.390  12.476  66.934  1.00  0.00    -0.342 OA 
ENDROOT
BRANCH   2   3
HETATM    3  C   UNL     1      -6.043  11.367  66.479  1.00  0.00    -0.121 A  
HETATM    4  C   UNL     1      -7.352  11.318  66.005  1.00  0.00     0.128 A  
HETATM    5  C   UNL     1      -7.918  10.099  65.597  1.00  0.00    -0.147 A  
HETATM    6  C   UNL     1      -7.187   8.903  65.642  1.00  0.00    -0.085 A  
HETATM    7  C   UNL     1      -5.300  10.192  66.512  1.00  0.00    -0.045 A  
HETATM    8  C   UNL     1      -5.858   8.974  66.094  1.00  0.00    -0.054 A  
BRANCH   6   9
HETATM    9  C   UNL     1      -7.823   7.611  65.278  1.00  0.00    -0.122 A  
HETATM   10  C   UNL     1      -8.283   6.562  66.069  1.00  0.00    -0.127 A  
HETATM   11  C   UNL     1      -8.734   5.412  65.299  1.00  0.00    -0.145 A  
HETATM   12  C   UNL     1      -9.632   3.198  64.714  1.00  0.00    -0.136 A  
HETATM   13  C   UNL     1      -8.694   5.691  63.931  1.00  0.00     0.178 A  
HETATM   14  H   UNL     1     -10.432   1.785  62.772  1.00  0.00     0.000 HD 
HETATM   15  C   UNL     1      -9.217   4.127  65.674  1.00  0.00    -0.149 A  
HETATM   16  S   UNL     1      -8.010   7.225  63.615  1.00  0.00    -0.019 SA 
HETATM   17  C   UNL     1      -9.169   4.785  62.958  1.00  0.00    -0.003 A  
HETATM   18  C   UNL     1      -9.634   3.545  63.378  1.00  0.00    -0.123 A  
HETATM   19  O   UNL     1     -10.114   2.633  62.485  1.00  0.00    -0.092 OA 
BRANCH  10  20
HETATM   20  O   UNL     1      -8.359   6.727  67.421  1.00  0.00    -0.120 OA 
BRANCH  20  21
HETATM   21  C   UNL     1      -9.006   7.769  68.040  1.00  0.00    -0.126 A  
HETATM   22  C   UNL     1     -10.252   9.843  69.475  1.00  0.00    -0.225 A  
HETATM   23  C   UNL     1      -8.971   9.413  69.831  1.00  0.00    -0.215 A  
HETATM   24  C   UNL     1     -10.287   8.185  67.697  1.00  0.00    -0.313 A  
HETATM   25  C   UNL     1      -8.350   8.381  69.113  1.00  0.00    -0.122 A  
HETATM   26  C   UNL     1     -10.885   9.237  68.380  1.00  0.00    -0.125 A  
BRANCH  22  27
HETATM   27  O   UNL     1     -10.823  10.829  70.253  1.00  0.00    -0.199 OA 
BRANCH  27  28
HETATM   28  C   UNL     1     -11.639  11.732  69.493  1.00  0.00    -0.332 C  
BRANCH  28  29
HETATM   29  C   UNL     1     -10.965  13.074  69.196  1.00  0.00    -0.140 C  
BRANCH  29  30
HETATM   30  N   UNL     1     -11.964  14.165  69.109  1.00  0.00    -0.343 NA 
HETATM   31  C   UNL     1     -12.800  14.346  70.308  1.00  0.00    -0.178 C  
HETATM   32  C   UNL     1     -12.076  14.983  71.496  1.00  0.00    -0.403 C  
HETATM   33  C   UNL     1     -11.342  16.260  71.100  1.00  0.00    -0.297 C  
HETATM   34  C   UNL     1     -10.517  16.066  69.832  1.00  0.00    -0.287 C  
HETATM   35  C   UNL     1     -11.356  15.441  68.719  1.00  0.00    -0.320 C  
ENDBRANCH  29  30
ENDBRANCH  28  29
ENDBRANCH  27  28
ENDBRANCH  22  27
ENDBRANCH  20  21
ENDBRANCH  10  20
ENDBRANCH   6   9
ENDBRANCH   2   3
TORSDOF 8
ENDMDL
MODEL      153
REMARK 921   NORMALIZED FREE ENERGY PREDICTED BY IDOCK:   -3.49 KCAL/MOL
REMARK 922        TOTAL FREE ENERGY PREDICTED BY IDOCK:   -6.87 KCAL/MOL
REMARK 923 INTER-LIGAND FREE ENERGY PREDICTED BY IDOCK:   -6.05 KCAL/MOL
REMARK 924 INTRA-LIGAND FREE ENERGY PREDICTED BY IDOCK:   -0.82 KCAL/MOL
REMARK 927      BINDING AFFINITY PREDICTED BY RF-SCORE:    0.00 PKD
ROOT
HETATM    1  C   UNL     1     -11.004   6.487  67.723  1.00  0.00    -0.316 C  
HETATM    2  O   UNL     1     -10.225   7.116  66.712  1.00  0.00    -0.235 OA 
ENDROOT
BRANCH   2   3
HETATM    3  C   UNL     1     -10.126   8.477  66.770  1.00  0.00    -0.299 A  
HETATM    4  C   UNL     1      -9.784   9.325  65.719  1.00  0.00    -0.339 A  
HETATM    5  C   UNL     1      -9.685  10.710  65.923  1.00  0.00    -0.273 A  
HETATM    6  C   UNL     1      -9.935  11.284  67.177  1.00  0.00    -0.219 A  
HETATM    7  C   UNL     1     -10.396   9.033  68.016  1.00  0.00    -0.275 A  
HETATM    8  C   UNL     1     -10.309  10.419  68.221  1.00  0.00    -0.198 A  
BRANCH   6   9
HETATM    9  C   UNL     1      -9.754  12.742  67.396  1.00  0.00    -0.197 A  
HETATM   10  C   UNL     1      -8.605  13.500  67.603  1.00  0.00    -0.185 A  
HETATM   11  C   UNL     1      -8.881  14.899  67.897  1.00  0.00    -0.165 A  
HETATM   12  C   UNL     1      -8.571  17.280  68.428  1.00  0.00    -0.251 A  
HETATM   13  C   UNL     1     -10.249  15.162  67.791  1.00  0.00    -0.236 A  
HETATM   14  H   UNL     1      -9.790  19.493  68.602  1.00  0.00     0.000 HD 
HETATM   15  C   UNL     1      -8.043  16.000  68.227  1.00  0.00    -0.150 A  
HETATM   16  S   UNL     1     -11.148  13.741  67.484  1.00  0.00    -0.286 SA 
HETATM   17  C   UNL     1     -10.784  16.461  67.929  1.00  0.00    -0.332 A  
HETATM   18  C   UNL     1      -9.922  17.503  68.247  1.00  0.00    -0.330 A  
HETATM   19  O   UNL     1     -10.380  18.780  68.384  1.00  0.00    -0.370 OA 
BRANCH  10  20
HETATM   20  O   UNL     1      -7.382  12.923  67.427  1.00  0.00    -0.149 OA 
BRANCH  20  21
HETATM   21  C   UNL     1      -6.973  11.767  68.046  1.00  0.00    -0.076 A  
HETATM   22  C   UNL     1      -6.115   9.320  69.138  1.00  0.00    -0.042 A  
HETATM   23  C   UNL     1      -5.576   9.780  67.933  1.00  0.00    -0.040 A  
HETATM   24  C   UNL     1      -7.521  11.303  69.235  1.00  0.00    -0.040 A  
HETATM   25  C   UNL     1      -6.002  11.001  67.391  1.00  0.00    -0.049 A  
HETATM   26  C   UNL     1      -7.067  10.114  69.796  1.00  0.00    -0.127 A  
BRANCH  22  27
HETATM   27  O   UNL     1      -5.687   8.089  69.590  1.00  0.00    -0.026 OA 
BRANCH  27  28
HETATM   28  C   UNL     1      -6.333   6.997  68.919  1.00  0.00    -0.028 C  
BRANCH  28  29
HETATM   29  C   UNL     1      -7.580   6.479  69.641  1.00  0.00    -0.098 C  
BRANCH  29  30
HETATM   30  N   UNL     1      -7.255   5.318  70.502  1.00  0.00    -0.063 NA 
HETATM   31  C   UNL     1      -7.001   5.638  71.916  1.00  0.00    -0.076 C  
HETATM   32  C   UNL     1      -8.253   5.996  72.721  1.00  0.00    -0.118 C  
HETATM   33  C   UNL     1      -9.359   4.959  72.547  1.00  0.00    -0.155 C  
HETATM   34  C   UNL     1      -9.578   4.608  71.079  1.00  0.00    -0.245 C  
HETATM   35  C   UNL     1      -8.258   4.254  70.395  1.00  0.00    -0.065 C  
ENDBRANCH  29  30
ENDBRANCH  28  29
ENDBRANCH  27  28
ENDBRANCH  22  27
ENDBRANCH  20  21
ENDBRANCH  10  20
ENDBRANCH   6   9
ENDBRANCH   2   3
TORSDOF 8
ENDMDL
MODEL      154
REMARK 921   NORMALIZED FREE ENERGY PREDICTED BY IDOCK:   -3.45 KCAL/MOL
REMARK 922        TOTAL FREE ENERGY PREDICTED BY IDOCK:   -6.81 KCAL/MOL
REMARK 923 INTER-LIGAND FREE ENERGY PREDICTED BY IDOCK:   -5.70 KCAL/MOL
REMARK 924 INTRA-LIGAND FREE ENERGY PREDICTED BY IDOCK:   -1.11 KCAL/MOL
REMARK 927      BINDING AFFINITY PREDICTED BY RF-SCORE:    0.00 PKD
ROOT
HETATM    1  C   UNL     1     -11.495  15.742  70.008  1.00  0.00    -0.356 C  
HETATM    2  O   UNL     1     -12.073  14.921  68.999  1.00  0.00    -0.282 OA 
ENDROOT
BRANCH   2   3
HETATM    3  C   UNL     1     -11.244  14.026  68.386  1.00  0.00    -0.266 A  
HETATM    4  C   UNL     1      -9.868  14.160  68.214  1.00  0.00    -0.235 A  
HETATM    5  C   UNL     1      -9.134  13.176  67.531  1.00  0.00    -0.205 A  
HETATM    6  C   UNL     1      -9.754  12.031  67.014  1.00  0.00    -0.204 A  
HETATM    7  C   UNL     1     -11.870  12.886  67.893  1.00  0.00    -0.388 A  
HETATM    8  C   UNL     1     -11.138  11.895  67.220  1.00  0.00    -0.344 A  
BRANCH   6   9
HETATM    9  C   UNL     1      -8.979  11.036  66.229  1.00  0.00    -0.185 A  
HETATM   10  C   UNL     1      -7.609  10.802  66.146  1.00  0.00    -0.139 A  
HETATM   11  C   UNL     1      -7.253   9.797  65.156  1.00  0.00    -0.122 A  
HETATM   12  C   UNL     1      -5.940   8.273  63.741  1.00  0.00    -0.067 A  
HETATM   13  C   UNL     1      -8.401   9.228  64.600  1.00  0.00    -0.161 A  
HETATM   14  H   UNL     1      -6.138   6.346  62.111  1.00  0.00     0.000 HD 
HETATM   15  C   UNL     1      -6.005   9.292  64.698  1.00  0.00    -0.070 A  
HETATM   16  S   UNL     1      -9.825   9.987  65.165  1.00  0.00    -0.264 SA 
HETATM   17  C   UNL     1      -8.348   8.157  63.682  1.00  0.00     0.007 A  
HETATM   18  C   UNL     1      -7.103   7.698  63.270  1.00  0.00    -0.071 A  
HETATM   19  O   UNL     1      -6.990   6.660  62.392  1.00  0.00    -0.045 OA 
BRANCH  10  20
HETATM   20  O   UNL     1      -6.769  11.429  67.019  1.00  0.00    -0.108 OA 
BRANCH  20  21
HETATM   21  C   UNL     1      -6.495  10.983  68.289  1.00  0.00    -0.057 A  
HETATM   22  C   UNL     1      -6.060   9.926  70.860  1.00  0.00    -0.082 A  
HETATM   23  C   UNL     1      -6.300   9.072  69.780  1.00  0.00    -0.038 A  
HETATM   24  C   UNL     1      -6.273  11.833  69.366  1.00  0.00    -0.103 A  
HETATM   25  C   UNL     1      -6.514   9.600  68.498  1.00  0.00    -0.051 A  
HETATM   26  C   UNL     1      -6.017  11.309  70.628  1.00  0.00    -0.059 A  
BRANCH  22  27
HETATM   27  O   UNL     1      -5.905   9.342  72.100  1.00  0.00    -0.198 OA 
BRANCH  27  28
HETATM   28  C   UNL     1      -6.690   8.151  72.254  1.00  0.00    -0.077 C  
BRANCH  28  29
HETATM   29  C   UNL     1      -7.919   8.331  73.149  1.00  0.00    -0.140 C  
BRANCH  29  30
HETATM   30  N   UNL     1      -8.610   7.040  73.372  1.00  0.00    -0.127 NA 
HETATM   31  C   UNL     1     -10.017   7.147  73.794  1.00  0.00    -0.331 C  
HETATM   32  C   UNL     1     -10.981   7.574  72.685  1.00  0.00    -0.385 C  
HETATM   33  C   UNL     1     -10.814   6.729  71.425  1.00  0.00    -0.269 C  
HETATM   34  C   UNL     1      -9.347   6.593  71.029  1.00  0.00    -0.161 C  
HETATM   35  C   UNL     1      -8.495   6.145  72.216  1.00  0.00    -0.116 C  
ENDBRANCH  29  30
ENDBRANCH  28  29
ENDBRANCH  27  28
ENDBRANCH  22  27
ENDBRANCH  20  21
ENDBRANCH  10  20
ENDBRANCH   6   9
ENDBRANCH   2   3
TORSDOF 8
ENDMDL
MODEL      155
REMARK 921   NORMALIZED FREE ENERGY PREDICTED BY IDOCK:   -3.37 KCAL/MOL
REMARK 922        TOTAL FREE ENERGY PREDICTED BY IDOCK:   -6.69 KCAL/MOL
REMARK 923 INTER-LIGAND FREE ENERGY PREDICTED BY IDOCK:   -5.04 KCAL/MOL
REMARK 924 INTRA-LIGAND FREE ENERGY PREDICTED BY IDOCK:   -1.65 KCAL/MOL
REMARK 927      BINDING AFFINITY PREDICTED BY RF-SCORE:    0.00 PKD
ROOT
HETATM    1  C   UNL     1     -12.182  15.450  64.026  1.00  0.00     0.051 C  
HETATM    2  O   UNL     1     -11.001  15.730  64.768  1.00  0.00    -0.448 OA 
ENDROOT
BRANCH   2   3
HETATM    3  C   UNL     1     -10.478  14.705  65.501  1.00  0.00    -0.356 A  
HETATM    4  C   UNL     1     -11.028  13.434  65.652  1.00  0.00    -0.292 A  
HETATM    5  C   UNL     1     -10.402  12.477  66.467  1.00  0.00    -0.254 A  
HETATM    6  C   UNL     1      -9.206  12.761  67.141  1.00  0.00    -0.219 A  
HETATM    7  C   UNL     1      -9.282  14.995  66.150  1.00  0.00    -0.294 A  
HETATM    8  C   UNL     1      -8.647  14.037  66.956  1.00  0.00    -0.193 A  
BRANCH   6   9
HETATM    9  C   UNL     1      -8.595  11.764  68.057  1.00  0.00    -0.158 A  
HETATM   10  C   UNL     1      -9.025  10.501  68.454  1.00  0.00    -0.141 A  
HETATM   11  C   UNL     1      -8.180   9.896  69.472  1.00  0.00    -0.163 A  
HETATM   12  C   UNL     1      -7.273   8.304  71.113  1.00  0.00    -0.065 A  
HETATM   13  C   UNL     1      -7.065  10.699  69.726  1.00  0.00    -0.139 A  
HETATM   14  H   UNL     1      -5.274   7.841  72.596  1.00  0.00     0.000 HD 
HETATM   15  C   UNL     1      -8.263   8.675  70.197  1.00  0.00    -0.123 A  
HETATM   16  S   UNL     1      -7.135  12.173  68.863  1.00  0.00    -0.068 SA 
HETATM   17  C   UNL     1      -6.030  10.306  70.600  1.00  0.00    -0.106 A  
HETATM   18  C   UNL     1      -6.159   9.101  71.281  1.00  0.00    -0.070 A  
HETATM   19  O   UNL     1      -5.186   8.665  72.131  1.00  0.00    -0.036 OA 
BRANCH  10  20
HETATM   20  O   UNL     1     -10.089   9.927  67.821  1.00  0.00    -0.162 OA 
BRANCH  20  21
HETATM   21  C   UNL     1     -10.175   8.594  67.503  1.00  0.00    -0.245 A  
HETATM   22  C   UNL     1     -10.335   5.913  66.665  1.00  0.00    -0.226 A  
HETATM   23  C   UNL     1      -9.511   6.814  65.984  1.00  0.00     0.024 A  
HETATM   24  C   UNL     1     -11.006   7.702  68.169  1.00  0.00     0.066 A  
HETATM   25  C   UNL     1      -9.430   8.150  66.405  1.00  0.00    -0.285 A  
HETATM   26  C   UNL     1     -11.054   6.368  67.780  1.00  0.00    -0.376 A  
BRANCH  22  27
HETATM   27  O   UNL     1     -10.404   4.628  66.169  1.00  0.00    -0.269 OA 
BRANCH  27  28
HETATM   28  C   UNL     1      -9.141   3.947  66.214  1.00  0.00    -0.148 C  
BRANCH  28  29
HETATM   29  C   UNL     1      -8.711   3.535  67.625  1.00  0.00    -0.109 C  
BRANCH  29  30
HETATM   30  N   UNL     1      -7.245   3.336  67.699  1.00  0.00    -0.054 NA 
HETATM   31  C   UNL     1      -6.438   4.377  67.040  1.00  0.00    -0.042 C  
HETATM   32  C   UNL     1      -6.384   5.709  67.793  1.00  0.00    -0.042 C  
HETATM   33  C   UNL     1      -6.009   5.522  69.260  1.00  0.00    -0.024 C  
HETATM   34  C   UNL     1      -6.825   4.411  69.913  1.00  0.00    -0.041 C  
HETATM   35  C   UNL     1      -6.784   3.133  69.076  1.00  0.00    -0.037 C  
ENDBRANCH  29  30
ENDBRANCH  28  29
ENDBRANCH  27  28
ENDBRANCH  22  27
ENDBRANCH  20  21
ENDBRANCH  10  20
ENDBRANCH   6   9
ENDBRANCH   2   3
TORSDOF 8
ENDMDL
MODEL      156
REMARK 921   NORMALIZED FREE ENERGY PREDICTED BY IDOCK:   -3.34 KCAL/MOL
REMARK 922        TOTAL FREE ENERGY PREDICTED BY IDOCK:   -6.65 KCAL/MOL
REMARK 923 INTER-LIGAND FREE ENERGY PREDICTED BY IDOCK:   -6.68 KCAL/MOL
REMARK 924 INTRA-LIGAND FREE ENERGY PREDICTED BY IDOCK:    0.03 KCAL/MOL
REMARK 927      BINDING AFFINITY PREDICTED BY RF-SCORE:    0.00 PKD
ROOT
HETATM    1  C   UNL     1     -12.346  13.366  63.587  1.00  0.00    -0.351 C  
HETATM    2  O   UNL     1     -11.501  12.307  63.153  1.00  0.00    -0.365 OA 
ENDROOT
BRANCH   2   3
HETATM    3  C   UNL     1     -10.891  11.570  64.127  1.00  0.00    -0.372 A  
HETATM    4  C   UNL     1     -10.017  10.504  63.928  1.00  0.00    -0.348 A  
HETATM    5  C   UNL     1      -9.483   9.805  65.023  1.00  0.00    -0.337 A  
HETATM    6  C   UNL     1      -9.799  10.160  66.342  1.00  0.00    -0.279 A  
HETATM    7  C   UNL     1     -11.200  11.946  65.430  1.00  0.00    -0.351 A  
HETATM    8  C   UNL     1     -10.660  11.257  66.527  1.00  0.00    -0.315 A  
BRANCH   6   9
HETATM    9  C   UNL     1      -9.287   9.366  67.487  1.00  0.00    -0.127 A  
HETATM   10  C   UNL     1      -8.008   9.256  68.025  1.00  0.00    -0.100 A  
HETATM   11  C   UNL     1      -7.909   8.264  69.085  1.00  0.00    -0.106 A  
HETATM   12  C   UNL     1      -7.007   6.830  70.868  1.00  0.00    -0.067 A  
HETATM   13  C   UNL     1      -9.169   7.735  69.380  1.00  0.00    -0.149 A  
HETATM   14  H   UNL     1      -7.671   5.215  72.701  1.00  0.00     0.000 HD 
HETATM   15  C   UNL     1      -6.818   7.782  69.861  1.00  0.00    -0.049 A  
HETATM   16  S   UNL     1     -10.371   8.325  68.318  1.00  0.00    -0.172 SA 
HETATM   17  C   UNL     1      -9.379   6.822  70.436  1.00  0.00    -0.163 A  
HETATM   18  C   UNL     1      -8.280   6.387  71.165  1.00  0.00    -0.122 A  
HETATM   19  O   UNL     1      -8.424   5.512  72.202  1.00  0.00    -0.124 OA 
BRANCH  10  20
HETATM   20  O   UNL     1      -7.029  10.108  67.604  1.00  0.00    -0.083 OA 
BRANCH  20  21
HETATM   21  C   UNL     1      -7.060  11.470  67.773  1.00  0.00    -0.079 A  
HETATM   22  C   UNL     1      -6.932  14.259  68.128  1.00  0.00    -0.129 A  
HETATM   23  C   UNL     1      -5.948  13.598  67.387  1.00  0.00     0.158 A  
HETATM   24  C   UNL     1      -8.030  12.125  68.523  1.00  0.00    -0.119 A  
HETATM   25  C   UNL     1      -6.015  12.209  67.208  1.00  0.00    -0.152 A  
HETATM   26  C   UNL     1      -7.989  13.507  68.663  1.00  0.00    -0.073 A  
BRANCH  22  27
HETATM   27  O   UNL     1      -6.780  15.618  68.304  1.00  0.00    -0.111 OA 
BRANCH  27  28
HETATM   28  C   UNL     1      -8.011  16.276  68.637  1.00  0.00    -0.215 C  
BRANCH  28  29
HETATM   29  C   UNL     1      -8.145  17.678  68.037  1.00  0.00    -0.243 C  
BRANCH  29  30
HETATM   30  N   UNL     1      -9.521  17.917  67.544  1.00  0.00    -0.256 NA 
HETATM   31  C   UNL     1     -10.007  16.947  66.548  1.00  0.00    -0.301 C  
HETATM   32  C   UNL     1     -10.356  15.571  67.120  1.00  0.00    -0.272 C  
HETATM   33  C   UNL     1     -11.277  15.673  68.332  1.00  0.00    -0.352 C  
HETATM   34  C   UNL     1     -10.782  16.713  69.331  1.00  0.00    -0.331 C  
HETATM   35  C   UNL     1     -10.487  18.044  68.640  1.00  0.00    -0.226 C  
ENDBRANCH  29  30
ENDBRANCH  28  29
ENDBRANCH  27  28
ENDBRANCH  22  27
ENDBRANCH  20  21
ENDBRANCH  10  20
ENDBRANCH   6   9
ENDBRANCH   2   3
TORSDOF 8
ENDMDL
MODEL      157
REMARK 921   NORMALIZED FREE ENERGY PREDICTED BY IDOCK:   -3.25 KCAL/MOL
REMARK 922        TOTAL FREE ENERGY PREDICTED BY IDOCK:   -6.51 KCAL/MOL
REMARK 923 INTER-LIGAND FREE ENERGY PREDICTED BY IDOCK:   -5.07 KCAL/MOL
REMARK 924 INTRA-LIGAND FREE ENERGY PREDICTED BY IDOCK:   -1.45 KCAL/MOL
REMARK 927      BINDING AFFINITY PREDICTED BY RF-SCORE:    0.00 PKD
ROOT
HETATM    1  C   UNL     1      -7.118   3.181  74.458  1.00  0.00    -0.046 C  
HETATM    2  O   UNL     1      -8.474   3.531  74.206  1.00  0.00    -0.083 OA 
ENDROOT
BRANCH   2   3
HETATM    3  C   UNL     1      -8.696   4.469  73.240  1.00  0.00    -0.100 A  
HETATM    4  C   UNL     1      -7.798   4.864  72.251  1.00  0.00    -0.099 A  
HETATM    5  C   UNL     1      -8.142   5.871  71.334  1.00  0.00    -0.115 A  
HETATM    6  C   UNL     1      -9.395   6.498  71.375  1.00  0.00    -0.154 A  
HETATM    7  C   UNL     1      -9.950   5.070  73.281  1.00  0.00    -0.182 A  
HETATM    8  C   UNL     1     -10.302   6.068  72.359  1.00  0.00    -0.224 A  
BRANCH   6   9
HETATM    9  C   UNL     1      -9.717   7.612  70.447  1.00  0.00    -0.179 A  
HETATM   10  C   UNL     1     -10.373   7.620  69.219  1.00  0.00    -0.217 A  
HETATM   11  C   UNL     1     -10.374   8.923  68.572  1.00  0.00    -0.229 A  
HETATM   12  C   UNL     1     -10.769  10.724  66.944  1.00  0.00    -0.309 A  
HETATM   13  C   UNL     1      -9.802   9.886  69.407  1.00  0.00    -0.217 A  
HETATM   14  H   UNL     1     -10.587  13.227  66.606  1.00  0.00     0.000 HD 
HETATM   15  C   UNL     1     -10.860   9.378  67.315  1.00  0.00    -0.165 A  
HETATM   16  S   UNL     1      -9.177   9.194  70.840  1.00  0.00    -0.245 SA 
HETATM   17  C   UNL     1      -9.762  11.256  69.069  1.00  0.00    -0.072 A  
HETATM   18  C   UNL     1     -10.254  11.648  67.831  1.00  0.00    -0.189 A  
HETATM   19  O   UNL     1     -10.250  12.959  67.454  1.00  0.00    -0.227 OA 
BRANCH  10  20
HETATM   20  O   UNL     1     -11.008   6.490  68.792  1.00  0.00    -0.282 OA 
BRANCH  20  21
HETATM   21  C   UNL     1     -10.426   5.519  68.015  1.00  0.00    -0.172 A  
HETATM   22  C   UNL     1      -9.385   3.545  66.302  1.00  0.00    -0.166 A  
HETATM   23  C   UNL     1     -10.089   4.631  65.776  1.00  0.00    -0.264 A  
HETATM   24  C   UNL     1      -9.740   4.430  68.539  1.00  0.00    -0.181 A  
HETATM   25  C   UNL     1     -10.606   5.616  66.631  1.00  0.00    -0.361 A  
HETATM   26  C   UNL     1      -9.191   3.477  67.690  1.00  0.00    -0.229 A  
BRANCH  22  27
HETATM   27  O   UNL     1      -8.947   2.589  65.410  1.00  0.00    -0.126 OA 
BRANCH  27  28
HETATM   28  C   UNL     1      -7.592   2.182  65.654  1.00  0.00    -0.071 C  
BRANCH  28  29
HETATM   29  C   UNL     1      -7.385   1.502  67.010  1.00  0.00    -0.054 C  
BRANCH  29  30
HETATM   30  N   UNL     1      -5.962   1.553  67.420  1.00  0.00    -0.019 NA 
HETATM   31  C   UNL     1      -5.192   2.681  66.870  1.00  0.00    -0.008 C  
HETATM   32  C   UNL     1      -5.516   4.038  67.500  1.00  0.00    -0.017 C  
HETATM   33  C   UNL     1      -5.466   3.987  69.024  1.00  0.00    -0.012 C  
HETATM   34  C   UNL     1      -6.232   2.789  69.574  1.00  0.00    -0.028 C  
HETATM   35  C   UNL     1      -5.806   1.496  68.878  1.00  0.00    -0.023 C  
ENDBRANCH  29  30
ENDBRANCH  28  29
ENDBRANCH  27  28
ENDBRANCH  22  27
ENDBRANCH  20  21
ENDBRANCH  10  20
ENDBRANCH   6   9
ENDBRANCH   2   3
TORSDOF 8
ENDMDL
MODEL      158
REMARK 921   NORMALIZED FREE ENERGY PREDICTED BY IDOCK:   -3.17 KCAL/MOL
REMARK 922        TOTAL FREE ENERGY PREDICTED BY IDOCK:   -6.41 KCAL/MOL
REMARK 923 INTER-LIGAND FREE ENERGY PREDICTED BY IDOCK:   -4.65 KCAL/MOL
REMARK 924 INTRA-LIGAND FREE ENERGY PREDICTED BY IDOCK:   -1.75 KCAL/MOL
REMARK 927      BINDING AFFINITY PREDICTED BY RF-SCORE:    0.00 PKD
ROOT
HETATM    1  C   UNL     1      -5.553  19.078  69.443  1.00  0.00    -0.209 C  
HETATM    2  O   UNL     1      -5.276  17.812  70.030  1.00  0.00    -0.183 OA 
ENDROOT
BRANCH   2   3
HETATM    3  C   UNL     1      -5.690  16.710  69.337  1.00  0.00    -0.162 A  
HETATM    4  C   UNL     1      -6.030  16.665  67.987  1.00  0.00    -0.133 A  
HETATM    5  C   UNL     1      -6.475  15.467  67.403  1.00  0.00    -0.143 A  
HETATM    6  C   UNL     1      -6.580  14.285  68.150  1.00  0.00    -0.132 A  
HETATM    7  C   UNL     1      -5.771  15.541  70.086  1.00  0.00    -0.146 A  
HETATM    8  C   UNL     1      -6.204  14.340  69.503  1.00  0.00    -0.122 A  
BRANCH   6   9
HETATM    9  C   UNL     1      -7.122  13.046  67.537  1.00  0.00    -0.154 A  
HETATM   10  C   UNL     1      -8.429  12.661  67.253  1.00  0.00    -0.193 A  
HETATM   11  C   UNL     1      -8.536  11.298  66.756  1.00  0.00    -0.159 A  
HETATM   12  C   UNL     1      -9.468   9.188  65.900  1.00  0.00    -0.326 A  
HETATM   13  C   UNL     1      -7.268  10.739  66.580  1.00  0.00    -0.134 A  
HETATM   14  H   UNL     1      -8.833   6.951  64.900  1.00  0.00     0.000 HD 
HETATM   15  C   UNL     1      -9.647  10.482  66.402  1.00  0.00    -0.220 A  
HETATM   16  S   UNL     1      -6.031  11.784  67.129  1.00  0.00    -0.150 SA 
HETATM   17  C   UNL     1      -7.074   9.459  66.017  1.00  0.00    -0.091 A  
HETATM   18  C   UNL     1      -8.192   8.705  65.684  1.00  0.00    -0.123 A  
HETATM   19  O   UNL     1      -8.067   7.466  65.128  1.00  0.00    -0.123 OA 
BRANCH  10  20
HETATM   20  O   UNL     1      -9.435  13.575  67.367  1.00  0.00    -0.211 OA 
BRANCH  20  21
HETATM   21  C   UNL     1     -10.385  13.565  68.358  1.00  0.00    -0.248 A  
HETATM   22  C   UNL     1     -12.188  13.527  70.519  1.00  0.00    -0.361 A  
HETATM   23  C   UNL     1     -10.943  14.149  70.653  1.00  0.00     0.595 A  
HETATM   24  C   UNL     1     -11.616  12.933  68.231  1.00  0.00    -0.374 A  
HETATM   25  C   UNL     1     -10.046  14.169  69.574  1.00  0.00     0.292 A  
HETATM   26  C   UNL     1     -12.522  12.950  69.285  1.00  0.00     0.249 A  
BRANCH  22  27
HETATM   27  O   UNL     1     -13.000  13.501  71.633  1.00  0.00    -0.350 OA 
BRANCH  27  28
HETATM   28  C   UNL     1     -13.785  12.303  71.720  1.00  0.00     0.228 C  
BRANCH  28  29
HETATM   29  C   UNL     1     -12.975  11.060  72.098  1.00  0.00    -0.139 C  
BRANCH  29  30
HETATM   30  N   UNL     1     -13.043  10.034  71.030  1.00  0.00    -0.377 NA 
HETATM   31  C   UNL     1     -11.742   9.517  70.575  1.00  0.00    -0.222 C  
HETATM   32  C   UNL     1     -11.054   8.571  71.562  1.00  0.00    -0.343 C  
HETATM   33  C   UNL     1     -11.988   7.462  72.037  1.00  0.00    -0.333 C  
HETATM   34  C   UNL     1     -13.345   8.012  72.463  1.00  0.00     0.080 C  
HETATM   35  C   UNL     1     -13.933   8.924  71.387  1.00  0.00    -0.238 C  
ENDBRANCH  29  30
ENDBRANCH  28  29
ENDBRANCH  27  28
ENDBRANCH  22  27
ENDBRANCH  20  21
ENDBRANCH  10  20
ENDBRANCH   6   9
ENDBRANCH   2   3
TORSDOF 8
ENDMDL
MODEL      159
REMARK 921   NORMALIZED FREE ENERGY PREDICTED BY IDOCK:   -2.99 KCAL/MOL
REMARK 922        TOTAL FREE ENERGY PREDICTED BY IDOCK:   -6.14 KCAL/MOL
REMARK 923 INTER-LIGAND FREE ENERGY PREDICTED BY IDOCK:   -5.65 KCAL/MOL
REMARK 924 INTRA-LIGAND FREE ENERGY PREDICTED BY IDOCK:   -0.48 KCAL/MOL
REMARK 927      BINDING AFFINITY PREDICTED BY RF-SCORE:    0.00 PKD
ROOT
HETATM    1  C   UNL     1     -11.645   5.335  73.070  1.00  0.00    -0.217 C  
HETATM    2  O   UNL     1     -10.909   6.545  72.939  1.00  0.00    -0.237 OA 
ENDROOT
BRANCH   2   3
HETATM    3  C   UNL     1     -10.457   6.857  71.689  1.00  0.00    -0.204 A  
HETATM    4  C   UNL     1     -10.812   6.222  70.501  1.00  0.00    -0.348 A  
HETATM    5  C   UNL     1     -10.244   6.622  69.281  1.00  0.00    -0.206 A  
HETATM    6  C   UNL     1      -9.317   7.672  69.215  1.00  0.00    -0.148 A  
HETATM    7  C   UNL     1      -9.552   7.912  71.638  1.00  0.00    -0.206 A  
HETATM    8  C   UNL     1      -8.991   8.322  70.418  1.00  0.00    -0.146 A  
BRANCH   6   9
HETATM    9  C   UNL     1      -8.670   8.034  67.929  1.00  0.00    -0.128 A  
HETATM   10  C   UNL     1      -8.645   9.233  67.222  1.00  0.00    -0.125 A  
HETATM   11  C   UNL     1      -7.987   9.128  65.928  1.00  0.00    -0.106 A  
HETATM   12  C   UNL     1      -7.066   9.703  63.721  1.00  0.00    -0.115 A  
HETATM   13  C   UNL     1      -7.438   7.855  65.759  1.00  0.00    -0.078 A  
HETATM   14  H   UNL     1      -5.620   8.825  61.837  1.00  0.00     0.000 HD 
HETATM   15  C   UNL     1      -7.784  10.056  64.869  1.00  0.00    -0.138 A  
HETATM   16  S   UNL     1      -7.833   6.814  67.056  1.00  0.00    -0.105 SA 
HETATM   17  C   UNL     1      -6.659   7.508  64.634  1.00  0.00    -0.040 A  
HETATM   18  C   UNL     1      -6.487   8.453  63.630  1.00  0.00    -0.076 A  
HETATM   19  O   UNL     1      -5.737   8.178  62.524  1.00  0.00    -0.071 OA 
BRANCH  10  20
HETATM   20  O   UNL     1      -9.126  10.366  67.810  1.00  0.00    -0.131 OA 
BRANCH  20  21
HETATM   21  C   UNL     1      -8.444  11.556  67.877  1.00  0.00    -0.142 A  
HETATM   22  C   UNL     1      -7.111  14.034  67.837  1.00  0.00    -0.160 A  
HETATM   23  C   UNL     1      -8.359  13.897  67.224  1.00  0.00    -0.199 A  
HETATM   24  C   UNL     1      -7.195  11.687  68.472  1.00  0.00    -0.094 A  
HETATM   25  C   UNL     1      -9.024  12.662  67.247  1.00  0.00    -0.194 A  
HETATM   26  C   UNL     1      -6.555  12.922  68.488  1.00  0.00    -0.087 A  
BRANCH  22  27
HETATM   27  O   UNL     1      -6.492  15.262  67.736  1.00  0.00    -0.134 OA 
BRANCH  27  28
HETATM   28  C   UNL     1      -7.399  16.357  67.928  1.00  0.00    -0.133 C  
BRANCH  28  29
HETATM   29  C   UNL     1      -7.702  17.141  66.648  1.00  0.00    -0.265 C  
BRANCH  29  30
HETATM   30  N   UNL     1      -8.871  18.032  66.832  1.00  0.00    -0.251 NA 
HETATM   31  C   UNL     1     -10.062  17.673  66.045  1.00  0.00    -0.254 C  
HETATM   32  C   UNL     1     -10.811  16.439  66.553  1.00  0.00    -0.073 C  
HETATM   33  C   UNL     1     -11.104  16.523  68.048  1.00  0.00    -0.275 C  
HETATM   34  C   UNL     1      -9.870  16.938  68.842  1.00  0.00    -0.267 C  
HETATM   35  C   UNL     1      -9.227  18.190  68.246  1.00  0.00    -0.298 C  
ENDBRANCH  29  30
ENDBRANCH  28  29
ENDBRANCH  27  28
ENDBRANCH  22  27
ENDBRANCH  20  21
ENDBRANCH  10  20
ENDBRANCH   6   9
ENDBRANCH   2   3
TORSDOF 8
ENDMDL
MODEL      160
REMARK 921   NORMALIZED FREE ENERGY PREDICTED BY IDOCK:   -2.86 KCAL/MOL
REMARK 922        TOTAL FREE ENERGY PREDICTED BY IDOCK:   -5.95 KCAL/MOL
REMARK 923 INTER-LIGAND FREE ENERGY PREDICTED BY IDOCK:   -5.41 KCAL/MOL
REMARK 924 INTRA-LIGAND FREE ENERGY PREDICTED BY IDOCK:   -0.54 KCAL/MOL
REMARK 927      BINDING AFFINITY PREDICTED BY RF-SCORE:    0.00 PKD
ROOT
HETATM    1  C   UNL     1      -6.134   8.639  62.733  1.00  0.00    -0.087 C  
HETATM    2  O   UNL     1      -7.548   8.779  62.819  1.00  0.00    -0.106 OA 
ENDROOT
BRANCH   2   3
HETATM    3  C   UNL     1      -8.033   9.472  63.890  1.00  0.00    -0.141 A  
HETATM    4  C   UNL     1      -7.499   9.482  65.176  1.00  0.00    -0.109 A  
HETATM    5  C   UNL     1      -8.119  10.216  66.201  1.00  0.00    -0.123 A  
HETATM    6  C   UNL     1      -9.280  10.965  65.964  1.00  0.00    -0.210 A  
HETATM    7  C   UNL     1      -9.174  10.225  63.635  1.00  0.00    -0.315 A  
HETATM    8  C   UNL     1      -9.790  10.969  64.654  1.00  0.00    -0.338 A  
BRANCH   6   9
HETATM    9  C   UNL     1      -9.966  11.675  67.073  1.00  0.00    -0.204 A  
HETATM   10  C   UNL     1     -10.048  11.386  68.432  1.00  0.00    -0.201 A  
HETATM   11  C   UNL     1     -10.931  12.285  69.162  1.00  0.00    -0.217 A  
HETATM   12  C   UNL     1     -12.196  13.348  70.983  1.00  0.00    -0.312 A  
HETATM   13  C   UNL     1     -11.401  13.298  68.324  1.00  0.00    -0.300 A  
HETATM   14  H   UNL     1     -13.605  15.372  71.558  1.00  0.00     0.000 HD 
HETATM   15  C   UNL     1     -11.354  12.332  70.519  1.00  0.00     0.749 A  
HETATM   16  S   UNL     1     -10.895  13.072  66.706  1.00  0.00    -0.271 SA 
HETATM   17  C   UNL     1     -12.199  14.363  68.795  1.00  0.00    -0.200 A  
HETATM   18  C   UNL     1     -12.581  14.364  70.131  1.00  0.00    -0.286 A  
HETATM   19  O   UNL     1     -13.344  15.371  70.645  1.00  0.00    -0.388 OA 
BRANCH  10  20
HETATM   20  O   UNL     1      -9.263  10.401  68.956  1.00  0.00    -0.169 OA 
BRANCH  20  21
HETATM   21  C   UNL     1      -9.731   9.360  69.719  1.00  0.00    -0.199 A  
HETATM   22  C   UNL     1     -10.519   7.139  71.257  1.00  0.00    -0.205 A  
HETATM   23  C   UNL     1      -9.196   7.589  71.298  1.00  0.00    -0.155 A  
HETATM   24  C   UNL     1     -11.042   8.902  69.666  1.00  0.00    -0.056 A  
HETATM   25  C   UNL     1      -8.805   8.698  70.533  1.00  0.00    -0.182 A  
HETATM   26  C   UNL     1     -11.440   7.831  70.457  1.00  0.00    -0.219 A  
BRANCH  22  27
HETATM   27  O   UNL     1     -10.824   6.015  71.996  1.00  0.00    -0.232 OA 
BRANCH  27  28
HETATM   28  C   UNL     1      -9.677   5.189  72.247  1.00  0.00    -0.163 C  
BRANCH  28  29
HETATM   29  C   UNL     1      -9.416   4.147  71.155  1.00  0.00    -0.163 C  
BRANCH  29  30
HETATM   30  N   UNL     1      -8.329   4.587  70.248  1.00  0.00    -0.073 NA 
HETATM   31  C   UNL     1      -7.382   3.533  69.849  1.00  0.00    -0.041 C  
HETATM   32  C   UNL     1      -7.940   2.528  68.838  1.00  0.00    -0.062 C  
HETATM   33  C   UNL     1      -8.581   3.220  67.639  1.00  0.00    -0.120 C  
HETATM   34  C   UNL     1      -9.525   4.337  68.071  1.00  0.00    -0.212 C  
HETATM   35  C   UNL     1      -8.846   5.279  69.063  1.00  0.00    -0.099 C  
ENDBRANCH  29  30
ENDBRANCH  28  29
ENDBRANCH  27  28
ENDBRANCH  22  27
ENDBRANCH  20  21
ENDBRANCH  10  20
ENDBRANCH   6   9
ENDBRANCH   2   3
TORSDOF 8
ENDMDL
MODEL      161
REMARK 921   NORMALIZED FREE ENERGY PREDICTED BY IDOCK:   -2.76 KCAL/MOL
REMARK 922        TOTAL FREE ENERGY PREDICTED BY IDOCK:   -5.81 KCAL/MOL
REMARK 923 INTER-LIGAND FREE ENERGY PREDICTED BY IDOCK:   -4.66 KCAL/MOL
REMARK 924 INTRA-LIGAND FREE ENERGY PREDICTED BY IDOCK:   -1.15 KCAL/MOL
REMARK 927      BINDING AFFINITY PREDICTED BY RF-SCORE:    0.00 PKD
ROOT
HETATM    1  C   UNL     1     -12.099  15.900  65.633  1.00  0.00     1.145 C  
HETATM    2  O   UNL     1     -12.224  15.054  64.496  1.00  0.00    -0.431 OA 
ENDROOT
BRANCH   2   3
HETATM    3  C   UNL     1     -11.465  13.918  64.489  1.00  0.00    -0.381 A  
HETATM    4  C   UNL     1     -10.075  13.855  64.544  1.00  0.00     0.019 A  
HETATM    5  C   UNL     1      -9.415  12.616  64.495  1.00  0.00     0.392 A  
HETATM    6  C   UNL     1     -10.126  11.412  64.402  1.00  0.00    -0.341 A  
HETATM    7  C   UNL     1     -12.186  12.731  64.415  1.00  0.00    -0.499 A  
HETATM    8  C   UNL     1     -11.530  11.490  64.378  1.00  0.00    -0.236 A  
BRANCH   6   9
HETATM    9  C   UNL     1      -9.412  10.115  64.276  1.00  0.00    -0.305 A  
HETATM   10  C   UNL     1      -8.790   9.317  65.231  1.00  0.00    -0.198 A  
HETATM   11  C   UNL     1      -8.097   8.170  64.663  1.00  0.00    -0.148 A  
HETATM   12  C   UNL     1      -6.767   6.111  64.453  1.00  0.00    -0.042 A  
HETATM   13  C   UNL     1      -8.322   8.093  63.286  1.00  0.00    -0.004 A  
HETATM   14  H   UNL     1      -6.064   4.311  62.818  1.00  0.00     0.000 HD 
HETATM   15  C   UNL     1      -7.295   7.144  65.236  1.00  0.00    -0.080 A  
HETATM   16  S   UNL     1      -9.217   9.432  62.713  1.00  0.00     0.251 SA 
HETATM   17  C   UNL     1      -7.847   7.022  62.499  1.00  0.00    -0.127 A  
HETATM   18  C   UNL     1      -7.073   6.044  63.109  1.00  0.00    -0.051 A  
HETATM   19  O   UNL     1      -6.594   4.981  62.400  1.00  0.00    -0.025 OA 
BRANCH  10  20
HETATM   20  O   UNL     1      -8.954   9.605  66.554  1.00  0.00    -0.142 OA 
BRANCH  20  21
HETATM   21  C   UNL     1      -8.795  10.854  67.102  1.00  0.00    -0.135 A  
HETATM   22  C   UNL     1      -8.301  13.353  68.298  1.00  0.00    -0.160 A  
HETATM   23  C   UNL     1      -7.243  12.597  67.787  1.00  0.00    -0.127 A  
HETATM   24  C   UNL     1      -9.845  11.599  67.625  1.00  0.00    -0.195 A  
HETATM   25  C   UNL     1      -7.490  11.353  67.188  1.00  0.00    -0.138 A  
HETATM   26  C   UNL     1      -9.606  12.851  68.179  1.00  0.00    -0.223 A  
BRANCH  22  27
HETATM   27  O   UNL     1      -7.982  14.544  68.916  1.00  0.00    -0.140 OA 
BRANCH  27  28
HETATM   28  C   UNL     1      -7.663  15.586  67.981  1.00  0.00    -0.127 C  
BRANCH  28  29
HETATM   29  C   UNL     1      -8.868  16.437  67.570  1.00  0.00    -0.179 C  
BRANCH  29  30
HETATM   30  N   UNL     1      -9.300  17.319  68.679  1.00  0.00    -0.267 NA 
HETATM   31  C   UNL     1      -8.334  18.361  69.064  1.00  0.00    -0.054 C  
HETATM   32  C   UNL     1      -8.219  19.519  68.069  1.00  0.00    -0.352 C  
HETATM   33  C   UNL     1      -9.583  20.096  67.704  1.00  0.00    -0.534 C  
HETATM   34  C   UNL     1     -10.583  19.000  67.351  1.00  0.00    -0.559 C  
HETATM   35  C   UNL     1     -10.616  17.917  68.428  1.00  0.00    -0.265 C  
ENDBRANCH  29  30
ENDBRANCH  28  29
ENDBRANCH  27  28
ENDBRANCH  22  27
ENDBRANCH  20  21
ENDBRANCH  10  20
ENDBRANCH   6   9
ENDBRANCH   2   3
TORSDOF 8
ENDMDL
MODEL      162
REMARK 921   NORMALIZED FREE ENERGY PREDICTED BY IDOCK:   -2.74 KCAL/MOL
REMARK 922        TOTAL FREE ENERGY PREDICTED BY IDOCK:   -5.78 KCAL/MOL
REMARK 923 INTER-LIGAND FREE ENERGY PREDICTED BY IDOCK:   -5.92 KCAL/MOL
REMARK 924 INTRA-LIGAND FREE ENERGY PREDICTED BY IDOCK:    0.14 KCAL/MOL
REMARK 927      BINDING AFFINITY PREDICTED BY RF-SCORE:    0.00 PKD
ROOT
HETATM    1  C   UNL     1      -6.640   6.880  71.492  1.00  0.00    -0.049 C  
HETATM    2  O   UNL     1      -6.881   6.366  70.187  1.00  0.00    -0.054 OA 
ENDROOT
BRANCH   2   3
HETATM    3  C   UNL     1      -7.559   7.176  69.323  1.00  0.00    -0.102 A  
HETATM    4  C   UNL     1      -7.341   7.285  67.951  1.00  0.00    -0.097 A  
HETATM    5  C   UNL     1      -8.089   8.188  67.179  1.00  0.00    -0.116 A  
HETATM    6  C   UNL     1      -9.081   8.995  67.754  1.00  0.00    -0.143 A  
HETATM    7  C   UNL     1      -8.552   7.958  69.905  1.00  0.00    -0.139 A  
HETATM    8  C   UNL     1      -9.310   8.853  69.134  1.00  0.00    -0.148 A  
BRANCH   6   9
HETATM    9  C   UNL     1      -9.812   9.997  66.939  1.00  0.00    -0.197 A  
HETATM   10  C   UNL     1     -10.393  11.214  67.287  1.00  0.00    -0.208 A  
HETATM   11  C   UNL     1     -11.126  11.839  66.196  1.00  0.00    -0.358 A  
HETATM   12  C   UNL     1     -12.484  13.430  64.903  1.00  0.00    -0.447 A  
HETATM   13  C   UNL     1     -10.972  11.105  65.018  1.00  0.00    -0.104 A  
HETATM   14  H   UNL     1     -13.287  13.975  62.565  1.00  0.00     0.000 HD 
HETATM   15  C   UNL     1     -11.906  13.025  66.111  1.00  0.00    -0.466 A  
HETATM   16  S   UNL     1     -10.094   9.661  65.279  1.00  0.00     0.295 SA 
HETATM   17  C   UNL     1     -11.497  11.537  63.781  1.00  0.00    -0.380 A  
HETATM   18  C   UNL     1     -12.248  12.705  63.752  1.00  0.00    -0.514 A  
HETATM   19  O   UNL     1     -12.773  13.176  62.584  1.00  0.00     0.027 OA 
BRANCH  10  20
HETATM   20  O   UNL     1     -10.159  11.736  68.526  1.00  0.00    -0.206 OA 
BRANCH  20  21
HETATM   21  C   UNL     1     -10.018  13.076  68.789  1.00  0.00    -0.010 A  
HETATM   22  C   UNL     1      -9.543  15.791  69.359  1.00  0.00    -0.284 A  
HETATM   23  C   UNL     1      -8.575  15.032  68.694  1.00  0.00    -0.174 A  
HETATM   24  C   UNL     1     -10.973  13.827  69.464  1.00  0.00    -0.081 A  
HETATM   25  C   UNL     1      -8.815  13.680  68.408  1.00  0.00    -0.152 A  
HETATM   26  C   UNL     1     -10.755  15.178  69.709  1.00  0.00    -0.288 A  
BRANCH  22  27
HETATM   27  O   UNL     1      -9.223  17.100  69.650  1.00  0.00     0.285 OA 
BRANCH  27  28
HETATM   28  C   UNL     1     -10.169  18.035  69.112  1.00  0.00    -0.148 C  
BRANCH  28  29
HETATM   29  C   UNL     1     -10.917  17.518  67.880  1.00  0.00    -0.129 C  
BRANCH  29  30
HETATM   30  N   UNL     1     -10.593  18.327  66.682  1.00  0.00    -0.342 NA 
HETATM   31  C   UNL     1     -10.058  19.671  66.959  1.00  0.00    -0.412 C  
HETATM   32  C   UNL     1      -8.615  19.686  67.469  1.00  0.00    -0.357 C  
HETATM   33  C   UNL     1      -7.687  18.861  66.584  1.00  0.00    -0.260 C  
HETATM   34  C   UNL     1      -8.277  17.490  66.271  1.00  0.00    -0.275 C  
HETATM   35  C   UNL     1      -9.710  17.612  65.755  1.00  0.00     0.108 C  
ENDBRANCH  29  30
ENDBRANCH  28  29
ENDBRANCH  27  28
ENDBRANCH  22  27
ENDBRANCH  20  21
ENDBRANCH  10  20
ENDBRANCH   6   9
ENDBRANCH   2   3
TORSDOF 8
ENDMDL
MODEL      163
REMARK 921   NORMALIZED FREE ENERGY PREDICTED BY IDOCK:   -2.61 KCAL/MOL
REMARK 922        TOTAL FREE ENERGY PREDICTED BY IDOCK:   -5.58 KCAL/MOL
REMARK 923 INTER-LIGAND FREE ENERGY PREDICTED BY IDOCK:   -4.15 KCAL/MOL
REMARK 924 INTRA-LIGAND FREE ENERGY PREDICTED BY IDOCK:   -1.43 KCAL/MOL
REMARK 927      BINDING AFFINITY PREDICTED BY RF-SCORE:    0.00 PKD
ROOT
HETATM    1  C   UNL     1      -8.242  14.797  67.140  1.00  0.00    -0.211 C  
HETATM    2  O   UNL     1      -7.420  14.059  68.036  1.00  0.00    -0.111 OA 
ENDROOT
BRANCH   2   3
HETATM    3  C   UNL     1      -7.298  12.720  67.797  1.00  0.00    -0.130 A  
HETATM    4  C   UNL     1      -6.321  12.107  67.015  1.00  0.00    -0.096 A  
HETATM    5  C   UNL     1      -6.330  10.716  66.823  1.00  0.00    -0.084 A  
HETATM    6  C   UNL     1      -7.307   9.903  67.415  1.00  0.00    -0.090 A  
HETATM    7  C   UNL     1      -8.263  11.924  68.405  1.00  0.00    -0.160 A  
HETATM    8  C   UNL     1      -8.268  10.532  68.225  1.00  0.00    -0.117 A  
BRANCH   6   9
HETATM    9  C   UNL     1      -7.348   8.443  67.142  1.00  0.00    -0.085 A  
HETATM   10  C   UNL     1      -6.527   7.407  67.578  1.00  0.00    -0.060 A  
HETATM   11  C   UNL     1      -6.846   6.123  66.973  1.00  0.00    -0.066 A  
HETATM   12  C   UNL     1      -6.794   3.731  66.401  1.00  0.00    -0.057 A  
HETATM   13  C   UNL     1      -7.987   6.227  66.173  1.00  0.00    -0.112 A  
HETATM   14  H   UNL     1      -8.066   1.909  65.188  1.00  0.00     0.000 HD 
HETATM   15  C   UNL     1      -6.253   4.834  67.072  1.00  0.00    -0.035 A  
HETATM   16  S   UNL     1      -8.543   7.840  66.066  1.00  0.00    -0.154 SA 
HETATM   17  C   UNL     1      -8.577   5.110  65.544  1.00  0.00    -0.143 A  
HETATM   18  C   UNL     1      -7.960   3.872  65.676  1.00  0.00    -0.093 A  
HETATM   19  O   UNL     1      -8.489   2.756  65.098  1.00  0.00    -0.091 OA 
BRANCH  10  20
HETATM   20  O   UNL     1      -5.604   7.650  68.553  1.00  0.00    -0.025 OA 
BRANCH  20  21
HETATM   21  C   UNL     1      -5.892   7.713  69.894  1.00  0.00    -0.023 A  
HETATM   22  C   UNL     1      -6.603   7.697  72.617  1.00  0.00    -0.062 A  
HETATM   23  C   UNL     1      -6.521   6.497  71.904  1.00  0.00    -0.050 A  
HETATM   24  C   UNL     1      -5.990   8.907  70.599  1.00  0.00    -0.035 A  
HETATM   25  C   UNL     1      -6.163   6.507  70.548  1.00  0.00    -0.039 A  
HETATM   26  C   UNL     1      -6.302   8.895  71.954  1.00  0.00    -0.062 A  
BRANCH  22  27
HETATM   27  O   UNL     1      -7.007   7.619  73.934  1.00  0.00    -0.087 OA 
BRANCH  27  28
HETATM   28  C   UNL     1      -8.426   7.764  74.088  1.00  0.00    -0.251 C  
BRANCH  28  29
HETATM   29  C   UNL     1      -9.206   7.653  72.775  1.00  0.00    -0.173 C  
BRANCH  29  30
HETATM   30  N   UNL     1     -10.324   6.689  72.898  1.00  0.00    -0.201 NA 
HETATM   31  C   UNL     1     -11.667   7.290  72.938  1.00  0.00    -0.015 C  
HETATM   32  C   UNL     1     -12.162   7.827  71.593  1.00  0.00    -0.341 C  
HETATM   33  C   UNL     1     -12.017   6.797  70.478  1.00  0.00    -0.385 C  
HETATM   34  C   UNL     1     -10.634   6.155  70.479  1.00  0.00    -0.312 C  
HETATM   35  C   UNL     1     -10.266   5.643  71.871  1.00  0.00    -0.195 C  
ENDBRANCH  29  30
ENDBRANCH  28  29
ENDBRANCH  27  28
ENDBRANCH  22  27
ENDBRANCH  20  21
ENDBRANCH  10  20
ENDBRANCH   6   9
ENDBRANCH   2   3
TORSDOF 8
ENDMDL
MODEL      164
REMARK 921   NORMALIZED FREE ENERGY PREDICTED BY IDOCK:   -2.60 KCAL/MOL
REMARK 922        TOTAL FREE ENERGY PREDICTED BY IDOCK:   -5.57 KCAL/MOL
REMARK 923 INTER-LIGAND FREE ENERGY PREDICTED BY IDOCK:   -5.54 KCAL/MOL
REMARK 924 INTRA-LIGAND FREE ENERGY PREDICTED BY IDOCK:   -0.03 KCAL/MOL
REMARK 927      BINDING AFFINITY PREDICTED BY RF-SCORE:    0.00 PKD
ROOT
HETATM    1  C   UNL     1     -10.839  16.984  67.339  1.00  0.00    -0.165 C  
HETATM    2  O   UNL     1     -10.874  16.036  66.278  1.00  0.00    -0.274 OA 
ENDROOT
BRANCH   2   3
HETATM    3  C   UNL     1     -10.510  14.757  66.585  1.00  0.00    -0.286 A  
HETATM    4  C   UNL     1      -9.718  13.915  65.808  1.00  0.00    -0.190 A  
HETATM    5  C   UNL     1      -9.446  12.602  66.226  1.00  0.00    -0.207 A  
HETATM    6  C   UNL     1      -9.949  12.102  67.435  1.00  0.00    -0.206 A  
HETATM    7  C   UNL     1     -11.002  14.280  67.796  1.00  0.00    -0.275 A  
HETATM    8  C   UNL     1     -10.723  12.972  68.223  1.00  0.00    -0.261 A  
BRANCH   6   9
HETATM    9  C   UNL     1      -9.716  10.689  67.828  1.00  0.00    -0.161 A  
HETATM   10  C   UNL     1      -8.716  10.108  68.602  1.00  0.00    -0.128 A  
HETATM   11  C   UNL     1      -8.788   8.655  68.645  1.00  0.00    -0.142 A  
HETATM   12  C   UNL     1      -8.288   6.304  69.168  1.00  0.00    -0.120 A  
HETATM   13  C   UNL     1      -9.928   8.201  67.976  1.00  0.00    -0.184 A  
HETATM   14  H   UNL     1      -9.196   3.948  68.977  1.00  0.00     0.000 HD 
HETATM   15  C   UNL     1      -7.964   7.663  69.245  1.00  0.00    -0.126 A  
HETATM   16  S   UNL     1     -10.776   9.481  67.224  1.00  0.00    -0.118 SA 
HETATM   17  C   UNL     1     -10.297   6.839  67.946  1.00  0.00    -0.236 A  
HETATM   18  C   UNL     1      -9.459   5.911  68.552  1.00  0.00    -0.121 A  
HETATM   19  O   UNL     1      -9.770   4.583  68.563  1.00  0.00    -0.157 OA 
BRANCH  10  20
HETATM   20  O   UNL     1      -7.856  10.908  69.296  1.00  0.00    -0.144 OA 
BRANCH  20  21
HETATM   21  C   UNL     1      -7.346  12.092  68.824  1.00  0.00    -0.090 A  
HETATM   22  C   UNL     1      -6.127  14.434  67.850  1.00  0.00    -0.150 A  
HETATM   23  C   UNL     1      -5.683  13.180  67.421  1.00  0.00     0.029 A  
HETATM   24  C   UNL     1      -7.776  13.339  69.263  1.00  0.00     0.414 A  
HETATM   25  C   UNL     1      -6.293  12.014  67.905  1.00  0.00    -0.073 A  
HETATM   26  C   UNL     1      -7.201  14.496  68.750  1.00  0.00    -0.126 A  
BRANCH  22  27
HETATM   27  O   UNL     1      -5.451  15.537  67.372  1.00  0.00    -0.322 OA 
BRANCH  27  28
HETATM   28  C   UNL     1      -6.268  16.716  67.337  1.00  0.00    -0.160 C  
BRANCH  28  29
HETATM   29  C   UNL     1      -5.766  17.844  68.243  1.00  0.00    -0.163 C  
BRANCH  29  30
HETATM   30  N   UNL     1      -5.585  19.100  67.479  1.00  0.00    -0.177 NA 
HETATM   31  C   UNL     1      -5.684  18.964  66.016  1.00  0.00    -0.158 C  
HETATM   32  C   UNL     1      -7.106  18.747  65.494  1.00  0.00    -0.148 C  
HETATM   33  C   UNL     1      -8.083  19.779  66.050  1.00  0.00    -0.334 C  
HETATM   34  C   UNL     1      -7.936  19.938  67.560  1.00  0.00    -0.331 C  
HETATM   35  C   UNL     1      -6.476  20.166  67.949  1.00  0.00    -0.250 C  
ENDBRANCH  29  30
ENDBRANCH  28  29
ENDBRANCH  27  28
ENDBRANCH  22  27
ENDBRANCH  20  21
ENDBRANCH  10  20
ENDBRANCH   6   9
ENDBRANCH   2   3
TORSDOF 8
ENDMDL
MODEL      165
REMARK 921   NORMALIZED FREE ENERGY PREDICTED BY IDOCK:   -2.55 KCAL/MOL
REMARK 922        TOTAL FREE ENERGY PREDICTED BY IDOCK:   -5.50 KCAL/MOL
REMARK 923 INTER-LIGAND FREE ENERGY PREDICTED BY IDOCK:   -3.65 KCAL/MOL
REMARK 924 INTRA-LIGAND FREE ENERGY PREDICTED BY IDOCK:   -1.85 KCAL/MOL
REMARK 927      BINDING AFFINITY PREDICTED BY RF-SCORE:    0.00 PKD
ROOT
HETATM    1  C   UNL     1      -9.896   1.587  71.443  1.00  0.00    -0.131 C  
HETATM    2  O   UNL     1      -8.675   1.592  70.712  1.00  0.00    -0.049 OA 
ENDROOT
BRANCH   2   3
HETATM    3  C   UNL     1      -8.460   2.655  69.882  1.00  0.00    -0.050 A  
HETATM    4  C   UNL     1      -7.523   3.669  70.067  1.00  0.00    -0.045 A  
HETATM    5  C   UNL     1      -7.428   4.728  69.150  1.00  0.00    -0.056 A  
HETATM    6  C   UNL     1      -8.257   4.794  68.021  1.00  0.00    -0.095 A  
HETATM    7  C   UNL     1      -9.278   2.698  68.758  1.00  0.00    -0.228 A  
HETATM    8  C   UNL     1      -9.177   3.749  67.833  1.00  0.00    -0.218 A  
BRANCH   6   9
HETATM    9  C   UNL     1      -8.196   5.958  67.101  1.00  0.00    -0.105 A  
HETATM   10  C   UNL     1      -8.064   7.321  67.355  1.00  0.00    -0.113 A  
HETATM   11  C   UNL     1      -8.169   8.145  66.160  1.00  0.00    -0.117 A  
HETATM   12  C   UNL     1      -8.235  10.098  64.666  1.00  0.00    -0.165 A  
HETATM   13  C   UNL     1      -8.269   7.344  65.019  1.00  0.00    -0.098 A  
HETATM   14  H   UNL     1      -8.258  10.785  62.229  1.00  0.00     0.000 HD 
HETATM   15  C   UNL     1      -8.156   9.552  65.952  1.00  0.00    -0.115 A  
HETATM   16  S   UNL     1      -8.369   5.684  65.414  1.00  0.00    -0.147 SA 
HETATM   17  C   UNL     1      -8.286   7.882  63.714  1.00  0.00    -0.011 A  
HETATM   18  C   UNL     1      -8.267   9.263  63.566  1.00  0.00    -0.173 A  
HETATM   19  O   UNL     1      -8.272   9.840  62.330  1.00  0.00    -0.122 OA 
BRANCH  10  20
HETATM   20  O   UNL     1      -7.768   7.740  68.619  1.00  0.00    -0.112 OA 
BRANCH  20  21
HETATM   21  C   UNL     1      -8.622   8.461  69.417  1.00  0.00    -0.129 A  
HETATM   22  C   UNL     1     -10.517   9.872  70.946  1.00  0.00    -0.122 A  
HETATM   23  C   UNL     1     -10.827   8.610  70.431  1.00  0.00    -0.250 A  
HETATM   24  C   UNL     1      -8.319   9.723  69.914  1.00  0.00    -0.198 A  
HETATM   25  C   UNL     1      -9.881   7.906  69.671  1.00  0.00    -0.179 A  
HETATM   26  C   UNL     1      -9.241  10.401  70.704  1.00  0.00     1.363 A  
BRANCH  22  27
HETATM   27  O   UNL     1     -11.510  10.528  71.642  1.00  0.00     0.145 OA 
BRANCH  27  28
HETATM   28  C   UNL     1     -12.365  11.305  70.790  1.00  0.00    -0.398 C  
BRANCH  28  29
HETATM   29  C   UNL     1     -11.795  12.680  70.432  1.00  0.00    -0.154 C  
BRANCH  29  30
HETATM   30  N   UNL     1     -12.142  13.054  69.041  1.00  0.00    -0.244 NA 
HETATM   31  C   UNL     1     -11.754  14.418  68.644  1.00  0.00    -0.332 C  
HETATM   32  C   UNL     1     -10.253  14.610  68.415  1.00  0.00    -0.235 C  
HETATM   33  C   UNL     1      -9.675  13.546  67.487  1.00  0.00    -0.228 C  
HETATM   34  C   UNL     1     -10.123  12.144  67.887  1.00  0.00    -0.199 C  
HETATM   35  C   UNL     1     -11.639  12.080  68.066  1.00  0.00    -0.342 C  
ENDBRANCH  29  30
ENDBRANCH  28  29
ENDBRANCH  27  28
ENDBRANCH  22  27
ENDBRANCH  20  21
ENDBRANCH  10  20
ENDBRANCH   6   9
ENDBRANCH   2   3
TORSDOF 8
ENDMDL
MODEL      166
REMARK 921   NORMALIZED FREE ENERGY PREDICTED BY IDOCK:   -2.53 KCAL/MOL
REMARK 922        TOTAL FREE ENERGY PREDICTED BY IDOCK:   -5.47 KCAL/MOL
REMARK 923 INTER-LIGAND FREE ENERGY PREDICTED BY IDOCK:   -3.47 KCAL/MOL
REMARK 924 INTRA-LIGAND FREE ENERGY PREDICTED BY IDOCK:   -2.00 KCAL/MOL
REMARK 927      BINDING AFFINITY PREDICTED BY RF-SCORE:    0.00 PKD
ROOT
HETATM    1  C   UNL     1      -8.606  13.052  67.647  1.00  0.00    -0.190 C  
HETATM    2  O   UNL     1      -7.350  12.451  67.944  1.00  0.00    -0.091 OA 
ENDROOT
BRANCH   2   3
HETATM    3  C   UNL     1      -7.175  11.160  67.537  1.00  0.00    -0.101 A  
HETATM    4  C   UNL     1      -6.206  10.699  66.649  1.00  0.00    -0.083 A  
HETATM    5  C   UNL     1      -6.157   9.343  66.287  1.00  0.00    -0.060 A  
HETATM    6  C   UNL     1      -7.066   8.413  66.811  1.00  0.00    -0.074 A  
HETATM    7  C   UNL     1      -8.073  10.246  68.079  1.00  0.00    -0.106 A  
HETATM    8  C   UNL     1      -8.019   8.888  67.728  1.00  0.00    -0.102 A  
BRANCH   6   9
HETATM    9  C   UNL     1      -7.048   6.998  66.361  1.00  0.00    -0.074 A  
HETATM   10  C   UNL     1      -6.232   5.931  66.727  1.00  0.00    -0.030 A  
HETATM   11  C   UNL     1      -6.474   4.725  65.950  1.00  0.00    -0.040 A  
HETATM   12  C   UNL     1      -6.318   2.422  65.099  1.00  0.00    -0.023 A  
HETATM   13  C   UNL     1      -7.559   4.905  65.089  1.00  0.00    -0.078 A  
HETATM   14  H   UNL     1      -7.454   0.740  63.586  1.00  0.00     0.000 HD 
HETATM   15  C   UNL     1      -5.855   3.444  65.935  1.00  0.00    -0.019 A  
HETATM   16  S   UNL     1      -8.149   6.509  65.137  1.00  0.00    -0.125 SA 
HETATM   17  C   UNL     1      -8.074   3.863  64.288  1.00  0.00    -0.090 A  
HETATM   18  C   UNL     1      -7.434   2.630  64.314  1.00  0.00    -0.070 A  
HETATM   19  O   UNL     1      -7.892   1.583  63.568  1.00  0.00    -0.057 OA 
BRANCH  10  20
HETATM   20  O   UNL     1      -5.387   6.069  67.789  1.00  0.00    -0.004 OA 
BRANCH  20  21
HETATM   21  C   UNL     1      -5.749   5.874  69.099  1.00  0.00    -0.012 A  
HETATM   22  C   UNL     1      -6.605   5.333  71.724  1.00  0.00    -0.044 A  
HETATM   23  C   UNL     1      -6.440   4.289  70.809  1.00  0.00    -0.026 A  
HETATM   24  C   UNL     1      -5.929   6.913  70.004  1.00  0.00    -0.024 A  
HETATM   25  C   UNL     1      -6.010   4.560  69.502  1.00  0.00    -0.018 A  
HETATM   26  C   UNL     1      -6.313   6.641  71.313  1.00  0.00    -0.041 A  
BRANCH  22  27
HETATM   27  O   UNL     1      -7.076   5.001  72.977  1.00  0.00    -0.079 OA 
BRANCH  27  28
HETATM   28  C   UNL     1      -8.499   4.815  73.004  1.00  0.00    -0.103 C  
BRANCH  28  29
HETATM   29  C   UNL     1      -9.245   5.597  71.919  1.00  0.00    -0.145 C  
BRANCH  29  30
HETATM   30  N   UNL     1     -10.120   6.633  72.515  1.00  0.00    -0.171 NA 
HETATM   31  C   UNL     1      -9.473   7.931  72.765  1.00  0.00    -0.241 C  
HETATM   32  C   UNL     1      -9.202   8.758  71.505  1.00  0.00    -0.332 C  
HETATM   33  C   UNL     1     -10.443   8.885  70.627  1.00  0.00    -0.271 C  
HETATM   34  C   UNL     1     -11.124   7.537  70.416  1.00  0.00    -0.277 C  
HETATM   35  C   UNL     1     -11.355   6.822  71.746  1.00  0.00    -0.269 C  
ENDBRANCH  29  30
ENDBRANCH  28  29
ENDBRANCH  27  28
ENDBRANCH  22  27
ENDBRANCH  20  21
ENDBRANCH  10  20
ENDBRANCH   6   9
ENDBRANCH   2   3
TORSDOF 8
ENDMDL
MODEL      167
REMARK 921   NORMALIZED FREE ENERGY PREDICTED BY IDOCK:   -2.51 KCAL/MOL
REMARK 922        TOTAL FREE ENERGY PREDICTED BY IDOCK:   -5.43 KCAL/MOL
REMARK 923 INTER-LIGAND FREE ENERGY PREDICTED BY IDOCK:   -5.42 KCAL/MOL
REMARK 924 INTRA-LIGAND FREE ENERGY PREDICTED BY IDOCK:   -0.01 KCAL/MOL
REMARK 927      BINDING AFFINITY PREDICTED BY RF-SCORE:    0.00 PKD
ROOT
HETATM    1  C   UNL     1      -6.171   5.028  65.934  1.00  0.00    -0.034 C  
HETATM    2  O   UNL     1      -7.031   5.749  65.059  1.00  0.00    -0.056 OA 
ENDROOT
BRANCH   2   3
HETATM    3  C   UNL     1      -7.691   6.820  65.592  1.00  0.00    -0.102 A  
HETATM    4  C   UNL     1      -9.071   7.012  65.610  1.00  0.00     0.097 A  
HETATM    5  C   UNL     1      -9.621   8.180  66.162  1.00  0.00    -0.188 A  
HETATM    6  C   UNL     1      -8.809   9.179  66.717  1.00  0.00    -0.143 A  
HETATM    7  C   UNL     1      -6.874   7.794  66.156  1.00  0.00    -0.061 A  
HETATM    8  C   UNL     1      -7.421   8.957  66.718  1.00  0.00    -0.083 A  
BRANCH   6   9
HETATM    9  C   UNL     1      -9.401  10.441  67.229  1.00  0.00    -0.146 A  
HETATM   10  C   UNL     1      -9.816  10.806  68.507  1.00  0.00    -0.177 A  
HETATM   11  C   UNL     1     -10.457  12.111  68.556  1.00  0.00    -0.248 A  
HETATM   12  C   UNL     1     -11.591  14.128  69.391  1.00  0.00    -0.353 A  
HETATM   13  C   UNL     1     -10.400  12.733  67.307  1.00  0.00    -0.232 A  
HETATM   14  H   UNL     1     -12.312  16.465  68.736  1.00  0.00     0.000 HD 
HETATM   15  C   UNL     1     -11.074  12.846  69.606  1.00  0.00     0.028 A  
HETATM   16  S   UNL     1      -9.722  11.710  66.117  1.00  0.00    -0.235 SA 
HETATM   17  C   UNL     1     -10.862  14.050  67.093  1.00  0.00    -0.288 A  
HETATM   18  C   UNL     1     -11.452  14.726  68.154  1.00  0.00    -0.323 A  
HETATM   19  O   UNL     1     -11.908  16.003  68.010  1.00  0.00    -0.126 OA 
BRANCH  10  20
HETATM   20  O   UNL     1      -9.516   9.997  69.564  1.00  0.00    -0.204 OA 
BRANCH  20  21
HETATM   21  C   UNL     1      -9.637   8.629  69.553  1.00  0.00    -0.170 A  
HETATM   22  C   UNL     1     -10.050   5.847  69.630  1.00  0.00    -0.200 A  
HETATM   23  C   UNL     1     -11.138   6.716  69.518  1.00  0.00    -0.378 A  
HETATM   24  C   UNL     1      -8.556   7.766  69.681  1.00  0.00    -0.135 A  
HETATM   25  C   UNL     1     -10.931   8.103  69.477  1.00  0.00    -0.056 A  
HETATM   26  C   UNL     1      -8.757   6.390  69.677  1.00  0.00    -0.138 A  
BRANCH  22  27
HETATM   27  O   UNL     1     -10.328   4.499  69.713  1.00  0.00    -0.116 OA 
BRANCH  27  28
HETATM   28  C   UNL     1      -9.538   3.830  70.707  1.00  0.00    -0.179 C  
BRANCH  28  29
HETATM   29  C   UNL     1      -8.805   4.780  71.658  1.00  0.00    -0.126 C  
BRANCH  29  30
HETATM   30  N   UNL     1      -9.565   4.965  72.916  1.00  0.00    -0.136 NA 
HETATM   31  C   UNL     1      -8.760   4.909  74.148  1.00  0.00    -0.114 C  
HETATM   32  C   UNL     1      -7.885   6.140  74.391  1.00  0.00    -0.095 C  
HETATM   33  C   UNL     1      -8.678   7.438  74.273  1.00  0.00    -0.264 C  
HETATM   34  C   UNL     1      -9.539   7.460  73.014  1.00  0.00    -0.242 C  
HETATM   35  C   UNL     1     -10.376   6.187  72.897  1.00  0.00    -0.198 C  
ENDBRANCH  29  30
ENDBRANCH  28  29
ENDBRANCH  27  28
ENDBRANCH  22  27
ENDBRANCH  20  21
ENDBRANCH  10  20
ENDBRANCH   6   9
ENDBRANCH   2   3
TORSDOF 8
ENDMDL
MODEL      168
REMARK 921   NORMALIZED FREE ENERGY PREDICTED BY IDOCK:   -2.44 KCAL/MOL
REMARK 922        TOTAL FREE ENERGY PREDICTED BY IDOCK:   -5.33 KCAL/MOL
REMARK 923 INTER-LIGAND FREE ENERGY PREDICTED BY IDOCK:   -5.37 KCAL/MOL
REMARK 924 INTRA-LIGAND FREE ENERGY PREDICTED BY IDOCK:    0.04 KCAL/MOL
REMARK 927      BINDING AFFINITY PREDICTED BY RF-SCORE:    0.00 PKD
ROOT
HETATM    1  C   UNL     1      -6.101   8.400  71.587  1.00  0.00    -0.046 C  
HETATM    2  O   UNL     1      -6.086   8.763  70.212  1.00  0.00    -0.030 OA 
ENDROOT
BRANCH   2   3
HETATM    3  C   UNL     1      -6.042  10.098  69.930  1.00  0.00    -0.057 A  
HETATM    4  C   UNL     1      -6.257  11.139  70.830  1.00  0.00     0.191 A  
HETATM    5  C   UNL     1      -6.216  12.476  70.400  1.00  0.00     0.108 A  
HETATM    6  C   UNL     1      -5.948  12.805  69.064  1.00  0.00    -0.084 A  
HETATM    7  C   UNL     1      -5.757  10.410  68.604  1.00  0.00    -0.041 A  
HETATM    8  C   UNL     1      -5.704  11.745  68.173  1.00  0.00    -0.047 A  
BRANCH   6   9
HETATM    9  C   UNL     1      -5.981  14.218  68.608  1.00  0.00    -0.085 A  
HETATM   10  C   UNL     1      -6.564  14.806  67.489  1.00  0.00    -0.096 A  
HETATM   11  C   UNL     1      -6.256  16.222  67.352  1.00  0.00    -0.205 A  
HETATM   12  C   UNL     1      -6.180  18.525  66.493  1.00  0.00    -0.200 A  
HETATM   13  C   UNL     1      -5.528  16.674  68.456  1.00  0.00    -0.117 A  
HETATM   14  H   UNL     1      -5.450  20.880  67.068  1.00  0.00     0.000 HD 
HETATM   15  C   UNL     1      -6.575  17.189  66.360  1.00  0.00    -0.251 A  
HETATM   16  S   UNL     1      -5.132  15.398  69.522  1.00  0.00    -0.093 SA 
HETATM   17  C   UNL     1      -5.180  18.030  68.630  1.00  0.00    -0.155 A  
HETATM   18  C   UNL     1      -5.520  18.936  67.633  1.00  0.00    -0.171 A  
HETATM   19  O   UNL     1      -5.217  20.260  67.751  1.00  0.00    -0.179 OA 
BRANCH  10  20
HETATM   20  O   UNL     1      -7.407  14.069  66.709  1.00  0.00     0.308 OA 
BRANCH  20  21
HETATM   21  C   UNL     1      -8.687  13.723  67.063  1.00  0.00    -0.198 A  
HETATM   22  C   UNL     1     -11.238  12.863  67.883  1.00  0.00    -0.269 A  
HETATM   23  C   UNL     1     -10.138  12.712  68.732  1.00  0.00    -0.057 A  
HETATM   24  C   UNL     1      -9.778  13.859  66.212  1.00  0.00    -0.304 A  
HETATM   25  C   UNL     1      -8.868  13.144  68.323  1.00  0.00    -0.175 A  
HETATM   26  C   UNL     1     -11.045  13.471  66.634  1.00  0.00    -0.309 A  
BRANCH  22  27
HETATM   27  O   UNL     1     -12.448  12.374  68.329  1.00  0.00    -0.003 OA 
BRANCH  27  28
HETATM   28  C   UNL     1     -12.351  11.740  69.613  1.00  0.00    -0.079 C  
BRANCH  28  29
HETATM   29  C   UNL     1     -12.101  12.715  70.767  1.00  0.00    -0.146 C  
BRANCH  29  30
HETATM   30  N   UNL     1     -13.055  13.847  70.724  1.00  0.00    -0.202 NA 
HETATM   31  C   UNL     1     -13.909  13.991  71.915  1.00  0.00    -0.445 C  
HETATM   32  C   UNL     1     -13.188  14.530  73.152  1.00  0.00    -0.484 C  
HETATM   33  C   UNL     1     -12.397  15.798  72.846  1.00  0.00    -0.570 C  
HETATM   34  C   UNL     1     -11.552  15.645  71.587  1.00  0.00    -0.519 C  
HETATM   35  C   UNL     1     -12.390  15.119  70.422  1.00  0.00    -0.363 C  
ENDBRANCH  29  30
ENDBRANCH  28  29
ENDBRANCH  27  28
ENDBRANCH  22  27
ENDBRANCH  20  21
ENDBRANCH  10  20
ENDBRANCH   6   9
ENDBRANCH   2   3
TORSDOF 8
ENDMDL
MODEL      169
REMARK 921   NORMALIZED FREE ENERGY PREDICTED BY IDOCK:   -2.43 KCAL/MOL
REMARK 922        TOTAL FREE ENERGY PREDICTED BY IDOCK:   -5.31 KCAL/MOL
REMARK 923 INTER-LIGAND FREE ENERGY PREDICTED BY IDOCK:   -6.32 KCAL/MOL
REMARK 924 INTRA-LIGAND FREE ENERGY PREDICTED BY IDOCK:    1.00 KCAL/MOL
REMARK 927      BINDING AFFINITY PREDICTED BY RF-SCORE:    0.00 PKD
ROOT
HETATM    1  C   UNL     1      -5.126   5.661  65.964  1.00  0.00    -0.009 C  
HETATM    2  O   UNL     1      -6.276   5.834  66.784  1.00  0.00    -0.028 OA 
ENDROOT
BRANCH   2   3
HETATM    3  C   UNL     1      -6.976   6.995  66.623  1.00  0.00    -0.073 A  
HETATM    4  C   UNL     1      -6.850   8.148  67.394  1.00  0.00    -0.074 A  
HETATM    5  C   UNL     1      -7.660   9.267  67.142  1.00  0.00    -0.091 A  
HETATM    6  C   UNL     1      -8.607   9.266  66.109  1.00  0.00    -0.146 A  
HETATM    7  C   UNL     1      -7.899   6.985  65.582  1.00  0.00    -0.112 A  
HETATM    8  C   UNL     1      -8.703   8.105  65.321  1.00  0.00    -0.093 A  
BRANCH   6   9
HETATM    9  C   UNL     1      -9.508  10.428  65.902  1.00  0.00    -0.189 A  
HETATM   10  C   UNL     1     -10.483  10.988  66.723  1.00  0.00    -0.251 A  
HETATM   11  C   UNL     1     -11.230  12.061  66.084  1.00  0.00    -0.394 A  
HETATM   12  C   UNL     1     -12.845  13.876  65.697  1.00  0.00    -0.467 A  
HETATM   13  C   UNL     1     -10.703  12.342  64.821  1.00  0.00    -0.298 A  
HETATM   14  H   UNL     1     -13.474  15.717  64.077  1.00  0.00     0.000 HD 
HETATM   15  C   UNL     1     -12.329  12.860  66.509  1.00  0.00    -0.088 A  
HETATM   16  S   UNL     1      -9.455  11.254  64.397  1.00  0.00    -0.137 SA 
HETATM   17  C   UNL     1     -11.176  13.405  64.022  1.00  0.00    -0.318 A  
HETATM   18  C   UNL     1     -12.248  14.157  64.485  1.00  0.00    -0.445 A  
HETATM   19  O   UNL     1     -12.741  15.202  63.760  1.00  0.00    -0.722 OA 
BRANCH  10  20
HETATM   20  O   UNL     1     -10.586  10.573  68.018  1.00  0.00    -0.184 OA 
BRANCH  20  21
HETATM   21  C   UNL     1     -10.632   9.257  68.410  1.00  0.00    -0.190 A  
HETATM   22  C   UNL     1     -10.579   6.599  69.332  1.00  0.00    -0.240 A  
HETATM   23  C   UNL     1     -10.294   7.653  70.206  1.00  0.00    -0.214 A  
HETATM   24  C   UNL     1     -10.899   8.209  67.537  1.00  0.00    -0.109 A  
HETATM   25  C   UNL     1     -10.324   8.977  69.745  1.00  0.00    -0.219 A  
HETATM   26  C   UNL     1     -10.913   6.899  68.003  1.00  0.00    -0.241 A  
BRANCH  22  27
HETATM   27  O   UNL     1     -10.485   5.320  69.838  1.00  0.00    -0.297 OA 
BRANCH  27  28
HETATM   28  C   UNL     1      -9.769   4.431  68.968  1.00  0.00    -0.153 C  
BRANCH  28  29
HETATM   29  C   UNL     1      -9.411   3.089  69.614  1.00  0.00    -0.107 C  
BRANCH  29  30
HETATM   30  N   UNL     1      -8.031   3.109  70.153  1.00  0.00    -0.043 NA 
HETATM   31  C   UNL     1      -7.156   4.153  69.595  1.00  0.00    -0.046 C  
HETATM   32  C   UNL     1      -7.463   5.569  70.087  1.00  0.00    -0.070 C  
HETATM   33  C   UNL     1      -7.555   5.638  71.608  1.00  0.00    -0.099 C  
HETATM   34  C   UNL     1      -8.431   4.524  72.171  1.00  0.00    -0.115 C  
HETATM   35  C   UNL     1      -8.012   3.162  71.619  1.00  0.00    -0.057 C  
ENDBRANCH  29  30
ENDBRANCH  28  29
ENDBRANCH  27  28
ENDBRANCH  22  27
ENDBRANCH  20  21
ENDBRANCH  10  20
ENDBRANCH   6   9
ENDBRANCH   2   3
TORSDOF 8
ENDMDL
MODEL      170
REMARK 921   NORMALIZED FREE ENERGY PREDICTED BY IDOCK:   -2.32 KCAL/MOL
REMARK 922        TOTAL FREE ENERGY PREDICTED BY IDOCK:   -5.15 KCAL/MOL
REMARK 923 INTER-LIGAND FREE ENERGY PREDICTED BY IDOCK:   -4.29 KCAL/MOL
REMARK 924 INTRA-LIGAND FREE ENERGY PREDICTED BY IDOCK:   -0.87 KCAL/MOL
REMARK 927      BINDING AFFINITY PREDICTED BY RF-SCORE:    0.00 PKD
ROOT
HETATM    1  C   UNL     1     -10.361  18.436  66.657  1.00  0.00    -0.396 C  
HETATM    2  O   UNL     1      -9.316  17.812  65.919  1.00  0.00    -0.514 OA 
ENDROOT
BRANCH   2   3
HETATM    3  C   UNL     1      -8.747  16.703  66.477  1.00  0.00    -0.282 A  
HETATM    4  C   UNL     1      -7.409  16.554  66.833  1.00  0.00    -0.260 A  
HETATM    5  C   UNL     1      -6.944  15.342  67.370  1.00  0.00    -0.222 A  
HETATM    6  C   UNL     1      -7.806  14.255  67.574  1.00  0.00    -0.209 A  
HETATM    7  C   UNL     1      -9.618  15.640  66.690  1.00  0.00    -0.267 A  
HETATM    8  C   UNL     1      -9.159  14.431  67.237  1.00  0.00    -0.221 A  
BRANCH   6   9
HETATM    9  C   UNL     1      -7.286  12.956  68.072  1.00  0.00    -0.115 A  
HETATM   10  C   UNL     1      -7.137  11.726  67.438  1.00  0.00    -0.126 A  
HETATM   11  C   UNL     1      -6.694  10.665  68.331  1.00  0.00    -0.060 A  
HETATM   12  C   UNL     1      -5.996   8.465  69.181  1.00  0.00    -0.042 A  
HETATM   13  C   UNL     1      -6.418  11.176  69.601  1.00  0.00    -0.128 A  
HETATM   14  H   UNL     1      -5.010   7.291  71.195  1.00  0.00     0.000 HD 
HETATM   15  C   UNL     1      -6.472   9.273  68.142  1.00  0.00    -0.058 A  
HETATM   16  S   UNL     1      -6.816  12.835  69.719  1.00  0.00     0.410 SA 
HETATM   17  C   UNL     1      -5.879  10.384  70.637  1.00  0.00    -0.106 A  
HETATM   18  C   UNL     1      -5.676   9.030  70.399  1.00  0.00    -0.030 A  
HETATM   19  O   UNL     1      -5.149   8.217  71.359  1.00  0.00    -0.029 OA 
BRANCH  10  20
HETATM   20  O   UNL     1      -7.317  11.642  66.088  1.00  0.00     0.115 OA 
BRANCH  20  21
HETATM   21  C   UNL     1      -7.428  10.464  65.392  1.00  0.00    -0.127 A  
HETATM   22  C   UNL     1      -7.788   7.993  64.095  1.00  0.00    -0.141 A  
HETATM   23  C   UNL     1      -8.871   8.630  64.708  1.00  0.00    -0.036 A  
HETATM   24  C   UNL     1      -6.348   9.824  64.797  1.00  0.00    -0.097 A  
HETATM   25  C   UNL     1      -8.691   9.863  65.351  1.00  0.00    -0.175 A  
HETATM   26  C   UNL     1      -6.535   8.623  64.121  1.00  0.00    -0.072 A  
BRANCH  22  27
HETATM   27  O   UNL     1      -8.025   6.761  63.522  1.00  0.00    -0.119 OA 
BRANCH  27  28
HETATM   28  C   UNL     1      -8.612   5.827  64.439  1.00  0.00     0.054 C  
BRANCH  28  29
HETATM   29  C   UNL     1      -7.633   5.294  65.490  1.00  0.00    -0.082 C  
BRANCH  29  30
HETATM   30  N   UNL     1      -8.190   4.110  66.185  1.00  0.00    -0.105 NA 
HETATM   31  C   UNL     1      -7.808   3.979  67.601  1.00  0.00    -0.090 C  
HETATM   32  C   UNL     1      -8.502   4.968  68.540  1.00  0.00    -0.091 C  
HETATM   33  C   UNL     1     -10.015   4.978  68.343  1.00  0.00    -0.202 C  
HETATM   34  C   UNL     1     -10.391   5.071  66.869  1.00  0.00    -0.267 C  
HETATM   35  C   UNL     1      -9.647   4.022  66.043  1.00  0.00    -0.194 C  
ENDBRANCH  29  30
ENDBRANCH  28  29
ENDBRANCH  27  28
ENDBRANCH  22  27
ENDBRANCH  20  21
ENDBRANCH  10  20
ENDBRANCH   6   9
ENDBRANCH   2   3
TORSDOF 8
ENDMDL
MODEL      171
REMARK 921   NORMALIZED FREE ENERGY PREDICTED BY IDOCK:   -2.20 KCAL/MOL
REMARK 922        TOTAL FREE ENERGY PREDICTED BY IDOCK:   -4.98 KCAL/MOL
REMARK 923 INTER-LIGAND FREE ENERGY PREDICTED BY IDOCK:   -4.42 KCAL/MOL
REMARK 924 INTRA-LIGAND FREE ENERGY PREDICTED BY IDOCK:   -0.57 KCAL/MOL
REMARK 927      BINDING AFFINITY PREDICTED BY RF-SCORE:    0.00 PKD
ROOT
HETATM    1  C   UNL     1      -6.238   4.636  74.443  1.00  0.00    -0.051 C  
HETATM    2  O   UNL     1      -5.746   5.928  74.105  1.00  0.00    -0.050 OA 
ENDROOT
BRANCH   2   3
HETATM    3  C   UNL     1      -6.120   6.430  72.892  1.00  0.00    -0.054 A  
HETATM    4  C   UNL     1      -7.358   6.262  72.277  1.00  0.00    -0.092 A  
HETATM    5  C   UNL     1      -7.604   6.807  71.005  1.00  0.00    -0.085 A  
HETATM    6  C   UNL     1      -6.623   7.541  70.324  1.00  0.00    -0.039 A  
HETATM    7  C   UNL     1      -5.144   7.173  72.236  1.00  0.00    -0.036 A  
HETATM    8  C   UNL     1      -5.389   7.728  70.971  1.00  0.00    -0.026 A  
BRANCH   6   9
HETATM    9  C   UNL     1      -6.872   8.047  68.950  1.00  0.00    -0.061 A  
HETATM   10  C   UNL     1      -6.433   9.201  68.306  1.00  0.00    -0.055 A  
HETATM   11  C   UNL     1      -7.011   9.380  66.982  1.00  0.00    -0.085 A  
HETATM   12  C   UNL     1      -7.544  10.319  64.772  1.00  0.00    -0.109 A  
HETATM   13  C   UNL     1      -7.793   8.275  66.635  1.00  0.00    -0.094 A  
HETATM   14  H   UNL     1      -8.706   9.809  62.581  1.00  0.00     0.000 HD 
HETATM   15  C   UNL     1      -6.901  10.413  66.011  1.00  0.00    -0.128 A  
HETATM   16  S   UNL     1      -7.917   7.155  67.921  1.00  0.00    -0.116 SA 
HETATM   17  C   UNL     1      -8.394   8.141  65.365  1.00  0.00    -0.163 A  
HETATM   18  C   UNL     1      -8.252   9.178  64.452  1.00  0.00    -0.158 A  
HETATM   19  O   UNL     1      -8.803   9.100  63.206  1.00  0.00    -0.192 OA 
BRANCH  10  20
HETATM   20  O   UNL     1      -5.476   9.974  68.896  1.00  0.00    -0.036 OA 
BRANCH  20  21
HETATM   21  C   UNL     1      -5.572  11.334  69.062  1.00  0.00    -0.040 A  
HETATM   22  C   UNL     1      -5.912  14.088  69.527  1.00  0.00    -0.102 A  
HETATM   23  C   UNL     1      -6.101  13.171  70.565  1.00  0.00    -0.018 A  
HETATM   24  C   UNL     1      -5.400  12.244  68.026  1.00  0.00    -0.068 A  
HETATM   25  C   UNL     1      -5.928  11.799  70.333  1.00  0.00    -0.123 A  
HETATM   26  C   UNL     1      -5.528  13.607  68.266  1.00  0.00    -0.107 A  
BRANCH  22  27
HETATM   27  O   UNL     1      -6.145  15.417  69.812  1.00  0.00    -0.131 OA 
BRANCH  27  28
HETATM   28  C   UNL     1      -6.310  16.217  68.632  1.00  0.00    -0.124 C  
BRANCH  28  29
HETATM   29  C   UNL     1      -6.880  17.612  68.905  1.00  0.00    -0.243 C  
BRANCH  29  30
HETATM   30  N   UNL     1      -7.519  18.173  67.692  1.00  0.00    -0.216 NA 
HETATM   31  C   UNL     1      -8.462  17.273  67.007  1.00  0.00    -0.219 C  
HETATM   32  C   UNL     1      -9.797  17.083  67.731  1.00  0.00    -0.271 C  
HETATM   33  C   UNL     1     -10.436  18.415  68.112  1.00  0.00    -0.355 C  
HETATM   34  C   UNL     1      -9.434  19.350  68.780  1.00  0.00    -0.464 C  
HETATM   35  C   UNL     1      -8.154  19.469  67.953  1.00  0.00    -0.305 C  
ENDBRANCH  29  30
ENDBRANCH  28  29
ENDBRANCH  27  28
ENDBRANCH  22  27
ENDBRANCH  20  21
ENDBRANCH  10  20
ENDBRANCH   6   9
ENDBRANCH   2   3
TORSDOF 8
ENDMDL
MODEL      172
REMARK 921   NORMALIZED FREE ENERGY PREDICTED BY IDOCK:   -2.17 KCAL/MOL
REMARK 922        TOTAL FREE ENERGY PREDICTED BY IDOCK:   -4.94 KCAL/MOL
REMARK 923 INTER-LIGAND FREE ENERGY PREDICTED BY IDOCK:   -5.67 KCAL/MOL
REMARK 924 INTRA-LIGAND FREE ENERGY PREDICTED BY IDOCK:    0.73 KCAL/MOL
REMARK 927      BINDING AFFINITY PREDICTED BY RF-SCORE:    0.00 PKD
ROOT
HETATM    1  C   UNL     1     -12.178  15.450  64.036  1.00  0.00     0.051 C  
HETATM    2  O   UNL     1     -10.999  15.757  64.771  1.00  0.00    -0.448 OA 
ENDROOT
BRANCH   2   3
HETATM    3  C   UNL     1     -10.470  14.755  65.532  1.00  0.00    -0.359 A  
HETATM    4  C   UNL     1     -11.019  13.489  65.725  1.00  0.00    -0.285 A  
HETATM    5  C   UNL     1     -10.388  12.558  66.565  1.00  0.00    -0.254 A  
HETATM    6  C   UNL     1      -9.188  12.863  67.223  1.00  0.00    -0.208 A  
HETATM    7  C   UNL     1      -9.271  15.065  66.164  1.00  0.00    -0.294 A  
HETATM    8  C   UNL     1      -8.631  14.133  66.995  1.00  0.00    -0.204 A  
BRANCH   6   9
HETATM    9  C   UNL     1      -8.571  11.895  68.166  1.00  0.00    -0.165 A  
HETATM   10  C   UNL     1      -9.004  10.651  68.614  1.00  0.00    -0.170 A  
HETATM   11  C   UNL     1      -8.148  10.075  69.641  1.00  0.00    -0.180 A  
HETATM   12  C   UNL     1      -7.229   8.537  71.325  1.00  0.00    -0.082 A  
HETATM   13  C   UNL     1      -7.025  10.879  69.850  1.00  0.00    -0.090 A  
HETATM   14  H   UNL     1      -5.213   8.112  72.796  1.00  0.00     0.000 HD 
HETATM   15  C   UNL     1      -8.230   8.882  70.411  1.00  0.00    -0.146 A  
HETATM   16  S   UNL     1      -7.097  12.322  68.935  1.00  0.00    -0.054 SA 
HETATM   17  C   UNL     1      -5.980  10.509  70.723  1.00  0.00    -0.073 A  
HETATM   18  C   UNL     1      -6.107   9.331  71.448  1.00  0.00    -0.072 A  
HETATM   19  O   UNL     1      -5.125   8.918  72.300  1.00  0.00    -0.039 OA 
BRANCH  10  20
HETATM   20  O   UNL     1     -10.081  10.062  68.017  1.00  0.00    -0.156 OA 
BRANCH  20  21
HETATM   21  C   UNL     1     -10.185   8.718  67.758  1.00  0.00    -0.228 A  
HETATM   22  C   UNL     1     -10.457   6.009  67.047  1.00  0.00    -0.270 A  
HETATM   23  C   UNL     1     -10.015   6.942  66.105  1.00  0.00     0.168 A  
HETATM   24  C   UNL     1     -10.641   7.793  68.690  1.00  0.00    -0.152 A  
HETATM   25  C   UNL     1      -9.877   8.291  66.462  1.00  0.00    -0.323 A  
HETATM   26  C   UNL     1     -10.736   6.448  68.350  1.00  0.00    -0.349 A  
BRANCH  22  27
HETATM   27  O   UNL     1     -10.616   4.708  66.617  1.00  0.00    -0.184 OA 
BRANCH  27  28
HETATM   28  C   UNL     1      -9.512   4.248  65.824  1.00  0.00    -0.176 C  
BRANCH  28  29
HETATM   29  C   UNL     1      -9.286   2.735  65.898  1.00  0.00    -0.080 C  
BRANCH  29  30
HETATM   30  N   UNL     1      -8.844   2.198  64.590  1.00  0.00    -0.110 NA 
HETATM   31  C   UNL     1      -9.891   1.526  63.803  1.00  0.00    -0.130 C  
HETATM   32  C   UNL     1     -10.913   2.472  63.169  1.00  0.00    -0.230 C  
HETATM   33  C   UNL     1     -10.243   3.605  62.399  1.00  0.00    -0.156 C  
HETATM   34  C   UNL     1      -9.132   4.260  63.213  1.00  0.00    -0.134 C  
HETATM   35  C   UNL     1      -8.170   3.214  63.775  1.00  0.00    -0.086 C  
ENDBRANCH  29  30
ENDBRANCH  28  29
ENDBRANCH  27  28
ENDBRANCH  22  27
ENDBRANCH  20  21
ENDBRANCH  10  20
ENDBRANCH   6   9
ENDBRANCH   2   3
TORSDOF 8
ENDMDL
MODEL      173
REMARK 921   NORMALIZED FREE ENERGY PREDICTED BY IDOCK:   -2.03 KCAL/MOL
REMARK 922        TOTAL FREE ENERGY PREDICTED BY IDOCK:   -4.73 KCAL/MOL
REMARK 923 INTER-LIGAND FREE ENERGY PREDICTED BY IDOCK:   -3.85 KCAL/MOL
REMARK 924 INTRA-LIGAND FREE ENERGY PREDICTED BY IDOCK:   -0.88 KCAL/MOL
REMARK 927      BINDING AFFINITY PREDICTED BY RF-SCORE:    0.00 PKD
ROOT
HETATM    1  C   UNL     1     -12.021  16.507  67.562  1.00  0.00     1.091 C  
HETATM    2  O   UNL     1     -11.292  16.176  68.738  1.00  0.00    -0.346 OA 
ENDROOT
BRANCH   2   3
HETATM    3  C   UNL     1     -11.314  14.867  69.127  1.00  0.00    -0.292 A  
HETATM    4  C   UNL     1     -10.880  13.776  68.376  1.00  0.00    -0.268 A  
HETATM    5  C   UNL     1     -10.990  12.472  68.883  1.00  0.00    -0.272 A  
HETATM    6  C   UNL     1     -11.525  12.225  70.156  1.00  0.00    -0.036 A  
HETATM    7  C   UNL     1     -11.830  14.639  70.398  1.00  0.00    -0.365 A  
HETATM    8  C   UNL     1     -11.931  13.338  70.913  1.00  0.00    -0.090 A  
BRANCH   6   9
HETATM    9  C   UNL     1     -11.704  10.835  70.648  1.00  0.00    -0.342 A  
HETATM   10  C   UNL     1     -10.807   9.776  70.744  1.00  0.00    -0.333 A  
HETATM   11  C   UNL     1     -11.425   8.531  71.176  1.00  0.00    -0.322 A  
HETATM   12  C   UNL     1     -11.740   6.180  71.828  1.00  0.00    -0.312 A  
HETATM   13  C   UNL     1     -12.769   8.737  71.498  1.00  0.00    -0.328 A  
HETATM   14  H   UNL     1     -13.410   4.561  72.826  1.00  0.00     0.000 HD 
HETATM   15  C   UNL     1     -10.923   7.212  71.352  1.00  0.00    -0.258 A  
HETATM   16  S   UNL     1     -13.267  10.336  71.153  1.00  0.00    -0.270 SA 
HETATM   17  C   UNL     1     -13.584   7.720  72.038  1.00  0.00    -0.253 A  
HETATM   18  C   UNL     1     -13.043   6.450  72.194  1.00  0.00     0.222 A  
HETATM   19  O   UNL     1     -13.780   5.429  72.720  1.00  0.00     0.332 OA 
BRANCH  10  20
HETATM   20  O   UNL     1      -9.478  10.002  70.530  1.00  0.00    -0.057 OA 
BRANCH  20  21
HETATM   21  C   UNL     1      -8.526   9.015  70.454  1.00  0.00    -0.182 A  
HETATM   22  C   UNL     1      -6.473   7.090  70.432  1.00  0.00    -0.043 A  
HETATM   23  C   UNL     1      -6.830   7.725  71.625  1.00  0.00    -0.058 A  
HETATM   24  C   UNL     1      -8.161   8.396  69.264  1.00  0.00    -0.115 A  
HETATM   25  C   UNL     1      -7.855   8.682  71.635  1.00  0.00    -0.153 A  
HETATM   26  C   UNL     1      -7.175   7.416  69.262  1.00  0.00    -0.080 A  
BRANCH  22  27
HETATM   27  O   UNL     1      -5.426   6.195  70.485  1.00  0.00    -0.013 OA 
BRANCH  27  28
HETATM   28  C   UNL     1      -5.859   4.829  70.414  1.00  0.00    -0.017 C  
BRANCH  28  29
HETATM   29  C   UNL     1      -7.275   4.601  70.952  1.00  0.00    -0.048 C  
BRANCH  29  30
HETATM   30  N   UNL     1      -7.318   3.432  71.862  1.00  0.00    -0.050 NA 
HETATM   31  C   UNL     1      -7.142   3.743  73.290  1.00  0.00    -0.058 C  
HETATM   32  C   UNL     1      -8.353   4.411  73.947  1.00  0.00    -0.100 C  
HETATM   33  C   UNL     1      -9.646   3.650  73.671  1.00  0.00    -0.135 C  
HETATM   34  C   UNL     1      -9.789   3.299  72.194  1.00  0.00    -0.237 C  
HETATM   35  C   UNL     1      -8.525   2.623  71.664  1.00  0.00    -0.064 C  
ENDBRANCH  29  30
ENDBRANCH  28  29
ENDBRANCH  27  28
ENDBRANCH  22  27
ENDBRANCH  20  21
ENDBRANCH  10  20
ENDBRANCH   6   9
ENDBRANCH   2   3
TORSDOF 8
ENDMDL
MODEL      174
REMARK 921   NORMALIZED FREE ENERGY PREDICTED BY IDOCK:   -1.96 KCAL/MOL
REMARK 922        TOTAL FREE ENERGY PREDICTED BY IDOCK:   -4.63 KCAL/MOL
REMARK 923 INTER-LIGAND FREE ENERGY PREDICTED BY IDOCK:   -4.16 KCAL/MOL
REMARK 924 INTRA-LIGAND FREE ENERGY PREDICTED BY IDOCK:   -0.46 KCAL/MOL
REMARK 927      BINDING AFFINITY PREDICTED BY RF-SCORE:    0.00 PKD
ROOT
HETATM    1  C   UNL     1      -5.209   9.728  70.788  1.00  0.00    -0.048 C  
HETATM    2  O   UNL     1      -5.376  10.103  69.425  1.00  0.00    -0.038 OA 
ENDROOT
BRANCH   2   3
HETATM    3  C   UNL     1      -5.759  11.391  69.185  1.00  0.00    -0.045 A  
HETATM    4  C   UNL     1      -6.294  12.280  70.115  1.00  0.00     0.041 A  
HETATM    5  C   UNL     1      -6.680  13.573  69.726  1.00  0.00     0.084 A  
HETATM    6  C   UNL     1      -6.530  14.014  68.404  1.00  0.00    -0.103 A  
HETATM    7  C   UNL     1      -5.587  11.821  67.873  1.00  0.00    -0.051 A  
HETATM    8  C   UNL     1      -5.961  13.116  67.483  1.00  0.00    -0.092 A  
BRANCH   6   9
HETATM    9  C   UNL     1      -7.011  15.357  67.992  1.00  0.00    -0.133 A  
HETATM   10  C   UNL     1      -7.865  15.749  66.965  1.00  0.00    -0.236 A  
HETATM   11  C   UNL     1      -7.983  17.193  66.829  1.00  0.00    -0.271 A  
HETATM   12  C   UNL     1      -8.657  19.418  66.026  1.00  0.00    -0.196 A  
HETATM   13  C   UNL     1      -7.283  17.840  67.850  1.00  0.00    -0.210 A  
HETATM   14  H   UNL     1      -8.549  21.888  66.571  1.00  0.00     0.000 HD 
HETATM   15  C   UNL     1      -8.677  18.024  65.906  1.00  0.00     0.156 A  
HETATM   16  S   UNL     1      -6.421  16.735  68.829  1.00  0.00    -0.181 SA 
HETATM   17  C   UNL     1      -7.308  19.242  68.017  1.00  0.00    -0.297 A  
HETATM   18  C   UNL     1      -8.005  20.007  67.090  1.00  0.00    -0.316 A  
HETATM   19  O   UNL     1      -8.073  21.364  67.205  1.00  0.00    -0.153 OA 
BRANCH  10  20
HETATM   20  O   UNL     1      -8.556  14.799  66.271  1.00  0.00    -0.054 OA 
BRANCH  20  21
HETATM   21  C   UNL     1      -9.328  13.823  66.851  1.00  0.00    -0.261 A  
HETATM   22  C   UNL     1     -10.834  11.697  67.914  1.00  0.00    -0.210 A  
HETATM   23  C   UNL     1      -9.538  11.473  67.441  1.00  0.00    -0.177 A  
HETATM   24  C   UNL     1     -10.623  14.042  67.306  1.00  0.00    -0.273 A  
HETATM   25  C   UNL     1      -8.787  12.534  66.914  1.00  0.00    -0.203 A  
HETATM   26  C   UNL     1     -11.351  13.000  67.868  1.00  0.00    -0.327 A  
BRANCH  22  27
HETATM   27  O   UNL     1     -11.533  10.600  68.374  1.00  0.00    -0.296 OA 
BRANCH  27  28
HETATM   28  C   UNL     1     -11.470   9.485  67.474  1.00  0.00     1.052 C  
BRANCH  28  29
HETATM   29  C   UNL     1     -10.474   8.402  67.899  1.00  0.00    -0.193 C  
BRANCH  29  30
HETATM   30  N   UNL     1     -10.347   8.345  69.374  1.00  0.00    -0.213 NA 
HETATM   31  C   UNL     1     -10.888   7.128  70.002  1.00  0.00    -0.254 C  
HETATM   32  C   UNL     1     -10.037   5.873  69.791  1.00  0.00    -0.258 C  
HETATM   33  C   UNL     1      -8.572   6.109  70.145  1.00  0.00    -0.133 C  
HETATM   34  C   UNL     1      -8.042   7.396  69.522  1.00  0.00    -0.129 C  
HETATM   35  C   UNL     1      -8.968   8.574  69.819  1.00  0.00    -0.145 C  
ENDBRANCH  29  30
ENDBRANCH  28  29
ENDBRANCH  27  28
ENDBRANCH  22  27
ENDBRANCH  20  21
ENDBRANCH  10  20
ENDBRANCH   6   9
ENDBRANCH   2   3
TORSDOF 8
ENDMDL
MODEL      175
REMARK 921   NORMALIZED FREE ENERGY PREDICTED BY IDOCK:   -1.91 KCAL/MOL
REMARK 922        TOTAL FREE ENERGY PREDICTED BY IDOCK:   -4.56 KCAL/MOL
REMARK 923 INTER-LIGAND FREE ENERGY PREDICTED BY IDOCK:   -3.44 KCAL/MOL
REMARK 924 INTRA-LIGAND FREE ENERGY PREDICTED BY IDOCK:   -1.12 KCAL/MOL
REMARK 927      BINDING AFFINITY PREDICTED BY RF-SCORE:    0.00 PKD
ROOT
HETATM    1  C   UNL     1     -10.319  17.916  66.966  1.00  0.00    -0.362 C  
HETATM    2  O   UNL     1      -9.261  17.348  66.202  1.00  0.00    -0.424 OA 
ENDROOT
BRANCH   2   3
HETATM    3  C   UNL     1      -8.723  16.184  66.667  1.00  0.00    -0.265 A  
HETATM    4  C   UNL     1      -7.425  16.007  67.141  1.00  0.00    -0.253 A  
HETATM    5  C   UNL     1      -6.985  14.741  67.561  1.00  0.00    -0.198 A  
HETATM    6  C   UNL     1      -7.832  13.625  67.530  1.00  0.00    -0.185 A  
HETATM    7  C   UNL     1      -9.581  15.089  66.647  1.00  0.00    -0.281 A  
HETATM    8  C   UNL     1      -9.148  13.825  67.077  1.00  0.00    -0.253 A  
BRANCH   6   9
HETATM    9  C   UNL     1      -7.331  12.279  67.907  1.00  0.00    -0.111 A  
HETATM   10  C   UNL     1      -7.037  11.161  67.131  1.00  0.00    -0.113 A  
HETATM   11  C   UNL     1      -6.679   9.989  67.917  1.00  0.00    -0.067 A  
HETATM   12  C   UNL     1      -6.011   7.704  68.534  1.00  0.00    -0.031 A  
HETATM   13  C   UNL     1      -6.613  10.311  69.275  1.00  0.00    -0.055 A  
HETATM   14  H   UNL     1      -5.273   6.265  70.482  1.00  0.00     0.000 HD 
HETATM   15  C   UNL     1      -6.369   8.647  67.564  1.00  0.00    -0.057 A  
HETATM   16  S   UNL     1      -7.099  11.923  69.571  1.00  0.00     0.237 SA 
HETATM   17  C   UNL     1      -6.192   9.385  70.254  1.00  0.00    -0.056 A  
HETATM   18  C   UNL     1      -5.896   8.088  69.856  1.00  0.00    -0.023 A  
HETATM   19  O   UNL     1      -5.476   7.153  70.755  1.00  0.00    -0.023 OA 
BRANCH  10  20
HETATM   20  O   UNL     1      -7.016  11.276  65.772  1.00  0.00     0.099 OA 
BRANCH  20  21
HETATM   21  C   UNL     1      -7.037  10.214  64.903  1.00  0.00    -0.131 A  
HETATM   22  C   UNL     1      -7.241   7.977  63.207  1.00  0.00    -0.091 A  
HETATM   23  C   UNL     1      -8.393   8.644  63.634  1.00  0.00    -0.115 A  
HETATM   24  C   UNL     1      -5.892   9.541  64.492  1.00  0.00    -0.078 A  
HETATM   25  C   UNL     1      -8.290   9.760  64.477  1.00  0.00    -0.168 A  
HETATM   26  C   UNL     1      -5.991   8.461  63.621  1.00  0.00    -0.072 A  
BRANCH  22  27
HETATM   27  O   UNL     1      -7.418   6.859  62.419  1.00  0.00    -0.065 OA 
BRANCH  27  28
HETATM   28  C   UNL     1      -8.217   5.852  63.056  1.00  0.00    -0.069 C  
BRANCH  28  29
HETATM   29  C   UNL     1      -7.542   4.480  63.126  1.00  0.00    -0.058 C  
BRANCH  29  30
HETATM   30  N   UNL     1      -6.301   4.537  63.932  1.00  0.00    -0.029 NA 
HETATM   31  C   UNL     1      -6.501   4.726  65.379  1.00  0.00    -0.036 C  
HETATM   32  C   UNL     1      -7.027   3.491  66.113  1.00  0.00    -0.062 C  
HETATM   33  C   UNL     1      -6.205   2.245  65.797  1.00  0.00    -0.023 C  
HETATM   34  C   UNL     1      -5.971   2.089  64.298  1.00  0.00    -0.013 C  
HETATM   35  C   UNL     1      -5.430   3.381  63.688  1.00  0.00    -0.009 C  
ENDBRANCH  29  30
ENDBRANCH  28  29
ENDBRANCH  27  28
ENDBRANCH  22  27
ENDBRANCH  20  21
ENDBRANCH  10  20
ENDBRANCH   6   9
ENDBRANCH   2   3
TORSDOF 8
ENDMDL
MODEL      176
REMARK 921   NORMALIZED FREE ENERGY PREDICTED BY IDOCK:   -1.80 KCAL/MOL
REMARK 922        TOTAL FREE ENERGY PREDICTED BY IDOCK:   -4.40 KCAL/MOL
REMARK 923 INTER-LIGAND FREE ENERGY PREDICTED BY IDOCK:   -3.50 KCAL/MOL
REMARK 924 INTRA-LIGAND FREE ENERGY PREDICTED BY IDOCK:   -0.90 KCAL/MOL
REMARK 927      BINDING AFFINITY PREDICTED BY RF-SCORE:    0.00 PKD
ROOT
HETATM    1  C   UNL     1      -6.226  14.417  71.823  1.00  0.00     0.421 C  
HETATM    2  O   UNL     1      -5.382  13.785  70.868  1.00  0.00    -0.123 OA 
ENDROOT
BRANCH   2   3
HETATM    3  C   UNL     1      -5.730  12.523  70.479  1.00  0.00    -0.170 A  
HETATM    4  C   UNL     1      -6.240  11.519  71.299  1.00  0.00     1.196 A  
HETATM    5  C   UNL     1      -6.527  10.247  70.776  1.00  0.00     0.002 A  
HETATM    6  C   UNL     1      -6.323   9.952  69.420  1.00  0.00    -0.045 A  
HETATM    7  C   UNL     1      -5.540  12.250  69.128  1.00  0.00    -0.066 A  
HETATM    8  C   UNL     1      -5.837  10.984  68.599  1.00  0.00    -0.043 A  
BRANCH   6   9
HETATM    9  C   UNL     1      -6.561   8.582  68.897  1.00  0.00    -0.053 A  
HETATM   10  C   UNL     1      -6.986   8.140  67.648  1.00  0.00    -0.078 A  
HETATM   11  C   UNL     1      -7.207   6.703  67.587  1.00  0.00    -0.090 A  
HETATM   12  C   UNL     1      -7.768   4.458  66.753  1.00  0.00    -0.094 A  
HETATM   13  C   UNL     1      -6.828   6.097  68.787  1.00  0.00    -0.066 A  
HETATM   14  H   UNL     1      -7.675   1.997  67.341  1.00  0.00     0.000 HD 
HETATM   15  C   UNL     1      -7.687   5.842  66.562  1.00  0.00    -0.100 A  
HETATM   16  S   UNL     1      -6.361   7.249  69.961  1.00  0.00    -0.028 SA 
HETATM   17  C   UNL     1      -6.845   4.697  68.969  1.00  0.00    -0.050 A  
HETATM   18  C   UNL     1      -7.319   3.901  67.934  1.00  0.00    -0.066 A  
HETATM   19  O   UNL     1      -7.351   2.542  68.049  1.00  0.00    -0.048 OA 
BRANCH  10  20
HETATM   20  O   UNL     1      -7.063   9.028  66.615  1.00  0.00    -0.080 OA 
BRANCH  20  21
HETATM   21  C   UNL     1      -8.212   9.673  66.230  1.00  0.00    -0.116 A  
HETATM   22  C   UNL     1     -10.628  10.983  65.624  1.00  0.00    -0.197 A  
HETATM   23  C   UNL     1      -9.996  11.205  66.851  1.00  0.00    -0.230 A  
HETATM   24  C   UNL     1      -8.849   9.440  65.016  1.00  0.00    -0.234 A  
HETATM   25  C   UNL     1      -8.791  10.553  67.150  1.00  0.00    -0.140 A  
HETATM   26  C   UNL     1     -10.020  10.119  64.701  1.00  0.00    -0.304 A  
BRANCH  22  27
HETATM   27  O   UNL     1     -11.834  11.619  65.414  1.00  0.00    -0.209 OA 
BRANCH  27  28
HETATM   28  C   UNL     1     -11.906  12.261  64.132  1.00  0.00    -0.419 C  
BRANCH  28  29
HETATM   29  C   UNL     1     -11.216  13.627  64.085  1.00  0.00    -0.272 C  
BRANCH  29  30
HETATM   30  N   UNL     1     -12.097  14.688  64.626  1.00  0.00    -0.457 NA 
HETATM   31  C   UNL     1     -12.524  14.497  66.022  1.00  0.00    -0.167 C  
HETATM   32  C   UNL     1     -11.430  14.752  67.061  1.00  0.00    -0.362 C  
HETATM   33  C   UNL     1     -10.737  16.093  66.843  1.00  0.00    -0.247 C  
HETATM   34  C   UNL     1     -10.341  16.292  65.384  1.00  0.00    -0.320 C  
HETATM   35  C   UNL     1     -11.522  16.026  64.452  1.00  0.00    -0.242 C  
ENDBRANCH  29  30
ENDBRANCH  28  29
ENDBRANCH  27  28
ENDBRANCH  22  27
ENDBRANCH  20  21
ENDBRANCH  10  20
ENDBRANCH   6   9
ENDBRANCH   2   3
TORSDOF 8
ENDMDL
MODEL      177
REMARK 921   NORMALIZED FREE ENERGY PREDICTED BY IDOCK:   -1.73 KCAL/MOL
REMARK 922        TOTAL FREE ENERGY PREDICTED BY IDOCK:   -4.30 KCAL/MOL
REMARK 923 INTER-LIGAND FREE ENERGY PREDICTED BY IDOCK:   -3.51 KCAL/MOL
REMARK 924 INTRA-LIGAND FREE ENERGY PREDICTED BY IDOCK:   -0.78 KCAL/MOL
REMARK 927      BINDING AFFINITY PREDICTED BY RF-SCORE:    0.00 PKD
ROOT
HETATM    1  C   UNL     1     -10.283   1.560  69.111  1.00  0.00     0.765 C  
HETATM    2  O   UNL     1      -8.873   1.625  68.931  1.00  0.00    -0.060 OA 
ENDROOT
BRANCH   2   3
HETATM    3  C   UNL     1      -8.371   2.794  68.435  1.00  0.00    -0.065 A  
HETATM    4  C   UNL     1      -7.902   3.873  69.181  1.00  0.00    -0.052 A  
HETATM    5  C   UNL     1      -7.441   5.036  68.543  1.00  0.00    -0.074 A  
HETATM    6  C   UNL     1      -7.425   5.145  67.146  1.00  0.00    -0.087 A  
HETATM    7  C   UNL     1      -8.345   2.881  67.047  1.00  0.00    -0.093 A  
HETATM    8  C   UNL     1      -7.874   4.037  66.405  1.00  0.00    -0.094 A  
BRANCH   6   9
HETATM    9  C   UNL     1      -7.005   6.408  66.487  1.00  0.00    -0.067 A  
HETATM   10  C   UNL     1      -7.024   7.725  66.936  1.00  0.00    -0.073 A  
HETATM   11  C   UNL     1      -6.630   8.689  65.920  1.00  0.00    -0.057 A  
HETATM   12  C   UNL     1      -6.098  10.808  64.789  1.00  0.00     0.112 A  
HETATM   13  C   UNL     1      -6.217   8.034  64.757  1.00  0.00    -0.049 A  
HETATM   14  H   UNL     1      -5.099  11.781  62.676  1.00  0.00     0.000 HD 
HETATM   15  C   UNL     1      -6.561  10.110  65.910  1.00  0.00    -0.105 A  
HETATM   16  S   UNL     1      -6.438   6.342  64.867  1.00  0.00    -0.035 SA 
HETATM   17  C   UNL     1      -5.689   8.725  63.644  1.00  0.00    -0.071 A  
HETATM   18  C   UNL     1      -5.640  10.112  63.688  1.00  0.00    -0.128 A  
HETATM   19  O   UNL     1      -5.132  10.832  62.646  1.00  0.00    -0.133 OA 
BRANCH  10  20
HETATM   20  O   UNL     1      -7.304   7.981  68.247  1.00  0.00    -0.090 OA 
BRANCH  20  21
HETATM   21  C   UNL     1      -8.492   8.499  68.700  1.00  0.00    -0.131 A  
HETATM   22  C   UNL     1     -10.991   9.553  69.448  1.00  0.00    -0.170 A  
HETATM   23  C   UNL     1     -10.907   8.593  68.436  1.00  0.00     0.003 A  
HETATM   24  C   UNL     1      -8.573   9.466  69.695  1.00  0.00    -0.171 A  
HETATM   25  C   UNL     1      -9.661   8.066  68.066  1.00  0.00    -0.184 A  
HETATM   26  C   UNL     1      -9.812   9.957  70.092  1.00  0.00    -0.272 A  
BRANCH  22  27
HETATM   27  O   UNL     1     -12.242  10.064  69.728  1.00  0.00    -0.007 OA 
BRANCH  27  28
HETATM   28  C   UNL     1     -12.368  11.448  69.371  1.00  0.00    -0.118 C  
BRANCH  28  29
HETATM   29  C   UNL     1     -11.877  12.413  70.454  1.00  0.00    -0.161 C  
BRANCH  29  30
HETATM   30  N   UNL     1     -12.904  13.435  70.762  1.00  0.00    -0.204 NA 
HETATM   31  C   UNL     1     -13.297  13.520  72.179  1.00  0.00    -0.500 C  
HETATM   32  C   UNL     1     -12.252  14.167  73.090  1.00  0.00     0.179 C  
HETATM   33  C   UNL     1     -11.763  15.504  72.540  1.00  0.00    -0.569 C  
HETATM   34  C   UNL     1     -11.401  15.407  71.062  1.00  0.00    -0.411 C  
HETATM   35  C   UNL     1     -12.531  14.762  70.260  1.00  0.00    -0.340 C  
ENDBRANCH  29  30
ENDBRANCH  28  29
ENDBRANCH  27  28
ENDBRANCH  22  27
ENDBRANCH  20  21
ENDBRANCH  10  20
ENDBRANCH   6   9
ENDBRANCH   2   3
TORSDOF 8
ENDMDL
MODEL      178
REMARK 921   NORMALIZED FREE ENERGY PREDICTED BY IDOCK:   -1.70 KCAL/MOL
REMARK 922        TOTAL FREE ENERGY PREDICTED BY IDOCK:   -4.25 KCAL/MOL
REMARK 923 INTER-LIGAND FREE ENERGY PREDICTED BY IDOCK:   -3.30 KCAL/MOL
REMARK 924 INTRA-LIGAND FREE ENERGY PREDICTED BY IDOCK:   -0.94 KCAL/MOL
REMARK 927      BINDING AFFINITY PREDICTED BY RF-SCORE:    0.00 PKD
ROOT
HETATM    1  C   UNL     1      -6.814   7.154  62.641  1.00  0.00    -0.053 C  
HETATM    2  O   UNL     1      -7.716   8.126  63.160  1.00  0.00    -0.124 OA 
ENDROOT
BRANCH   2   3
HETATM    3  C   UNL     1      -7.290   8.845  64.239  1.00  0.00    -0.100 A  
HETATM    4  C   UNL     1      -6.479   8.381  65.272  1.00  0.00    -0.055 A  
HETATM    5  C   UNL     1      -6.140   9.220  66.346  1.00  0.00    -0.063 A  
HETATM    6  C   UNL     1      -6.593  10.546  66.408  1.00  0.00    -0.106 A  
HETATM    7  C   UNL     1      -7.732  10.164  64.278  1.00  0.00    -0.131 A  
HETATM    8  C   UNL     1      -7.387  11.009  65.344  1.00  0.00     0.284 A  
BRANCH   6   9
HETATM    9  C   UNL     1      -6.289  11.398  67.586  1.00  0.00    -0.062 A  
HETATM   10  C   UNL     1      -6.199  11.089  68.941  1.00  0.00    -0.042 A  
HETATM   11  C   UNL     1      -5.995  12.255  69.788  1.00  0.00    -0.137 A  
HETATM   12  C   UNL     1      -5.660  13.676  71.767  1.00  0.00    -0.136 A  
HETATM   13  C   UNL     1      -5.829  13.403  69.009  1.00  0.00    -0.079 A  
HETATM   14  H   UNL     1      -5.078  16.029  72.497  1.00  0.00     0.000 HD 
HETATM   15  C   UNL     1      -5.906  12.422  71.197  1.00  0.00     0.317 A  
HETATM   16  S   UNL     1      -6.052  13.081  67.345  1.00  0.00     0.066 SA 
HETATM   17  C   UNL     1      -5.518  14.661  69.570  1.00  0.00    -0.091 A  
HETATM   18  C   UNL     1      -5.438  14.769  70.953  1.00  0.00    -0.145 A  
HETATM   19  O   UNL     1      -5.133  15.956  71.550  1.00  0.00    -0.166 OA 
BRANCH  10  20
HETATM   20  O   UNL     1      -6.212   9.782  69.331  1.00  0.00    -0.043 OA 
BRANCH  20  21
HETATM   21  C   UNL     1      -7.338   9.098  69.717  1.00  0.00    -0.064 A  
HETATM   22  C   UNL     1      -9.621   7.582  70.356  1.00  0.00    -0.168 A  
HETATM   23  C   UNL     1      -8.500   6.963  69.798  1.00  0.00    -0.133 A  
HETATM   24  C   UNL     1      -8.460   9.717  70.257  1.00  0.00    -0.221 A  
HETATM   25  C   UNL     1      -7.361   7.719  69.482  1.00  0.00    -0.088 A  
HETATM   26  C   UNL     1      -9.572   8.961  70.610  1.00  0.00    -0.262 A  
BRANCH  22  27
HETATM   27  O   UNL     1     -10.723   6.788  70.597  1.00  0.00    -0.221 OA 
BRANCH  27  28
HETATM   28  C   UNL     1     -10.481   5.794  71.603  1.00  0.00    -0.231 C  
BRANCH  28  29
HETATM   29  C   UNL     1     -10.820   6.257  73.023  1.00  0.00    -0.259 C  
BRANCH  29  30
HETATM   30  N   UNL     1      -9.842   5.729  74.003  1.00  0.00    -0.176 NA 
HETATM   31  C   UNL     1      -9.057   4.572  73.543  1.00  0.00    -0.106 C  
HETATM   32  C   UNL     1      -7.977   4.907  72.512  1.00  0.00    -0.094 C  
HETATM   33  C   UNL     1      -7.094   6.066  72.964  1.00  0.00    -0.084 C  
HETATM   34  C   UNL     1      -7.923   7.239  73.477  1.00  0.00    -0.133 C  
HETATM   35  C   UNL     1      -8.949   6.777  74.511  1.00  0.00    -0.194 C  
ENDBRANCH  29  30
ENDBRANCH  28  29
ENDBRANCH  27  28
ENDBRANCH  22  27
ENDBRANCH  20  21
ENDBRANCH  10  20
ENDBRANCH   6   9
ENDBRANCH   2   3
TORSDOF 8
ENDMDL
MODEL      179
REMARK 921   NORMALIZED FREE ENERGY PREDICTED BY IDOCK:   -1.53 KCAL/MOL
REMARK 922        TOTAL FREE ENERGY PREDICTED BY IDOCK:   -3.99 KCAL/MOL
REMARK 923 INTER-LIGAND FREE ENERGY PREDICTED BY IDOCK:   -3.11 KCAL/MOL
REMARK 924 INTRA-LIGAND FREE ENERGY PREDICTED BY IDOCK:   -0.88 KCAL/MOL
REMARK 927      BINDING AFFINITY PREDICTED BY RF-SCORE:    0.00 PKD
ROOT
HETATM    1  C   UNL     1     -12.075  16.122  66.801  1.00  0.00     1.552 C  
HETATM    2  O   UNL     1     -11.538  15.959  68.109  1.00  0.00    -0.329 OA 
ENDROOT
BRANCH   2   3
HETATM    3  C   UNL     1     -11.512  14.689  68.609  1.00  0.00    -0.300 A  
HETATM    4  C   UNL     1     -10.845  13.599  68.056  1.00  0.00    -0.261 A  
HETATM    5  C   UNL     1     -10.928  12.332  68.655  1.00  0.00    -0.276 A  
HETATM    6  C   UNL     1     -11.669  12.125  69.827  1.00  0.00    -0.381 A  
HETATM    7  C   UNL     1     -12.237  14.504  69.781  1.00  0.00    -0.360 A  
HETATM    8  C   UNL     1     -12.313  13.241  70.390  1.00  0.00    -0.365 A  
BRANCH   6   9
HETATM    9  C   UNL     1     -11.809  10.766  70.408  1.00  0.00    -0.358 A  
HETATM   10  C   UNL     1     -10.853   9.816  70.756  1.00  0.00    -0.333 A  
HETATM   11  C   UNL     1     -11.425   8.549  71.188  1.00  0.00    -0.322 A  
HETATM   12  C   UNL     1     -11.640   6.235  71.991  1.00  0.00    -0.372 A  
HETATM   13  C   UNL     1     -12.818   8.638  71.252  1.00  0.00    -0.192 A  
HETATM   14  H   UNL     1     -13.312   4.529  72.831  1.00  0.00     0.000 HD 
HETATM   15  C   UNL     1     -10.847   7.307  71.570  1.00  0.00    -0.248 A  
HETATM   16  S   UNL     1     -13.387  10.145  70.679  1.00  0.00     0.178 SA 
HETATM   17  C   UNL     1     -13.623   7.584  71.735  1.00  0.00    -0.397 A  
HETATM   18  C   UNL     1     -13.008   6.393  72.100  1.00  0.00     0.155 A  
HETATM   19  O   UNL     1     -13.733   5.343  72.582  1.00  0.00     0.376 OA 
BRANCH  10  20
HETATM   20  O   UNL     1      -9.533  10.163  70.754  1.00  0.00     0.241 OA 
BRANCH  20  21
HETATM   21  C   UNL     1      -8.511   9.325  70.382  1.00  0.00    -0.206 A  
HETATM   22  C   UNL     1      -6.311   7.682  69.765  1.00  0.00    -0.031 A  
HETATM   23  C   UNL     1      -6.604   7.995  71.095  1.00  0.00    -0.038 A  
HETATM   24  C   UNL     1      -8.210   9.028  69.058  1.00  0.00    -0.119 A  
HETATM   25  C   UNL     1      -7.702   8.812  71.402  1.00  0.00    -0.148 A  
HETATM   26  C   UNL     1      -7.148   8.183  68.756  1.00  0.00    -0.071 A  
BRANCH  22  27
HETATM   27  O   UNL     1      -5.190   6.915  69.531  1.00  0.00    -0.014 OA 
BRANCH  27  28
HETATM   28  C   UNL     1      -5.330   6.061  68.386  1.00  0.00    -0.007 C  
BRANCH  28  29
HETATM   29  C   UNL     1      -6.448   5.024  68.521  1.00  0.00    -0.037 C  
BRANCH  29  30
HETATM   30  N   UNL     1      -7.492   5.227  67.489  1.00  0.00    -0.083 NA 
HETATM   31  C   UNL     1      -7.000   5.267  66.101  1.00  0.00    -0.063 C  
HETATM   32  C   UNL     1      -6.582   3.907  65.537  1.00  0.00    -0.040 C  
HETATM   33  C   UNL     1      -7.659   2.846  65.744  1.00  0.00    -0.073 C  
HETATM   34  C   UNL     1      -8.186   2.850  67.175  1.00  0.00    -0.084 C  
HETATM   35  C   UNL     1      -8.586   4.258  67.611  1.00  0.00    -0.103 C  
ENDBRANCH  29  30
ENDBRANCH  28  29
ENDBRANCH  27  28
ENDBRANCH  22  27
ENDBRANCH  20  21
ENDBRANCH  10  20
ENDBRANCH   6   9
ENDBRANCH   2   3
TORSDOF 8
ENDMDL
MODEL      180
REMARK 921   NORMALIZED FREE ENERGY PREDICTED BY IDOCK:   -1.48 KCAL/MOL
REMARK 922        TOTAL FREE ENERGY PREDICTED BY IDOCK:   -3.92 KCAL/MOL
REMARK 923 INTER-LIGAND FREE ENERGY PREDICTED BY IDOCK:   -4.36 KCAL/MOL
REMARK 924 INTRA-LIGAND FREE ENERGY PREDICTED BY IDOCK:    0.44 KCAL/MOL
REMARK 927      BINDING AFFINITY PREDICTED BY RF-SCORE:    0.00 PKD
ROOT
HETATM    1  C   UNL     1      -6.174   5.026  65.951  1.00  0.00    -0.034 C  
HETATM    2  O   UNL     1      -7.112   5.708  65.127  1.00  0.00    -0.061 OA 
ENDROOT
BRANCH   2   3
HETATM    3  C   UNL     1      -7.784   6.752  65.696  1.00  0.00    -0.102 A  
HETATM    4  C   UNL     1      -9.164   6.859  65.848  1.00  0.00     0.004 A  
HETATM    5  C   UNL     1      -9.732   8.008  66.423  1.00  0.00    -0.255 A  
HETATM    6  C   UNL     1      -8.935   9.071  66.869  1.00  0.00    -0.144 A  
HETATM    7  C   UNL     1      -6.979   7.792  66.150  1.00  0.00    -0.062 A  
HETATM    8  C   UNL     1      -7.542   8.936  66.735  1.00  0.00    -0.086 A  
BRANCH   6   9
HETATM    9  C   UNL     1      -9.553  10.311  67.406  1.00  0.00    -0.158 A  
HETATM   10  C   UNL     1      -9.837  10.700  68.712  1.00  0.00    -0.191 A  
HETATM   11  C   UNL     1     -10.564  11.958  68.795  1.00  0.00    -0.234 A  
HETATM   12  C   UNL     1     -11.737  13.925  69.693  1.00  0.00    -0.370 A  
HETATM   13  C   UNL     1     -10.705  12.528  67.527  1.00  0.00    -0.225 A  
HETATM   14  H   UNL     1     -12.704  16.175  69.051  1.00  0.00     0.000 HD 
HETATM   15  C   UNL     1     -11.103  12.693  69.887  1.00  0.00     0.253 A  
HETATM   16  S   UNL     1     -10.101  11.504  66.299  1.00  0.00    -0.235 SA 
HETATM   17  C   UNL     1     -11.286  13.799  67.327  1.00  0.00    -0.343 A  
HETATM   18  C   UNL     1     -11.793  14.477  68.428  1.00  0.00    -0.316 A  
HETATM   19  O   UNL     1     -12.357  15.712  68.297  1.00  0.00     0.155 OA 
BRANCH  10  20
HETATM   20  O   UNL     1      -9.353   9.961  69.751  1.00  0.00    -0.207 OA 
BRANCH  20  21
HETATM   21  C   UNL     1      -9.435   8.593  69.835  1.00  0.00    -0.167 A  
HETATM   22  C   UNL     1      -9.749   5.813  70.133  1.00  0.00    -0.170 A  
HETATM   23  C   UNL     1     -10.864   6.654  70.169  1.00  0.00    -0.330 A  
HETATM   24  C   UNL     1      -8.324   7.758  69.816  1.00  0.00    -0.131 A  
HETATM   25  C   UNL     1     -10.707   8.039  70.017  1.00  0.00    -0.244 A  
HETATM   26  C   UNL     1      -8.484   6.381  69.922  1.00  0.00    -0.131 A  
BRANCH  22  27
HETATM   27  O   UNL     1      -9.970   4.467  70.336  1.00  0.00    -0.218 OA 
BRANCH  27  28
HETATM   28  C   UNL     1      -9.763   3.685  69.150  1.00  0.00     0.004 C  
BRANCH  28  29
HETATM   29  C   UNL     1      -8.519   4.089  68.353  1.00  0.00    -0.092 C  
BRANCH  29  30
HETATM   30  N   UNL     1      -7.474   3.041  68.430  1.00  0.00    -0.049 NA 
HETATM   31  C   UNL     1      -6.357   3.335  69.343  1.00  0.00    -0.029 C  
HETATM   32  C   UNL     1      -6.706   3.221  70.829  1.00  0.00    -0.032 C  
HETATM   33  C   UNL     1      -7.392   1.898  71.155  1.00  0.00    -0.033 C  
HETATM   34  C   UNL     1      -8.517   1.589  70.173  1.00  0.00    -0.076 C  
HETATM   35  C   UNL     1      -8.038   1.720  68.728  1.00  0.00    -0.048 C  
ENDBRANCH  29  30
ENDBRANCH  28  29
ENDBRANCH  27  28
ENDBRANCH  22  27
ENDBRANCH  20  21
ENDBRANCH  10  20
ENDBRANCH   6   9
ENDBRANCH   2   3
TORSDOF 8
ENDMDL
MODEL      181
REMARK 921   NORMALIZED FREE ENERGY PREDICTED BY IDOCK:   -1.47 KCAL/MOL
REMARK 922        TOTAL FREE ENERGY PREDICTED BY IDOCK:   -3.91 KCAL/MOL
REMARK 923 INTER-LIGAND FREE ENERGY PREDICTED BY IDOCK:   -2.52 KCAL/MOL
REMARK 924 INTRA-LIGAND FREE ENERGY PREDICTED BY IDOCK:   -1.39 KCAL/MOL
REMARK 927      BINDING AFFINITY PREDICTED BY RF-SCORE:    0.00 PKD
ROOT
HETATM    1  C   UNL     1      -5.983  12.857  73.871  1.00  0.00     1.602 C  
HETATM    2  O   UNL     1      -5.132  12.281  72.886  1.00  0.00    -0.354 OA 
ENDROOT
BRANCH   2   3
HETATM    3  C   UNL     1      -5.506  11.067  72.385  1.00  0.00     0.693 A  
HETATM    4  C   UNL     1      -5.646   9.884  73.106  1.00  0.00     0.342 A  
HETATM    5  C   UNL     1      -6.006   8.691  72.458  1.00  0.00    -0.079 A  
HETATM    6  C   UNL     1      -6.246   8.653  71.078  1.00  0.00    -0.042 A  
HETATM    7  C   UNL     1      -5.758  11.049  71.017  1.00  0.00     0.009 A  
HETATM    8  C   UNL     1      -6.129   9.861  70.368  1.00  0.00    -0.082 A  
BRANCH   6   9
HETATM    9  C   UNL     1      -6.553   7.371  70.395  1.00  0.00    -0.046 A  
HETATM   10  C   UNL     1      -7.767   6.760  70.097  1.00  0.00    -0.101 A  
HETATM   11  C   UNL     1      -7.621   5.432  69.519  1.00  0.00    -0.070 A  
HETATM   12  C   UNL     1      -8.148   3.237  68.543  1.00  0.00    -0.070 A  
HETATM   13  C   UNL     1      -6.273   5.139  69.300  1.00  0.00    -0.033 A  
HETATM   14  H   UNL     1      -7.116   1.225  67.404  1.00  0.00     0.000 HD 
HETATM   15  C   UNL     1      -8.562   4.441  69.124  1.00  0.00    -0.106 A  
HETATM   16  S   UNL     1      -5.249   6.368  69.903  1.00  0.00    -0.014 SA 
HETATM   17  C   UNL     1      -5.849   3.955  68.658  1.00  0.00    -0.023 A  
HETATM   18  C   UNL     1      -6.809   3.021  68.288  1.00  0.00    -0.048 A  
HETATM   19  O   UNL     1      -6.459   1.864  67.656  1.00  0.00    -0.027 OA 
BRANCH  10  20
HETATM   20  O   UNL     1      -8.927   7.456  70.274  1.00  0.00    -0.146 OA 
BRANCH  20  21
HETATM   21  C   UNL     1      -9.423   8.377  69.384  1.00  0.00    -0.158 A  
HETATM   22  C   UNL     1     -10.269  10.256  67.468  1.00  0.00    -0.210 A  
HETATM   23  C   UNL     1      -9.434   9.198  67.095  1.00  0.00    -0.197 A  
HETATM   24  C   UNL     1     -10.239   9.438  69.758  1.00  0.00    -0.238 A  
HETATM   25  C   UNL     1      -9.016   8.261  68.051  1.00  0.00    -0.138 A  
HETATM   26  C   UNL     1     -10.690  10.342  68.803  1.00  0.00    -0.255 A  
BRANCH  22  27
HETATM   27  O   UNL     1     -10.603  11.167  66.488  1.00  0.00    -0.247 OA 
BRANCH  27  28
HETATM   28  C   UNL     1      -9.528  12.066  66.177  1.00  0.00    -0.232 C  
BRANCH  28  29
HETATM   29  C   UNL     1      -9.583  13.387  66.949  1.00  0.00    -0.257 C  
BRANCH  29  30
HETATM   30  N   UNL     1     -10.883  14.068  66.749  1.00  0.00    -0.292 NA 
HETATM   31  C   UNL     1     -11.996  13.544  67.559  1.00  0.00    -0.346 C  
HETATM   32  C   UNL     1     -11.930  13.914  69.042  1.00  0.00    -0.402 C  
HETATM   33  C   UNL     1     -11.712  15.409  69.250  1.00  0.00    -0.367 C  
HETATM   34  C   UNL     1     -10.585  15.942  68.372  1.00  0.00    -0.266 C  
HETATM   35  C   UNL     1     -10.776  15.521  66.915  1.00  0.00    -0.317 C  
ENDBRANCH  29  30
ENDBRANCH  28  29
ENDBRANCH  27  28
ENDBRANCH  22  27
ENDBRANCH  20  21
ENDBRANCH  10  20
ENDBRANCH   6   9
ENDBRANCH   2   3
TORSDOF 8
ENDMDL
MODEL      182
REMARK 921   NORMALIZED FREE ENERGY PREDICTED BY IDOCK:   -1.45 KCAL/MOL
REMARK 922        TOTAL FREE ENERGY PREDICTED BY IDOCK:   -3.88 KCAL/MOL
REMARK 923 INTER-LIGAND FREE ENERGY PREDICTED BY IDOCK:   -4.79 KCAL/MOL
REMARK 924 INTRA-LIGAND FREE ENERGY PREDICTED BY IDOCK:    0.91 KCAL/MOL
REMARK 927      BINDING AFFINITY PREDICTED BY RF-SCORE:    0.00 PKD
ROOT
HETATM    1  C   UNL     1     -11.281  15.218  70.221  1.00  0.00    -0.297 C  
HETATM    2  O   UNL     1     -11.875  14.404  69.217  1.00  0.00    -0.289 OA 
ENDROOT
BRANCH   2   3
HETATM    3  C   UNL     1     -11.066  13.486  68.611  1.00  0.00    -0.269 A  
HETATM    4  C   UNL     1      -9.682  13.570  68.474  1.00  0.00    -0.168 A  
HETATM    5  C   UNL     1      -8.970  12.568  67.795  1.00  0.00    -0.184 A  
HETATM    6  C   UNL     1      -9.620  11.454  67.247  1.00  0.00    -0.187 A  
HETATM    7  C   UNL     1     -11.723  12.377  68.088  1.00  0.00    -0.408 A  
HETATM    8  C   UNL     1     -11.013  11.368  67.419  1.00  0.00    -0.326 A  
BRANCH   6   9
HETATM    9  C   UNL     1      -8.864  10.440  66.467  1.00  0.00    -0.138 A  
HETATM   10  C   UNL     1      -7.573   9.943  66.622  1.00  0.00    -0.103 A  
HETATM   11  C   UNL     1      -7.172   9.035  65.557  1.00  0.00    -0.085 A  
HETATM   12  C   UNL     1      -5.844   7.487  64.183  1.00  0.00    -0.041 A  
HETATM   13  C   UNL     1      -8.238   8.798  64.686  1.00  0.00    -0.165 A  
HETATM   14  H   UNL     1      -5.981   5.890  62.223  1.00  0.00     0.000 HD 
HETATM   15  C   UNL     1      -5.956   8.353  65.276  1.00  0.00    -0.045 A  
HETATM   16  S   UNL     1      -9.604   9.748  65.081  1.00  0.00    -0.246 SA 
HETATM   17  C   UNL     1      -8.155   7.879  63.619  1.00  0.00    -0.074 A  
HETATM   18  C   UNL     1      -6.946   7.236  63.390  1.00  0.00    -0.059 A  
HETATM   19  O   UNL     1      -6.809   6.331  62.379  1.00  0.00    -0.037 OA 
BRANCH  10  20
HETATM   20  O   UNL     1      -6.866  10.255  67.746  1.00  0.00    -0.073 OA 
BRANCH  20  21
HETATM   21  C   UNL     1      -6.905   9.532  68.913  1.00  0.00    -0.055 A  
HETATM   22  C   UNL     1      -7.110   7.931  71.218  1.00  0.00    -0.055 A  
HETATM   23  C   UNL     1      -7.162   7.346  69.949  1.00  0.00    -0.081 A  
HETATM   24  C   UNL     1      -6.871  10.114  70.174  1.00  0.00    -0.146 A  
HETATM   25  C   UNL     1      -7.056   8.145  68.801  1.00  0.00    -0.071 A  
HETATM   26  C   UNL     1      -6.931   9.319  71.313  1.00  0.00    -0.026 A  
BRANCH  22  27
HETATM   27  O   UNL     1      -7.268   7.093  72.302  1.00  0.00    -0.071 OA 
BRANCH  27  28
HETATM   28  C   UNL     1      -8.025   5.915  71.987  1.00  0.00    -0.107 C  
BRANCH  28  29
HETATM   29  C   UNL     1      -9.494   5.993  72.410  1.00  0.00    -0.145 C  
BRANCH  29  30
HETATM   30  N   UNL     1     -10.368   5.304  71.432  1.00  0.00    -0.221 NA 
HETATM   31  C   UNL     1     -10.248   5.778  70.043  1.00  0.00    -0.238 C  
HETATM   32  C   UNL     1      -8.963   5.347  69.333  1.00  0.00    -0.124 C  
HETATM   33  C   UNL     1      -8.716   3.846  69.460  1.00  0.00    -0.127 C  
HETATM   34  C   UNL     1      -8.886   3.366  70.897  1.00  0.00    -0.143 C  
HETATM   35  C   UNL     1     -10.213   3.846  71.484  1.00  0.00     0.015 C  
ENDBRANCH  29  30
ENDBRANCH  28  29
ENDBRANCH  27  28
ENDBRANCH  22  27
ENDBRANCH  20  21
ENDBRANCH  10  20
ENDBRANCH   6   9
ENDBRANCH   2   3
TORSDOF 8
ENDMDL
MODEL      183
REMARK 921   NORMALIZED FREE ENERGY PREDICTED BY IDOCK:   -1.42 KCAL/MOL
REMARK 922        TOTAL FREE ENERGY PREDICTED BY IDOCK:   -3.83 KCAL/MOL
REMARK 923 INTER-LIGAND FREE ENERGY PREDICTED BY IDOCK:   -6.81 KCAL/MOL
REMARK 924 INTRA-LIGAND FREE ENERGY PREDICTED BY IDOCK:    2.98 KCAL/MOL
REMARK 927      BINDING AFFINITY PREDICTED BY RF-SCORE:    0.00 PKD
ROOT
HETATM    1  C   UNL     1     -11.399  17.143  69.984  1.00  0.00     0.992 C  
HETATM    2  O   UNL     1     -12.514  16.281  70.182  1.00  0.00    -0.027 OA 
ENDROOT
BRANCH   2   3
HETATM    3  C   UNL     1     -12.304  14.948  69.977  1.00  0.00    -0.312 A  
HETATM    4  C   UNL     1     -12.361  13.946  70.943  1.00  0.00    -0.451 A  
HETATM    5  C   UNL     1     -12.089  12.610  70.603  1.00  0.00    -0.315 A  
HETATM    6  C   UNL     1     -11.766  12.242  69.290  1.00  0.00    -0.388 A  
HETATM    7  C   UNL     1     -12.002  14.595  68.666  1.00  0.00    -0.305 A  
HETATM    8  C   UNL     1     -11.741  13.260  68.320  1.00  0.00    -0.388 A  
BRANCH   6   9
HETATM    9  C   UNL     1     -11.408  10.839  68.961  1.00  0.00    -0.284 A  
HETATM   10  C   UNL     1     -10.899  10.273  67.795  1.00  0.00    -0.292 A  
HETATM   11  C   UNL     1     -10.801   8.822  67.851  1.00  0.00    -0.078 A  
HETATM   12  C   UNL     1     -10.362   6.483  67.229  1.00  0.00    -0.283 A  
HETATM   13  C   UNL     1     -11.147   8.356  69.122  1.00  0.00     0.213 A  
HETATM   14  H   UNL     1     -10.255   4.127  68.150  1.00  0.00     0.000 HD 
HETATM   15  C   UNL     1     -10.405   7.842  66.899  1.00  0.00    -0.400 A  
HETATM   16  S   UNL     1     -11.691   9.620  70.136  1.00  0.00    -0.014 SA 
HETATM   17  C   UNL     1     -11.046   6.995  69.484  1.00  0.00    -0.221 A  
HETATM   18  C   UNL     1     -10.650   6.080  68.517  1.00  0.00    -0.265 A  
HETATM   19  O   UNL     1     -10.526   4.753  68.811  1.00  0.00    -0.009 OA 
BRANCH  10  20
HETATM   20  O   UNL     1     -10.468  11.087  66.789  1.00  0.00    -0.231 OA 
BRANCH  20  21
HETATM   21  C   UNL     1      -9.665  12.186  66.971  1.00  0.00    -0.202 A  
HETATM   22  C   UNL     1      -8.024  14.402  67.532  1.00  0.00    -0.192 A  
HETATM   23  C   UNL     1      -7.909  13.232  68.289  1.00  0.00    -0.143 A  
HETATM   24  C   UNL     1      -9.790  13.355  66.229  1.00  0.00    -0.295 A  
HETATM   25  C   UNL     1      -8.726  12.128  68.006  1.00  0.00    -0.180 A  
HETATM   26  C   UNL     1      -8.951  14.435  66.480  1.00  0.00    -0.191 A  
BRANCH  22  27
HETATM   27  O   UNL     1      -7.224  15.466  67.895  1.00  0.00    -0.121 OA 
BRANCH  27  28
HETATM   28  C   UNL     1      -6.906  16.322  66.788  1.00  0.00    -0.088 C  
BRANCH  28  29
HETATM   29  C   UNL     1      -8.120  17.043  66.195  1.00  0.00    -0.257 C  
BRANCH  29  30
HETATM   30  N   UNL     1      -9.134  17.326  67.238  1.00  0.00    -0.225 NA 
HETATM   31  C   UNL     1      -8.827  18.467  68.117  1.00  0.00    -0.302 C  
HETATM   32  C   UNL     1      -8.993  19.838  67.458  1.00  0.00    -0.401 C  
HETATM   33  C   UNL     1     -10.346  19.981  66.768  1.00  0.00    -0.564 C  
HETATM   34  C   UNL     1     -10.666  18.771  65.897  1.00  0.00    -0.323 C  
HETATM   35  C   UNL     1     -10.480  17.469  66.674  1.00  0.00    -0.270 C  
ENDBRANCH  29  30
ENDBRANCH  28  29
ENDBRANCH  27  28
ENDBRANCH  22  27
ENDBRANCH  20  21
ENDBRANCH  10  20
ENDBRANCH   6   9
ENDBRANCH   2   3
TORSDOF 8
ENDMDL
MODEL      184
REMARK 921   NORMALIZED FREE ENERGY PREDICTED BY IDOCK:   -1.40 KCAL/MOL
REMARK 922        TOTAL FREE ENERGY PREDICTED BY IDOCK:   -3.81 KCAL/MOL
REMARK 923 INTER-LIGAND FREE ENERGY PREDICTED BY IDOCK:   -2.07 KCAL/MOL
REMARK 924 INTRA-LIGAND FREE ENERGY PREDICTED BY IDOCK:   -1.74 KCAL/MOL
REMARK 927      BINDING AFFINITY PREDICTED BY RF-SCORE:    0.00 PKD
ROOT
HETATM    1  C   UNL     1      -6.739  19.150  67.658  1.00  0.00    -0.207 C  
HETATM    2  O   UNL     1      -6.346  18.528  68.875  1.00  0.00    -0.218 OA 
ENDROOT
BRANCH   2   3
HETATM    3  C   UNL     1      -6.333  17.163  68.892  1.00  0.00    -0.186 A  
HETATM    4  C   UNL     1      -6.414  16.324  67.782  1.00  0.00    -0.161 A  
HETATM    5  C   UNL     1      -6.424  14.929  67.942  1.00  0.00    -0.177 A  
HETATM    6  C   UNL     1      -6.343  14.338  69.210  1.00  0.00    -0.110 A  
HETATM    7  C   UNL     1      -6.233  16.590  70.155  1.00  0.00     0.006 A  
HETATM    8  C   UNL     1      -6.232  15.196  70.318  1.00  0.00    -0.108 A  
BRANCH   6   9
HETATM    9  C   UNL     1      -6.430  12.863  69.368  1.00  0.00    -0.091 A  
HETATM   10  C   UNL     1      -7.440  11.965  69.036  1.00  0.00    -0.006 A  
HETATM   11  C   UNL     1      -7.171  10.604  69.474  1.00  0.00    -0.140 A  
HETATM   12  C   UNL     1      -7.407   8.189  69.880  1.00  0.00    -0.065 A  
HETATM   13  C   UNL     1      -5.895  10.512  70.035  1.00  0.00    -0.071 A  
HETATM   14  H   UNL     1      -6.160   6.139  70.685  1.00  0.00     0.000 HD 
HETATM   15  C   UNL     1      -7.927   9.400  69.408  1.00  0.00    -0.089 A  
HETATM   16  S   UNL     1      -5.135  12.040  70.139  1.00  0.00    -0.093 SA 
HETATM   17  C   UNL     1      -5.338   9.285  70.455  1.00  0.00    -0.031 A  
HETATM   18  C   UNL     1      -6.116   8.138  70.365  1.00  0.00    -0.028 A  
HETATM   19  O   UNL     1      -5.627   6.923  70.747  1.00  0.00    -0.023 OA 
BRANCH  10  20
HETATM   20  O   UNL     1      -8.495  12.393  68.284  1.00  0.00    -0.171 OA 
BRANCH  20  21
HETATM   21  C   UNL     1      -8.909  11.797  67.118  1.00  0.00    -0.173 A  
HETATM   22  C   UNL     1      -9.738  10.404  64.818  1.00  0.00    -0.320 A  
HETATM   23  C   UNL     1     -10.086   9.935  66.087  1.00  0.00    -0.315 A  
HETATM   24  C   UNL     1      -8.549  12.255  65.856  1.00  0.00     0.449 A  
HETATM   25  C   UNL     1      -9.674  10.631  67.233  1.00  0.00    -0.195 A  
HETATM   26  C   UNL     1      -8.994  11.589  64.719  1.00  0.00     0.213 A  
BRANCH  22  27
HETATM   27  O   UNL     1     -10.134   9.645  63.737  1.00  0.00     0.729 OA 
BRANCH  27  28
HETATM   28  C   UNL     1      -9.034   9.241  62.909  1.00  0.00    -0.102 C  
BRANCH  28  29
HETATM   29  C   UNL     1      -8.244   8.054  63.467  1.00  0.00    -0.037 C  
BRANCH  29  30
HETATM   30  N   UNL     1      -6.793   8.351  63.506  1.00  0.00    -0.084 NA 
HETATM   31  C   UNL     1      -6.399   9.433  64.425  1.00  0.00    -0.084 C  
HETATM   32  C   UNL     1      -6.453   9.057  65.907  1.00  0.00    -0.061 C  
HETATM   33  C   UNL     1      -5.716   7.753  66.194  1.00  0.00    -0.037 C  
HETATM   34  C   UNL     1      -6.104   6.657  65.207  1.00  0.00    -0.038 C  
HETATM   35  C   UNL     1      -5.991   7.150  63.765  1.00  0.00    -0.044 C  
ENDBRANCH  29  30
ENDBRANCH  28  29
ENDBRANCH  27  28
ENDBRANCH  22  27
ENDBRANCH  20  21
ENDBRANCH  10  20
ENDBRANCH   6   9
ENDBRANCH   2   3
TORSDOF 8
ENDMDL
MODEL      185
REMARK 921   NORMALIZED FREE ENERGY PREDICTED BY IDOCK:   -1.39 KCAL/MOL
REMARK 922        TOTAL FREE ENERGY PREDICTED BY IDOCK:   -3.79 KCAL/MOL
REMARK 923 INTER-LIGAND FREE ENERGY PREDICTED BY IDOCK:   -2.80 KCAL/MOL
REMARK 924 INTRA-LIGAND FREE ENERGY PREDICTED BY IDOCK:   -0.99 KCAL/MOL
REMARK 927      BINDING AFFINITY PREDICTED BY RF-SCORE:    0.00 PKD
ROOT
HETATM    1  C   UNL     1      -6.818   7.123  62.655  1.00  0.00    -0.053 C  
HETATM    2  O   UNL     1      -7.736   8.011  63.283  1.00  0.00    -0.128 OA 
ENDROOT
BRANCH   2   3
HETATM    3  C   UNL     1      -7.275   8.712  64.360  1.00  0.00    -0.097 A  
HETATM    4  C   UNL     1      -6.301   8.289  65.263  1.00  0.00    -0.048 A  
HETATM    5  C   UNL     1      -5.941   9.097  66.354  1.00  0.00    -0.059 A  
HETATM    6  C   UNL     1      -6.534  10.350  66.563  1.00  0.00    -0.089 A  
HETATM    7  C   UNL     1      -7.859   9.960  64.544  1.00  0.00    -0.142 A  
HETATM    8  C   UNL     1      -7.493  10.775  65.627  1.00  0.00    -0.034 A  
BRANCH   6   9
HETATM    9  C   UNL     1      -6.197  11.160  67.761  1.00  0.00    -0.051 A  
HETATM   10  C   UNL     1      -5.906  10.783  69.069  1.00  0.00    -0.040 A  
HETATM   11  C   UNL     1      -5.746  11.911  69.975  1.00  0.00    -0.138 A  
HETATM   12  C   UNL     1      -5.352  13.238  72.007  1.00  0.00    -0.028 A  
HETATM   13  C   UNL     1      -5.818  13.117  69.273  1.00  0.00    -0.089 A  
HETATM   14  H   UNL     1      -4.980  15.598  72.846  1.00  0.00     0.000 HD 
HETATM   15  C   UNL     1      -5.509  12.000  71.374  1.00  0.00     0.105 A  
HETATM   16  S   UNL     1      -6.199  12.872  67.625  1.00  0.00    -0.152 SA 
HETATM   17  C   UNL     1      -5.599  14.367  69.890  1.00  0.00    -0.103 A  
HETATM   18  C   UNL     1      -5.367  14.399  71.259  1.00  0.00    -0.163 A  
HETATM   19  O   UNL     1      -5.139  15.577  71.909  1.00  0.00    -0.157 OA 
BRANCH  10  20
HETATM   20  O   UNL     1      -5.711   9.463  69.357  1.00  0.00    -0.035 OA 
BRANCH  20  21
HETATM   21  C   UNL     1      -6.669   8.635  69.887  1.00  0.00    -0.042 A  
HETATM   22  C   UNL     1      -8.684   6.891  70.791  1.00  0.00    -0.145 A  
HETATM   23  C   UNL     1      -7.957   6.587  69.637  1.00  0.00    -0.120 A  
HETATM   24  C   UNL     1      -7.403   8.945  71.025  1.00  0.00    -0.114 A  
HETATM   25  C   UNL     1      -6.951   7.455  69.189  1.00  0.00    -0.076 A  
HETATM   26  C   UNL     1      -8.370   8.063  71.494  1.00  0.00    -0.139 A  
BRANCH  22  27
HETATM   27  O   UNL     1      -9.690   6.018  71.148  1.00  0.00    -0.173 OA 
BRANCH  27  28
HETATM   28  C   UNL     1      -9.416   4.665  70.754  1.00  0.00    -0.167 C  
BRANCH  28  29
HETATM   29  C   UNL     1      -8.504   3.911  71.725  1.00  0.00    -0.090 C  
BRANCH  29  30
HETATM   30  N   UNL     1      -8.426   2.473  71.375  1.00  0.00    -0.061 NA 
HETATM   31  C   UNL     1      -8.661   2.160  69.955  1.00  0.00    -0.051 C  
HETATM   32  C   UNL     1      -7.509   2.541  69.023  1.00  0.00    -0.044 C  
HETATM   33  C   UNL     1      -6.169   2.010  69.522  1.00  0.00    -0.025 C  
HETATM   34  C   UNL     1      -5.962   2.304  71.004  1.00  0.00    -0.017 C  
HETATM   35  C   UNL     1      -7.171   1.862  71.827  1.00  0.00    -0.035 C  
ENDBRANCH  29  30
ENDBRANCH  28  29
ENDBRANCH  27  28
ENDBRANCH  22  27
ENDBRANCH  20  21
ENDBRANCH  10  20
ENDBRANCH   6   9
ENDBRANCH   2   3
TORSDOF 8
ENDMDL
MODEL      186
REMARK 921   NORMALIZED FREE ENERGY PREDICTED BY IDOCK:   -1.30 KCAL/MOL
REMARK 922        TOTAL FREE ENERGY PREDICTED BY IDOCK:   -3.65 KCAL/MOL
REMARK 923 INTER-LIGAND FREE ENERGY PREDICTED BY IDOCK:   -3.40 KCAL/MOL
REMARK 924 INTRA-LIGAND FREE ENERGY PREDICTED BY IDOCK:   -0.25 KCAL/MOL
REMARK 927      BINDING AFFINITY PREDICTED BY RF-SCORE:    0.00 PKD
ROOT
HETATM    1  C   UNL     1      -6.371   7.140  63.153  1.00  0.00    -0.052 C  
HETATM    2  O   UNL     1      -7.747   7.381  63.426  1.00  0.00    -0.114 OA 
ENDROOT
BRANCH   2   3
HETATM    3  C   UNL     1      -8.038   8.466  64.202  1.00  0.00    -0.145 A  
HETATM    4  C   UNL     1      -7.209   9.037  65.166  1.00  0.00    -0.088 A  
HETATM    5  C   UNL     1      -7.646  10.136  65.922  1.00  0.00    -0.128 A  
HETATM    6  C   UNL     1      -8.916  10.699  65.728  1.00  0.00    -0.200 A  
HETATM    7  C   UNL     1      -9.293   9.025  63.985  1.00  0.00     0.592 A  
HETATM    8  C   UNL     1      -9.729  10.131  64.732  1.00  0.00    -0.389 A  
BRANCH   6   9
HETATM    9  C   UNL     1      -9.392  11.813  66.586  1.00  0.00    -0.198 A  
HETATM   10  C   UNL     1      -9.085  12.152  67.900  1.00  0.00    -0.185 A  
HETATM   11  C   UNL     1      -9.873  13.264  68.411  1.00  0.00    -0.218 A  
HETATM   12  C   UNL     1     -10.775  15.000  69.902  1.00  0.00    -0.238 A  
HETATM   13  C   UNL     1     -10.681  13.796  67.402  1.00  0.00    -0.275 A  
HETATM   14  H   UNL     1     -12.266  17.045  69.962  1.00  0.00     0.000 HD 
HETATM   15  C   UNL     1      -9.941  13.898  69.682  1.00  0.00     0.702 A  
HETATM   16  S   UNL     1     -10.574  12.889  65.957  1.00  0.00    -0.275 SA 
HETATM   17  C   UNL     1     -11.477  14.946  67.596  1.00  0.00    -0.366 A  
HETATM   18  C   UNL     1     -11.504  15.529  68.856  1.00  0.00    -0.354 A  
HETATM   19  O   UNL     1     -12.248  16.646  69.100  1.00  0.00     0.337 OA 
BRANCH  10  20
HETATM   20  O   UNL     1      -8.060  11.512  68.534  1.00  0.00    -0.139 OA 
BRANCH  20  21
HETATM   21  C   UNL     1      -8.225  10.518  69.467  1.00  0.00    -0.079 A  
HETATM   22  C   UNL     1      -8.461   8.364  71.262  1.00  0.00    -0.149 A  
HETATM   23  C   UNL     1      -7.289   8.536  70.520  1.00  0.00    -0.060 A  
HETATM   24  C   UNL     1      -9.397  10.337  70.192  1.00  0.00     0.185 A  
HETATM   25  C   UNL     1      -7.172   9.611  69.628  1.00  0.00    -0.084 A  
HETATM   26  C   UNL     1      -9.497   9.297  71.109  1.00  0.00    -0.287 A  
BRANCH  22  27
HETATM   27  O   UNL     1      -8.528   7.259  72.085  1.00  0.00    -0.105 OA 
BRANCH  27  28
HETATM   28  C   UNL     1      -7.265   6.590  72.218  1.00  0.00    -0.086 C  
BRANCH  28  29
HETATM   29  C   UNL     1      -7.382   5.069  72.351  1.00  0.00    -0.092 C  
BRANCH  29  30
HETATM   30  N   UNL     1      -8.413   4.531  71.432  1.00  0.00    -0.103 NA 
HETATM   31  C   UNL     1      -8.418   3.066  71.286  1.00  0.00    -0.063 C  
HETATM   32  C   UNL     1      -8.975   2.310  72.495  1.00  0.00    -0.101 C  
HETATM   33  C   UNL     1     -10.328   2.856  72.938  1.00  0.00    -0.240 C  
HETATM   34  C   UNL     1     -10.316   4.378  73.042  1.00  0.00    -0.241 C  
HETATM   35  C   UNL     1      -9.757   5.012  71.768  1.00  0.00    -0.163 C  
ENDBRANCH  29  30
ENDBRANCH  28  29
ENDBRANCH  27  28
ENDBRANCH  22  27
ENDBRANCH  20  21
ENDBRANCH  10  20
ENDBRANCH   6   9
ENDBRANCH   2   3
TORSDOF 8
ENDMDL
MODEL      187
REMARK 921   NORMALIZED FREE ENERGY PREDICTED BY IDOCK:   -0.70 KCAL/MOL
REMARK 922        TOTAL FREE ENERGY PREDICTED BY IDOCK:   -2.78 KCAL/MOL
REMARK 923 INTER-LIGAND FREE ENERGY PREDICTED BY IDOCK:   -1.58 KCAL/MOL
REMARK 924 INTRA-LIGAND FREE ENERGY PREDICTED BY IDOCK:   -1.21 KCAL/MOL
REMARK 927      BINDING AFFINITY PREDICTED BY RF-SCORE:    0.00 PKD
ROOT
HETATM    1  C   UNL     1      -5.926  12.209  74.211  1.00  0.00     1.899 C  
HETATM    2  O   UNL     1      -5.156  11.616  73.171  1.00  0.00    -0.320 OA 
ENDROOT
BRANCH   2   3
HETATM    3  C   UNL     1      -5.641  10.460  72.631  1.00  0.00     0.626 A  
HETATM    4  C   UNL     1      -5.272   9.165  72.989  1.00  0.00    -0.081 A  
HETATM    5  C   UNL     1      -5.825   8.057  72.327  1.00  0.00    -0.042 A  
HETATM    6  C   UNL     1      -6.767   8.214  71.301  1.00  0.00    -0.046 A  
HETATM    7  C   UNL     1      -6.588  10.631  71.627  1.00  0.00     1.762 A  
HETATM    8  C   UNL     1      -7.152   9.526  70.971  1.00  0.00    -0.017 A  
BRANCH   6   9
HETATM    9  C   UNL     1      -7.287   7.037  70.559  1.00  0.00    -0.076 A  
HETATM   10  C   UNL     1      -8.426   6.261  70.757  1.00  0.00    -0.135 A  
HETATM   11  C   UNL     1      -8.504   5.111  69.867  1.00  0.00    -0.097 A  
HETATM   12  C   UNL     1      -9.294   3.062  68.761  1.00  0.00    -0.235 A  
HETATM   13  C   UNL     1      -7.454   5.132  68.946  1.00  0.00    -0.069 A  
HETATM   14  H   UNL     1      -8.863   1.526  66.795  1.00  0.00     0.000 HD 
HETATM   15  C   UNL     1      -9.432   4.040  69.752  1.00  0.00    -0.265 A  
HETATM   16  S   UNL     1      -6.364   6.413  69.253  1.00  0.00    -0.036 SA 
HETATM   17  C   UNL     1      -7.341   4.187  67.904  1.00  0.00    -0.068 A  
HETATM   18  C   UNL     1      -8.276   3.163  67.833  1.00  0.00    -0.079 A  
HETATM   19  O   UNL     1      -8.223   2.226  66.843  1.00  0.00    -0.078 OA 
BRANCH  10  20
HETATM   20  O   UNL     1      -9.370   6.673  71.652  1.00  0.00    -0.150 OA 
BRANCH  20  21
HETATM   21  C   UNL     1     -10.297   7.654  71.404  1.00  0.00    -0.196 A  
HETATM   22  C   UNL     1     -12.069   9.751  70.783  1.00  0.00    -0.279 A  
HETATM   23  C   UNL     1     -11.183   9.268  69.815  1.00  0.00    -0.104 A  
HETATM   24  C   UNL     1     -11.166   8.146  72.371  1.00  0.00    -0.452 A  
HETATM   25  C   UNL     1     -10.303   8.221  70.125  1.00  0.00    -0.212 A  
HETATM   26  C   UNL     1     -12.069   9.154  72.052  1.00  0.00    -0.431 A  
BRANCH  22  27
HETATM   27  O   UNL     1     -12.872  10.813  70.425  1.00  0.00    -0.313 OA 
BRANCH  27  28
HETATM   28  C   UNL     1     -12.169  12.064  70.419  1.00  0.00    -0.294 C  
BRANCH  28  29
HETATM   29  C   UNL     1     -11.659  12.479  69.036  1.00  0.00    -0.314 C  
BRANCH  29  30
HETATM   30  N   UNL     1     -10.560  13.467  69.147  1.00  0.00    -0.079 NA 
HETATM   31  C   UNL     1      -9.620  13.488  68.015  1.00  0.00    -0.221 C  
HETATM   32  C   UNL     1     -10.178  14.121  66.738  1.00  0.00    -0.262 C  
HETATM   33  C   UNL     1     -10.802  15.488  67.003  1.00  0.00    -0.314 C  
HETATM   34  C   UNL     1     -11.739  15.456  68.206  1.00  0.00    -0.313 C  
HETATM   35  C   UNL     1     -11.059  14.820  69.417  1.00  0.00    -0.281 C  
ENDBRANCH  29  30
ENDBRANCH  28  29
ENDBRANCH  27  28
ENDBRANCH  22  27
ENDBRANCH  20  21
ENDBRANCH  10  20
ENDBRANCH   6   9
ENDBRANCH   2   3
TORSDOF 8
ENDMDL
MODEL      188
REMARK 921   NORMALIZED FREE ENERGY PREDICTED BY IDOCK:   -0.21 KCAL/MOL
REMARK 922        TOTAL FREE ENERGY PREDICTED BY IDOCK:   -2.06 KCAL/MOL
REMARK 923 INTER-LIGAND FREE ENERGY PREDICTED BY IDOCK:   -4.05 KCAL/MOL
REMARK 924 INTRA-LIGAND FREE ENERGY PREDICTED BY IDOCK:    1.99 KCAL/MOL
REMARK 927      BINDING AFFINITY PREDICTED BY RF-SCORE:    0.00 PKD
ROOT
HETATM    1  C   UNL     1      -9.666  14.729  64.830  1.00  0.00     0.330 C  
HETATM    2  O   UNL     1     -10.765  13.850  64.622  1.00  0.00    -0.397 OA 
ENDROOT
BRANCH   2   3
HETATM    3  C   UNL     1     -10.736  12.661  65.292  1.00  0.00    -0.289 A  
HETATM    4  C   UNL     1     -11.819  12.033  65.905  1.00  0.00    -0.232 A  
HETATM    5  C   UNL     1     -11.645  10.822  66.594  1.00  0.00     0.657 A  
HETATM    6  C   UNL     1     -10.390  10.203  66.679  1.00  0.00    -0.274 A  
HETATM    7  C   UNL     1      -9.488  12.049  65.352  1.00  0.00    -0.080 A  
HETATM    8  C   UNL     1      -9.313  10.833  66.031  1.00  0.00    -0.215 A  
BRANCH   6   9
HETATM    9  C   UNL     1     -10.206   8.962  67.474  1.00  0.00    -0.248 A  
HETATM   10  C   UNL     1      -9.746   8.767  68.773  1.00  0.00    -0.165 A  
HETATM   11  C   UNL     1      -9.606   7.363  69.132  1.00  0.00    -0.156 A  
HETATM   12  C   UNL     1      -9.137   5.313  70.407  1.00  0.00    -0.173 A  
HETATM   13  C   UNL     1     -10.079   6.544  68.104  1.00  0.00    -0.155 A  
HETATM   14  H   UNL     1      -9.401   2.795  70.363  1.00  0.00     0.000 HD 
HETATM   15  C   UNL     1      -9.127   6.708  70.300  1.00  0.00    -0.156 A  
HETATM   16  S   UNL     1     -10.536   7.451  66.728  1.00  0.00    -0.062 SA 
HETATM   17  C   UNL     1     -10.152   5.140  68.226  1.00  0.00    -0.199 A  
HETATM   18  C   UNL     1      -9.675   4.550  69.389  1.00  0.00    -0.202 A  
HETATM   19  O   UNL     1      -9.728   3.199  69.567  1.00  0.00    -0.098 OA 
BRANCH  10  20
HETATM   20  O   UNL     1      -9.567   9.846  69.589  1.00  0.00    -0.203 OA 
BRANCH  20  21
HETATM   21  C   UNL     1     -10.398  10.938  69.625  1.00  0.00    -0.038 A  
HETATM   22  C   UNL     1     -11.945  13.288  69.699  1.00  0.00    -0.314 A  
HETATM   23  C   UNL     1     -10.748  13.256  68.977  1.00  0.00    -0.156 A  
HETATM   24  C   UNL     1     -11.579  10.975  70.356  1.00  0.00    -0.389 A  
HETATM   25  C   UNL     1      -9.980  12.083  68.939  1.00  0.00     0.005 A  
HETATM   26  C   UNL     1     -12.364  12.123  70.359  1.00  0.00    -0.315 A  
BRANCH  22  27
HETATM   27  O   UNL     1     -12.626  14.486  69.734  1.00  0.00    -0.266 OA 
BRANCH  27  28
HETATM   28  C   UNL     1     -11.784  15.611  69.442  1.00  0.00    -0.383 C  
BRANCH  28  29
HETATM   29  C   UNL     1     -10.661  15.824  70.462  1.00  0.00    -0.154 C  
BRANCH  29  30
HETATM   30  N   UNL     1      -9.746  16.906  70.029  1.00  0.00     0.680 NA 
HETATM   31  C   UNL     1      -8.632  16.476  69.166  1.00  0.00    -0.147 C  
HETATM   32  C   UNL     1      -9.038  16.125  67.733  1.00  0.00    -0.197 C  
HETATM   33  C   UNL     1      -9.881  17.223  67.092  1.00  0.00    -0.269 C  
HETATM   34  C   UNL     1     -11.003  17.685  68.017  1.00  0.00    -0.107 C  
HETATM   35  C   UNL     1     -10.466  18.022  69.407  1.00  0.00     0.318 C  
ENDBRANCH  29  30
ENDBRANCH  28  29
ENDBRANCH  27  28
ENDBRANCH  22  27
ENDBRANCH  20  21
ENDBRANCH  10  20
ENDBRANCH   6   9
ENDBRANCH   2   3
TORSDOF 8
ENDMDL
MODEL      189
REMARK 921   NORMALIZED FREE ENERGY PREDICTED BY IDOCK:   -0.01 KCAL/MOL
REMARK 922        TOTAL FREE ENERGY PREDICTED BY IDOCK:   -1.76 KCAL/MOL
REMARK 923 INTER-LIGAND FREE ENERGY PREDICTED BY IDOCK:   -1.85 KCAL/MOL
REMARK 924 INTRA-LIGAND FREE ENERGY PREDICTED BY IDOCK:    0.09 KCAL/MOL
REMARK 927      BINDING AFFINITY PREDICTED BY RF-SCORE:    0.00 PKD
ROOT
HETATM    1  C   UNL     1     -13.832  11.352  63.025  1.00  0.00     3.046 C  
HETATM    2  O   UNL     1     -12.434  11.458  62.783  1.00  0.00     0.132 OA 
ENDROOT
BRANCH   2   3
HETATM    3  C   UNL     1     -11.751  12.380  63.522  1.00  0.00    -0.510 A  
HETATM    4  C   UNL     1     -10.497  12.206  64.103  1.00  0.00    -0.395 A  
HETATM    5  C   UNL     1      -9.918  13.229  64.872  1.00  0.00    -0.156 A  
HETATM    6  C   UNL     1     -10.571  14.454  65.068  1.00  0.00    -0.452 A  
HETATM    7  C   UNL     1     -12.403  13.597  63.693  1.00  0.00    -0.328 A  
HETATM    8  C   UNL     1     -11.822  14.626  64.451  1.00  0.00    -0.405 A  
BRANCH   6   9
HETATM    9  C   UNL     1      -9.980  15.498  65.944  1.00  0.00    -0.349 A  
HETATM   10  C   UNL     1      -8.854  15.477  66.762  1.00  0.00    -0.265 A  
HETATM   11  C   UNL     1      -8.692  16.686  67.555  1.00  0.00    -0.198 A  
HETATM   12  C   UNL     1      -7.794  18.340  69.138  1.00  0.00    -0.023 A  
HETATM   13  C   UNL     1      -9.664  17.630  67.213  1.00  0.00    -0.284 A  
HETATM   14  H   UNL     1      -8.047  20.731  69.932  1.00  0.00     0.000 HD 
HETATM   15  C   UNL     1      -7.747  17.074  68.544  1.00  0.00    -0.238 A  
HETATM   16  S   UNL     1     -10.788  17.006  66.086  1.00  0.00     0.131 SA 
HETATM   17  C   UNL     1      -9.682  18.932  67.759  1.00  0.00    -0.371 A  
HETATM   18  C   UNL     1      -8.734  19.261  68.719  1.00  0.00    -0.346 A  
HETATM   19  O   UNL     1      -8.696  20.506  69.275  1.00  0.00     0.782 OA 
BRANCH  10  20
HETATM   20  O   UNL     1      -7.991  14.423  66.685  1.00  0.00     0.160 OA 
BRANCH  20  21
HETATM   21  C   UNL     1      -8.220  13.190  67.243  1.00  0.00    -0.168 A  
HETATM   22  C   UNL     1      -8.643  10.584  68.218  1.00  0.00    -0.127 A  
HETATM   23  C   UNL     1      -7.626  10.832  67.291  1.00  0.00    -0.102 A  
HETATM   24  C   UNL     1      -9.241  12.941  68.152  1.00  0.00    -0.212 A  
HETATM   25  C   UNL     1      -7.415  12.132  66.808  1.00  0.00     0.066 A  
HETATM   26  C   UNL     1      -9.423  11.661  68.665  1.00  0.00    -0.129 A  
BRANCH  22  27
HETATM   27  O   UNL     1      -8.827   9.276  68.615  1.00  0.00    -0.130 OA 
BRANCH  27  28
HETATM   28  C   UNL     1      -9.668   9.161  69.772  1.00  0.00    -0.181 C  
BRANCH  28  29
HETATM   29  C   UNL     1      -9.038   8.361  70.916  1.00  0.00    -0.160 C  
BRANCH  29  30
HETATM   30  N   UNL     1      -9.231   6.906  70.719  1.00  0.00    -0.157 NA 
HETATM   31  C   UNL     1      -8.734   6.376  69.438  1.00  0.00    -0.129 C  
HETATM   32  C   UNL     1      -7.210   6.278  69.340  1.00  0.00    -0.082 C  
HETATM   33  C   UNL     1      -6.606   5.558  70.541  1.00  0.00    -0.040 C  
HETATM   34  C   UNL     1      -7.164   6.090  71.857  1.00  0.00    -0.092 C  
HETATM   35  C   UNL     1      -8.691   6.121  71.834  1.00  0.00    -0.137 C  
ENDBRANCH  29  30
ENDBRANCH  28  29
ENDBRANCH  27  28
ENDBRANCH  22  27
ENDBRANCH  20  21
ENDBRANCH  10  20
ENDBRANCH   6   9
ENDBRANCH   2   3
TORSDOF 8
ENDMDL
MODEL      190
REMARK 921   NORMALIZED FREE ENERGY PREDICTED BY IDOCK:    0.06 KCAL/MOL
REMARK 922        TOTAL FREE ENERGY PREDICTED BY IDOCK:   -1.67 KCAL/MOL
REMARK 923 INTER-LIGAND FREE ENERGY PREDICTED BY IDOCK:   -3.82 KCAL/MOL
REMARK 924 INTRA-LIGAND FREE ENERGY PREDICTED BY IDOCK:    2.15 KCAL/MOL
REMARK 927      BINDING AFFINITY PREDICTED BY RF-SCORE:    0.00 PKD
ROOT
HETATM    1  C   UNL     1      -6.085   8.396  71.581  1.00  0.00    -0.046 C  
HETATM    2  O   UNL     1      -6.093   8.758  70.205  1.00  0.00    -0.032 OA 
ENDROOT
BRANCH   2   3
HETATM    3  C   UNL     1      -6.052  10.093  69.921  1.00  0.00    -0.057 A  
HETATM    4  C   UNL     1      -6.236  11.135  70.827  1.00  0.00     0.191 A  
HETATM    5  C   UNL     1      -6.202  12.471  70.395  1.00  0.00     0.108 A  
HETATM    6  C   UNL     1      -5.973  12.799  69.051  1.00  0.00    -0.084 A  
HETATM    7  C   UNL     1      -5.807  10.403  68.587  1.00  0.00    -0.040 A  
HETATM    8  C   UNL     1      -5.761  11.737  68.154  1.00  0.00    -0.047 A  
BRANCH   6   9
HETATM    9  C   UNL     1      -6.015  14.212  68.596  1.00  0.00    -0.089 A  
HETATM   10  C   UNL     1      -6.630  14.802  67.496  1.00  0.00    -0.096 A  
HETATM   11  C   UNL     1      -6.320  16.216  67.349  1.00  0.00    -0.210 A  
HETATM   12  C   UNL     1      -6.262  18.519  66.486  1.00  0.00    -0.200 A  
HETATM   13  C   UNL     1      -5.555  16.665  68.428  1.00  0.00    -0.121 A  
HETATM   14  H   UNL     1      -5.502  20.870  67.036  1.00  0.00     0.000 HD 
HETATM   15  C   UNL     1      -6.667  17.185  66.366  1.00  0.00    -0.271 A  
HETATM   16  S   UNL     1      -5.131  15.388  69.482  1.00  0.00    -0.093 SA 
HETATM   17  C   UNL     1      -5.195  18.020  68.590  1.00  0.00    -0.155 A  
HETATM   18  C   UNL     1      -5.563  18.927  67.604  1.00  0.00    -0.174 A  
HETATM   19  O   UNL     1      -5.250  20.250  67.711  1.00  0.00    -0.179 OA 
BRANCH  10  20
HETATM   20  O   UNL     1      -7.502  14.069  66.744  1.00  0.00     0.290 OA 
BRANCH  20  21
HETATM   21  C   UNL     1      -8.775  13.736  67.136  1.00  0.00    -0.221 A  
HETATM   22  C   UNL     1     -11.309  12.899  68.029  1.00  0.00    -0.292 A  
HETATM   23  C   UNL     1     -10.182  12.714  68.836  1.00  0.00    -0.004 A  
HETATM   24  C   UNL     1      -9.892  13.905  66.328  1.00  0.00    -0.318 A  
HETATM   25  C   UNL     1      -8.920  13.134  68.391  1.00  0.00    -0.128 A  
HETATM   26  C   UNL     1     -11.150  13.529  66.786  1.00  0.00    -0.311 A  
BRANCH  22  27
HETATM   27  O   UNL     1     -12.510  12.420  68.508  1.00  0.00     0.043 OA 
BRANCH  27  28
HETATM   28  C   UNL     1     -12.373  11.729  69.759  1.00  0.00    -0.111 C  
BRANCH  28  29
HETATM   29  C   UNL     1     -12.073  10.235  69.610  1.00  0.00    -0.010 C  
BRANCH  29  30
HETATM   30  N   UNL     1     -10.632  10.004  69.354  1.00  0.00    -0.218 NA 
HETATM   31  C   UNL     1     -10.107   8.720  69.847  1.00  0.00    -0.191 C  
HETATM   32  C   UNL     1     -10.539   7.501  69.029  1.00  0.00    -0.190 C  
HETATM   33  C   UNL     1     -10.291   7.697  67.537  1.00  0.00    -0.326 C  
HETATM   34  C   UNL     1     -10.802   9.050  67.053  1.00  0.00    -0.044 C  
HETATM   35  C   UNL     1     -10.287  10.183  67.940  1.00  0.00    -0.194 C  
ENDBRANCH  29  30
ENDBRANCH  28  29
ENDBRANCH  27  28
ENDBRANCH  22  27
ENDBRANCH  20  21
ENDBRANCH  10  20
ENDBRANCH   6   9
ENDBRANCH   2   3
TORSDOF 8
ENDMDL
MODEL      191
REMARK 921   NORMALIZED FREE ENERGY PREDICTED BY IDOCK:    0.42 KCAL/MOL
REMARK 922        TOTAL FREE ENERGY PREDICTED BY IDOCK:   -1.13 KCAL/MOL
REMARK 923 INTER-LIGAND FREE ENERGY PREDICTED BY IDOCK:   -3.62 KCAL/MOL
REMARK 924 INTRA-LIGAND FREE ENERGY PREDICTED BY IDOCK:    2.49 KCAL/MOL
REMARK 927      BINDING AFFINITY PREDICTED BY RF-SCORE:    0.00 PKD
ROOT
HETATM    1  C   UNL     1      -5.398   5.267  67.657  1.00  0.00    -0.011 C  
HETATM    2  O   UNL     1      -6.295   6.024  66.851  1.00  0.00    -0.038 OA 
ENDROOT
BRANCH   2   3
HETATM    3  C   UNL     1      -7.229   6.771  67.508  1.00  0.00    -0.090 A  
HETATM    4  C   UNL     1      -8.610   6.705  67.333  1.00  0.00    -0.119 A  
HETATM    5  C   UNL     1      -9.462   7.558  68.052  1.00  0.00    -0.149 A  
HETATM    6  C   UNL     1      -8.958   8.489  68.971  1.00  0.00    -0.146 A  
HETATM    7  C   UNL     1      -6.716   7.677  68.430  1.00  0.00    -0.061 A  
HETATM    8  C   UNL     1      -7.566   8.524  69.159  1.00  0.00    -0.089 A  
BRANCH   6   9
HETATM    9  C   UNL     1      -9.866   9.436  69.669  1.00  0.00    -0.193 A  
HETATM   10  C   UNL     1     -10.644   9.283  70.813  1.00  0.00    -0.285 A  
HETATM   11  C   UNL     1     -11.491  10.432  71.094  1.00  0.00    -0.223 A  
HETATM   12  C   UNL     1     -13.126  11.924  72.168  1.00  0.00    -0.327 A  
HETATM   13  C   UNL     1     -11.230  11.467  70.192  1.00  0.00     0.009 A  
HETATM   14  H   UNL     1     -14.047  14.282  72.130  1.00  0.00     0.000 HD 
HETATM   15  C   UNL     1     -12.468  10.692  72.095  1.00  0.00     0.212 A  
HETATM   16  S   UNL     1     -10.110  10.994  68.990  1.00  0.00    -0.140 SA 
HETATM   17  C   UNL     1     -11.841  12.735  70.295  1.00  0.00    -0.292 A  
HETATM   18  C   UNL     1     -12.785  12.937  71.293  1.00  0.00    -0.278 A  
HETATM   19  O   UNL     1     -13.401  14.144  71.447  1.00  0.00    -0.337 OA 
BRANCH  10  20
HETATM   20  O   UNL     1     -10.486   8.170  71.586  1.00  0.00    -0.209 OA 
BRANCH  20  21
HETATM   21  C   UNL     1     -10.187   6.922  71.098  1.00  0.00    -0.195 A  
HETATM   22  C   UNL     1      -9.749   4.306  70.157  1.00  0.00    -0.212 A  
HETATM   23  C   UNL     1     -11.026   4.872  70.092  1.00  0.00     0.844 A  
HETATM   24  C   UNL     1      -8.922   6.353  71.178  1.00  0.00    -0.146 A  
HETATM   25  C   UNL     1     -11.242   6.177  70.558  1.00  0.00    -0.403 A  
HETATM   26  C   UNL     1      -8.698   5.076  70.675  1.00  0.00    -0.140 A  
BRANCH  22  27
HETATM   27  O   UNL     1      -9.617   3.003  69.726  1.00  0.00    -0.140 OA 
BRANCH  27  28
HETATM   28  C   UNL     1      -8.631   2.270  70.467  1.00  0.00    -0.053 C  
BRANCH  28  29
HETATM   29  C   UNL     1      -7.758   3.148  71.369  1.00  0.00    -0.051 C  
BRANCH  29  30
HETATM   30  N   UNL     1      -7.883   2.742  72.789  1.00  0.00    -0.056 NA 
HETATM   31  C   UNL     1      -6.615   2.673  73.534  1.00  0.00    -0.022 C  
HETATM   32  C   UNL     1      -6.009   4.035  73.884  1.00  0.00    -0.011 C  
HETATM   33  C   UNL     1      -7.025   4.959  74.547  1.00  0.00    -0.073 C  
HETATM   34  C   UNL     1      -8.346   4.984  73.786  1.00  0.00    -0.105 C  
HETATM   35  C   UNL     1      -8.853   3.568  73.515  1.00  0.00    -0.088 C  
ENDBRANCH  29  30
ENDBRANCH  28  29
ENDBRANCH  27  28
ENDBRANCH  22  27
ENDBRANCH  20  21
ENDBRANCH  10  20
ENDBRANCH   6   9
ENDBRANCH   2   3
TORSDOF 8
ENDMDL
MODEL      192
REMARK 921   NORMALIZED FREE ENERGY PREDICTED BY IDOCK:    1.02 KCAL/MOL
REMARK 922        TOTAL FREE ENERGY PREDICTED BY IDOCK:   -0.25 KCAL/MOL
REMARK 923 INTER-LIGAND FREE ENERGY PREDICTED BY IDOCK:    0.90 KCAL/MOL
REMARK 924 INTRA-LIGAND FREE ENERGY PREDICTED BY IDOCK:   -1.15 KCAL/MOL
REMARK 927      BINDING AFFINITY PREDICTED BY RF-SCORE:    0.00 PKD
ROOT
HETATM    1  C   UNL     1     -11.118   1.467  67.636  1.00  0.00     6.243 C  
HETATM    2  O   UNL     1      -9.697   1.529  67.643  1.00  0.00    -0.030 OA 
ENDROOT
BRANCH   2   3
HETATM    3  C   UNL     1      -9.132   2.720  67.286  1.00  0.00    -0.174 A  
HETATM    4  C   UNL     1      -8.808   3.768  68.145  1.00  0.00    -0.144 A  
HETATM    5  C   UNL     1      -8.260   4.959  67.641  1.00  0.00    -0.105 A  
HETATM    6  C   UNL     1      -8.012   5.128  66.272  1.00  0.00    -0.104 A  
HETATM    7  C   UNL     1      -8.875   2.866  65.927  1.00  0.00    -0.141 A  
HETATM    8  C   UNL     1      -8.317   4.051  65.422  1.00  0.00    -0.109 A  
BRANCH   6   9
HETATM    9  C   UNL     1      -7.502   6.420  65.746  1.00  0.00    -0.082 A  
HETATM   10  C   UNL     1      -7.461   7.689  66.316  1.00  0.00    -0.083 A  
HETATM   11  C   UNL     1      -6.983   8.718  65.405  1.00  0.00    -0.076 A  
HETATM   12  C   UNL     1      -6.300  10.897  64.492  1.00  0.00     0.422 A  
HETATM   13  C   UNL     1      -6.573   8.151  64.196  1.00  0.00    -0.066 A  
HETATM   14  H   UNL     1      -5.185  12.003  62.506  1.00  0.00     0.000 HD 
HETATM   15  C   UNL     1      -6.835  10.127  65.531  1.00  0.00    -0.130 A  
HETATM   16  S   UNL     1      -6.892   6.472  64.141  1.00  0.00    -0.047 SA 
HETATM   17  C   UNL     1      -5.975   8.909  63.167  1.00  0.00    -0.089 A  
HETATM   18  C   UNL     1      -5.849  10.281  63.342  1.00  0.00    -0.148 A  
HETATM   19  O   UNL     1      -5.271  11.064  62.386  1.00  0.00    -0.156 OA 
BRANCH  10  20
HETATM   20  O   UNL     1      -7.765   7.838  67.638  1.00  0.00    -0.116 OA 
BRANCH  20  21
HETATM   21  C   UNL     1      -8.776   8.634  68.117  1.00  0.00    -0.142 A  
HETATM   22  C   UNL     1     -10.869  10.335  68.920  1.00  0.00    -0.228 A  
HETATM   23  C   UNL     1     -10.886   9.749  67.651  1.00  0.00    -0.301 A  
HETATM   24  C   UNL     1      -8.750   9.229  69.372  1.00  0.00    -0.148 A  
HETATM   25  C   UNL     1      -9.844   8.899  67.253  1.00  0.00    -0.256 A  
HETATM   26  C   UNL     1      -9.805  10.037  69.784  1.00  0.00    -0.270 A  
BRANCH  22  27
HETATM   27  O   UNL     1     -11.900  11.197  69.228  1.00  0.00    -0.301 OA 
BRANCH  27  28
HETATM   28  C   UNL     1     -11.462  12.556  69.372  1.00  0.00    -0.263 C  
BRANCH  28  29
HETATM   29  C   UNL     1     -11.760  13.434  68.153  1.00  0.00    -0.362 C  
BRANCH  29  30
HETATM   30  N   UNL     1     -10.561  13.579  67.295  1.00  0.00    -0.261 NA 
HETATM   31  C   UNL     1     -10.812  13.475  65.847  1.00  0.00    -0.275 C  
HETATM   32  C   UNL     1     -11.507  14.693  65.235  1.00  0.00    -0.361 C  
HETATM   33  C   UNL     1     -10.814  15.998  65.614  1.00  0.00    -0.273 C  
HETATM   34  C   UNL     1     -10.524  16.069  67.109  1.00  0.00    -0.308 C  
HETATM   35  C   UNL     1      -9.814  14.805  67.593  1.00  0.00    -0.218 C  
ENDBRANCH  29  30
ENDBRANCH  28  29
ENDBRANCH  27  28
ENDBRANCH  22  27
ENDBRANCH  20  21
ENDBRANCH  10  20
ENDBRANCH   6   9
ENDBRANCH   2   3
TORSDOF 8
ENDMDL
MODEL      193
REMARK 921   NORMALIZED FREE ENERGY PREDICTED BY IDOCK:    1.13 KCAL/MOL
REMARK 922        TOTAL FREE ENERGY PREDICTED BY IDOCK:   -0.09 KCAL/MOL
REMARK 923 INTER-LIGAND FREE ENERGY PREDICTED BY IDOCK:   -0.14 KCAL/MOL
REMARK 924 INTRA-LIGAND FREE ENERGY PREDICTED BY IDOCK:    0.05 KCAL/MOL
REMARK 927      BINDING AFFINITY PREDICTED BY RF-SCORE:    0.00 PKD
ROOT
HETATM    1  C   UNL     1     -11.211  18.029  69.792  1.00  0.00     2.376 C  
HETATM    2  O   UNL     1     -12.373  17.287  70.144  1.00  0.00     3.067 OA 
ENDROOT
BRANCH   2   3
HETATM    3  C   UNL     1     -12.261  15.927  70.129  1.00  0.00    -0.218 A  
HETATM    4  C   UNL     1     -12.596  15.060  71.167  1.00  0.00    -0.416 A  
HETATM    5  C   UNL     1     -12.399  13.676  71.033  1.00  0.00    -0.436 A  
HETATM    6  C   UNL     1     -11.874  13.123  69.857  1.00  0.00    -0.378 A  
HETATM    7  C   UNL     1     -11.756  15.391  68.949  1.00  0.00    -0.377 A  
HETATM    8  C   UNL     1     -11.569  14.007  68.807  1.00  0.00    -0.366 A  
BRANCH   6   9
HETATM    9  C   UNL     1     -11.602  11.666  69.757  1.00  0.00    -0.315 A  
HETATM   10  C   UNL     1     -11.068  10.904  68.723  1.00  0.00    -0.256 A  
HETATM   11  C   UNL     1     -11.081   9.473  68.993  1.00  0.00    -0.060 A  
HETATM   12  C   UNL     1     -10.779   7.045  68.743  1.00  0.00    -0.226 A  
HETATM   13  C   UNL     1     -11.534   9.223  70.290  1.00  0.00    -0.162 A  
HETATM   14  H   UNL     1     -10.900   4.849  69.997  1.00  0.00     0.000 HD 
HETATM   15  C   UNL     1     -10.702   8.341  68.220  1.00  0.00    -0.076 A  
HETATM   16  S   UNL     1     -12.044  10.655  71.073  1.00  0.00    -0.355 SA 
HETATM   17  C   UNL     1     -11.556   7.927  70.849  1.00  0.00    -0.286 A  
HETATM   18  C   UNL     1     -11.171   6.855  70.053  1.00  0.00    -0.299 A  
HETATM   19  O   UNL     1     -11.163   5.582  70.542  1.00  0.00    -0.141 OA 
BRANCH  10  20
HETATM   20  O   UNL     1     -10.519  11.531  67.643  1.00  0.00    -0.181 OA 
BRANCH  20  21
HETATM   21  C   UNL     1      -9.315  12.191  67.659  1.00  0.00    -0.187 A  
HETATM   22  C   UNL     1      -6.869  13.564  67.881  1.00  0.00    -0.151 A  
HETATM   23  C   UNL     1      -7.290  12.709  68.903  1.00  0.00    -0.016 A  
HETATM   24  C   UNL     1      -8.903  13.053  66.650  1.00  0.00    -0.083 A  
HETATM   25  C   UNL     1      -8.508  12.023  68.790  1.00  0.00     0.065 A  
HETATM   26  C   UNL     1      -7.676  13.700  66.741  1.00  0.00     0.583 A  
BRANCH  22  27
HETATM   27  O   UNL     1      -5.685  14.244  68.078  1.00  0.00    -0.121 OA 
BRANCH  27  28
HETATM   28  C   UNL     1      -5.449  15.249  67.081  1.00  0.00     0.615 C  
BRANCH  28  29
HETATM   29  C   UNL     1      -6.345  16.482  67.222  1.00  0.00    -0.178 C  
BRANCH  29  30
HETATM   30  N   UNL     1      -6.871  16.604  68.602  1.00  0.00    -0.159 NA 
HETATM   31  C   UNL     1      -5.865  16.924  69.629  1.00  0.00    -0.210 C  
HETATM   32  C   UNL     1      -5.363  18.369  69.598  1.00  0.00    -0.201 C  
HETATM   33  C   UNL     1      -6.512  19.373  69.575  1.00  0.00    -0.356 C  
HETATM   34  C   UNL     1      -7.564  19.002  68.536  1.00  0.00    -0.364 C  
HETATM   35  C   UNL     1      -7.994  17.543  68.684  1.00  0.00    -0.268 C  
ENDBRANCH  29  30
ENDBRANCH  28  29
ENDBRANCH  27  28
ENDBRANCH  22  27
ENDBRANCH  20  21
ENDBRANCH  10  20
ENDBRANCH   6   9
ENDBRANCH   2   3
TORSDOF 8
ENDMDL
MODEL      194
REMARK 921   NORMALIZED FREE ENERGY PREDICTED BY IDOCK:    1.27 KCAL/MOL
REMARK 922        TOTAL FREE ENERGY PREDICTED BY IDOCK:    0.12 KCAL/MOL
REMARK 923 INTER-LIGAND FREE ENERGY PREDICTED BY IDOCK:    1.13 KCAL/MOL
REMARK 924 INTRA-LIGAND FREE ENERGY PREDICTED BY IDOCK:   -1.01 KCAL/MOL
REMARK 927      BINDING AFFINITY PREDICTED BY RF-SCORE:    0.00 PKD
ROOT
HETATM    1  C   UNL     1     -11.866   5.998  70.305  1.00  0.00     0.339 C  
HETATM    2  O   UNL     1     -12.967   6.727  70.837  1.00  0.00    -0.212 OA 
ENDROOT
BRANCH   2   3
HETATM    3  C   UNL     1     -12.826   8.083  70.914  1.00  0.00     0.131 A  
HETATM    4  C   UNL     1     -13.658   8.960  71.606  1.00  0.00    -0.432 A  
HETATM    5  C   UNL     1     -13.420  10.344  71.576  1.00  0.00    -0.303 A  
HETATM    6  C   UNL     1     -12.339  10.883  70.864  1.00  0.00    -0.501 A  
HETATM    7  C   UNL     1     -11.739   8.602  70.219  1.00  0.00     0.076 A  
HETATM    8  C   UNL     1     -11.491   9.983  70.196  1.00  0.00    -0.344 A  
BRANCH   6   9
HETATM    9  C   UNL     1     -12.142  12.353  70.780  1.00  0.00    -0.149 A  
HETATM   10  C   UNL     1     -11.646  13.153  69.755  1.00  0.00    -0.221 A  
HETATM   11  C   UNL     1     -11.507  14.553  70.129  1.00  0.00    -0.297 A  
HETATM   12  C   UNL     1     -11.016  16.961  70.030  1.00  0.00     0.142 A  
HETATM   13  C   UNL     1     -12.015  14.770  71.412  1.00  0.00    -0.345 A  
HETATM   14  H   UNL     1     -11.300  19.140  71.287  1.00  0.00     0.000 HD 
HETATM   15  C   UNL     1     -10.999  15.691  69.443  1.00  0.00    -0.283 A  
HETATM   16  S   UNL     1     -12.504  13.312  72.158  1.00  0.00     0.420 SA 
HETATM   17  C   UNL     1     -12.095  16.057  71.988  1.00  0.00    -0.606 A  
HETATM   18  C   UNL     1     -11.589  17.135  71.274  1.00  0.00     1.399 A  
HETATM   19  O   UNL     1     -11.647  18.402  71.776  1.00  0.00     3.571 OA 
BRANCH  10  20
HETATM   20  O   UNL     1     -11.435  12.607  68.523  1.00  0.00    -0.263 OA 
BRANCH  20  21
HETATM   21  C   UNL     1     -10.197  12.416  67.960  1.00  0.00    -0.219 A  
HETATM   22  C   UNL     1      -7.746  11.916  66.672  1.00  0.00     0.018 A  
HETATM   23  C   UNL     1      -8.917  12.063  65.923  1.00  0.00     0.035 A  
HETATM   24  C   UNL     1      -9.036  12.254  68.706  1.00  0.00     0.129 A  
HETATM   25  C   UNL     1     -10.137  12.315  66.566  1.00  0.00    -0.232 A  
HETATM   26  C   UNL     1      -7.819  12.048  68.067  1.00  0.00    -0.145 A  
BRANCH  22  27
HETATM   27  O   UNL     1      -6.590  11.623  65.980  1.00  0.00     0.201 OA 
BRANCH  27  28
HETATM   28  C   UNL     1      -6.407  10.214  65.778  1.00  0.00    -0.102 C  
BRANCH  28  29
HETATM   29  C   UNL     1      -7.718   9.426  65.696  1.00  0.00    -0.099 C  
BRANCH  29  30
HETATM   30  N   UNL     1      -7.460   7.968  65.633  1.00  0.00    -0.078 NA 
HETATM   31  C   UNL     1      -6.538   7.450  66.657  1.00  0.00    -0.053 C  
HETATM   32  C   UNL     1      -7.131   7.374  68.066  1.00  0.00    -0.081 C  
HETATM   33  C   UNL     1      -8.479   6.660  68.081  1.00  0.00    -0.116 C  
HETATM   34  C   UNL     1      -9.405   7.179  66.986  1.00  0.00    -0.181 C  
HETATM   35  C   UNL     1      -8.702   7.188  65.629  1.00  0.00    -0.068 C  
ENDBRANCH  29  30
ENDBRANCH  28  29
ENDBRANCH  27  28
ENDBRANCH  22  27
ENDBRANCH  20  21
ENDBRANCH  10  20
ENDBRANCH   6   9
ENDBRANCH   2   3
TORSDOF 8
ENDMDL
MODEL      195
REMARK 921   NORMALIZED FREE ENERGY PREDICTED BY IDOCK:    1.88 KCAL/MOL
REMARK 922        TOTAL FREE ENERGY PREDICTED BY IDOCK:    1.01 KCAL/MOL
REMARK 923 INTER-LIGAND FREE ENERGY PREDICTED BY IDOCK:   -1.67 KCAL/MOL
REMARK 924 INTRA-LIGAND FREE ENERGY PREDICTED BY IDOCK:    2.69 KCAL/MOL
REMARK 927      BINDING AFFINITY PREDICTED BY RF-SCORE:    0.00 PKD
ROOT
HETATM    1  C   UNL     1      -6.351   5.090  73.810  1.00  0.00    -0.061 C  
HETATM    2  O   UNL     1      -6.043   6.448  73.516  1.00  0.00    -0.061 OA 
ENDROOT
BRANCH   2   3
HETATM    3  C   UNL     1      -6.501   6.938  72.327  1.00  0.00    -0.057 A  
HETATM    4  C   UNL     1      -7.753   6.701  71.764  1.00  0.00    -0.097 A  
HETATM    5  C   UNL     1      -8.086   7.240  70.511  1.00  0.00    -0.109 A  
HETATM    6  C   UNL     1      -7.183   8.039  69.796  1.00  0.00    -0.065 A  
HETATM    7  C   UNL     1      -5.600   7.743  71.637  1.00  0.00    -0.035 A  
HETATM    8  C   UNL     1      -5.934   8.294  70.390  1.00  0.00    -0.028 A  
BRANCH   6   9
HETATM    9  C   UNL     1      -7.522   8.541  68.440  1.00  0.00    -0.095 A  
HETATM   10  C   UNL     1      -7.545   9.833  67.922  1.00  0.00    -0.086 A  
HETATM   11  C   UNL     1      -8.056   9.900  66.560  1.00  0.00    -0.117 A  
HETATM   12  C   UNL     1      -8.774  10.769  64.374  1.00  0.00    -0.087 A  
HETATM   13  C   UNL     1      -8.298   8.617  66.063  1.00  0.00    -0.131 A  
HETATM   14  H   UNL     1      -9.479  10.065  62.046  1.00  0.00     0.000 HD 
HETATM   15  C   UNL     1      -8.309  10.985  65.676  1.00  0.00    -0.060 A  
HETATM   16  S   UNL     1      -8.044   7.416  67.253  1.00  0.00    -0.112 SA 
HETATM   17  C   UNL     1      -8.706   8.385  64.732  1.00  0.00    -0.013 A  
HETATM   18  C   UNL     1      -8.936   9.479  63.908  1.00  0.00    -0.179 A  
HETATM   19  O   UNL     1      -9.322   9.315  62.610  1.00  0.00    -0.053 OA 
BRANCH  10  20
HETATM   20  O   UNL     1      -7.027  10.858  68.657  1.00  0.00    -0.064 OA 
BRANCH  20  21
HETATM   21  C   UNL     1      -7.285  12.187  68.425  1.00  0.00    -0.097 A  
HETATM   22  C   UNL     1      -7.954  14.899  68.082  1.00  0.00    -0.130 A  
HETATM   23  C   UNL     1      -8.033  14.309  69.347  1.00  0.00     0.218 A  
HETATM   24  C   UNL     1      -7.223  12.769  67.164  1.00  0.00    -0.014 A  
HETATM   25  C   UNL     1      -7.696  12.958  69.517  1.00  0.00     0.834 A  
HETATM   26  C   UNL     1      -7.514  14.119  67.003  1.00  0.00     0.283 A  
BRANCH  22  27
HETATM   27  O   UNL     1      -8.345  16.217  67.978  1.00  0.00    -0.161 OA 
BRANCH  27  28
HETATM   28  C   UNL     1      -7.538  17.099  68.772  1.00  0.00    -0.259 C  
BRANCH  28  29
HETATM   29  C   UNL     1      -7.986  18.563  68.719  1.00  0.00    -0.267 C  
BRANCH  29  30
HETATM   30  N   UNL     1      -7.297  19.292  67.629  1.00  0.00    -0.234 NA 
HETATM   31  C   UNL     1      -5.853  19.028  67.514  1.00  0.00    -0.176 C  
HETATM   32  C   UNL     1      -5.503  17.655  66.936  1.00  0.00    -0.181 C  
HETATM   33  C   UNL     1      -6.252  17.373  65.638  1.00  0.00     0.280 C  
HETATM   34  C   UNL     1      -7.738  17.693  65.763  1.00  0.00     0.035 C  
HETATM   35  C   UNL     1      -7.953  19.094  66.332  1.00  0.00    -0.294 C  
ENDBRANCH  29  30
ENDBRANCH  28  29
ENDBRANCH  27  28
ENDBRANCH  22  27
ENDBRANCH  20  21
ENDBRANCH  10  20
ENDBRANCH   6   9
ENDBRANCH   2   3
TORSDOF 8
ENDMDL
MODEL      196
REMARK 921   NORMALIZED FREE ENERGY PREDICTED BY IDOCK:    1.91 KCAL/MOL
REMARK 922        TOTAL FREE ENERGY PREDICTED BY IDOCK:    1.05 KCAL/MOL
REMARK 923 INTER-LIGAND FREE ENERGY PREDICTED BY IDOCK:   -0.92 KCAL/MOL
REMARK 924 INTRA-LIGAND FREE ENERGY PREDICTED BY IDOCK:    1.98 KCAL/MOL
REMARK 927      BINDING AFFINITY PREDICTED BY RF-SCORE:    0.00 PKD
ROOT
HETATM    1  C   UNL     1      -8.468  17.536  69.046  1.00  0.00    -0.037 C  
HETATM    2  O   UNL     1      -8.702  17.197  67.684  1.00  0.00    -0.210 OA 
ENDROOT
BRANCH   2   3
HETATM    3  C   UNL     1      -8.704  15.868  67.373  1.00  0.00    -0.181 A  
HETATM    4  C   UNL     1      -9.044  15.309  66.143  1.00  0.00    -0.314 A  
HETATM    5  C   UNL     1      -9.037  13.916  65.965  1.00  0.00     0.179 A  
HETATM    6  C   UNL     1      -8.679  13.049  67.006  1.00  0.00    -0.195 A  
HETATM    7  C   UNL     1      -8.329  15.021  68.410  1.00  0.00    -0.154 A  
HETATM    8  C   UNL     1      -8.310  13.629  68.233  1.00  0.00    -0.165 A  
BRANCH   6   9
HETATM    9  C   UNL     1      -8.748  11.576  66.826  1.00  0.00    -0.178 A  
HETATM   10  C   UNL     1      -8.959  10.551  67.743  1.00  0.00    -0.132 A  
HETATM   11  C   UNL     1      -8.831   9.221  67.164  1.00  0.00    -0.137 A  
HETATM   12  C   UNL     1      -8.781   6.775  66.916  1.00  0.00    -0.117 A  
HETATM   13  C   UNL     1      -8.631   9.305  65.783  1.00  0.00    -0.152 A  
HETATM   14  H   UNL     1      -8.661   4.914  65.204  1.00  0.00     0.000 HD 
HETATM   15  C   UNL     1      -8.902   7.914  67.719  1.00  0.00    -0.122 A  
HETATM   16  S   UNL     1      -8.472  10.925  65.261  1.00  0.00     0.011 SA 
HETATM   17  C   UNL     1      -8.571   8.163  64.955  1.00  0.00    -0.076 A  
HETATM   18  C   UNL     1      -8.650   6.910  65.548  1.00  0.00    -0.077 A  
HETATM   19  O   UNL     1      -8.607   5.771  64.798  1.00  0.00    -0.130 OA 
BRANCH  10  20
HETATM   20  O   UNL     1      -9.342  10.859  69.015  1.00  0.00    -0.188 OA 
BRANCH  20  21
HETATM   21  C   UNL     1     -10.475  11.566  69.334  1.00  0.00     0.049 A  
HETATM   22  C   UNL     1     -12.861  12.858  70.083  1.00  0.00     0.375 A  
HETATM   23  C   UNL     1     -12.251  11.949  70.952  1.00  0.00    -0.351 A  
HETATM   24  C   UNL     1     -11.091  12.457  68.463  1.00  0.00    -0.296 A  
HETATM   25  C   UNL     1     -11.061  11.308  70.579  1.00  0.00     0.489 A  
HETATM   26  C   UNL     1     -12.247  13.126  68.850  1.00  0.00    -0.097 A  
BRANCH  22  27
HETATM   27  O   UNL     1     -14.054  13.416  70.492  1.00  0.00     1.403 OA 
BRANCH  27  28
HETATM   28  C   UNL     1     -13.874  14.456  71.465  1.00  0.00    -0.379 C  
BRANCH  28  29
HETATM   29  C   UNL     1     -13.563  13.939  72.873  1.00  0.00    -0.167 C  
BRANCH  29  30
HETATM   30  N   UNL     1     -12.137  14.149  73.214  1.00  0.00     0.183 NA 
HETATM   31  C   UNL     1     -11.355  14.888  72.209  1.00  0.00     0.090 C  
HETATM   32  C   UNL     1     -11.653  16.388  72.149  1.00  0.00    -0.336 C  
HETATM   33  C   UNL     1     -11.593  17.038  73.528  1.00  0.00     0.468 C  
HETATM   34  C   UNL     1     -12.373  16.236  74.564  1.00  0.00    -0.584 C  
HETATM   35  C   UNL     1     -11.971  14.762  74.536  1.00  0.00     0.605 C  
ENDBRANCH  29  30
ENDBRANCH  28  29
ENDBRANCH  27  28
ENDBRANCH  22  27
ENDBRANCH  20  21
ENDBRANCH  10  20
ENDBRANCH   6   9
ENDBRANCH   2   3
TORSDOF 8
ENDMDL
MODEL      197
REMARK 921   NORMALIZED FREE ENERGY PREDICTED BY IDOCK:    2.02 KCAL/MOL
REMARK 922        TOTAL FREE ENERGY PREDICTED BY IDOCK:    1.21 KCAL/MOL
REMARK 923 INTER-LIGAND FREE ENERGY PREDICTED BY IDOCK:   -3.17 KCAL/MOL
REMARK 924 INTRA-LIGAND FREE ENERGY PREDICTED BY IDOCK:    4.39 KCAL/MOL
REMARK 927      BINDING AFFINITY PREDICTED BY RF-SCORE:    0.00 PKD
ROOT
HETATM    1  C   UNL     1     -13.045  16.642  73.277  1.00  0.00     0.389 C  
HETATM    2  O   UNL     1     -14.022  15.747  72.759  1.00  0.00    -0.590 OA 
ENDROOT
BRANCH   2   3
HETATM    3  C   UNL     1     -13.567  14.557  72.267  1.00  0.00    -0.440 A  
HETATM    4  C   UNL     1     -14.047  13.292  72.597  1.00  0.00    -0.170 A  
HETATM    5  C   UNL     1     -13.463  12.141  72.042  1.00  0.00    -0.388 A  
HETATM    6  C   UNL     1     -12.396  12.226  71.137  1.00  0.00    -0.251 A  
HETATM    7  C   UNL     1     -12.520  14.659  71.357  1.00  0.00    -0.410 A  
HETATM    8  C   UNL     1     -11.942  13.511  70.792  1.00  0.00    -0.255 A  
BRANCH   6   9
HETATM    9  C   UNL     1     -11.741  10.999  70.617  1.00  0.00    -0.269 A  
HETATM   10  C   UNL     1     -10.526  10.817  69.963  1.00  0.00     0.101 A  
HETATM   11  C   UNL     1     -10.312   9.450  69.510  1.00  0.00    -0.223 A  
HETATM   12  C   UNL     1      -9.289   7.459  68.492  1.00  0.00    -0.141 A  
HETATM   13  C   UNL     1     -11.348   8.621  69.946  1.00  0.00     0.049 A  
HETATM   14  H   UNL     1      -9.526   4.948  68.270  1.00  0.00     0.000 HD 
HETATM   15  C   UNL     1      -9.270   8.831  68.765  1.00  0.00    -0.141 A  
HETATM   16  S   UNL     1     -12.576   9.504  70.744  1.00  0.00    -0.010 SA 
HETATM   17  C   UNL     1     -11.345   7.226  69.731  1.00  0.00    -0.098 A  
HETATM   18  C   UNL     1     -10.301   6.670  69.001  1.00  0.00    -0.192 A  
HETATM   19  O   UNL     1     -10.240   5.328  68.770  1.00  0.00    -0.182 OA 
BRANCH  10  20
HETATM   20  O   UNL     1      -9.643  11.854  69.890  1.00  0.00     1.478 OA 
BRANCH  20  21
HETATM   21  C   UNL     1      -9.481  12.659  68.789  1.00  0.00     0.123 A  
HETATM   22  C   UNL     1      -9.332  14.366  66.557  1.00  0.00    -0.278 A  
HETATM   23  C   UNL     1     -10.090  14.732  67.673  1.00  0.00    -0.227 A  
HETATM   24  C   UNL     1      -8.741  12.288  67.674  1.00  0.00    -0.175 A  
HETATM   25  C   UNL     1     -10.162  13.882  68.786  1.00  0.00    -0.188 A  
HETATM   26  C   UNL     1      -8.634  13.150  66.588  1.00  0.00     0.042 A  
BRANCH  22  27
HETATM   27  O   UNL     1      -9.345  15.226  65.479  1.00  0.00    -0.222 OA 
BRANCH  27  28
HETATM   28  C   UNL     1     -10.645  15.779  65.226  1.00  0.00    -0.423 C  
BRANCH  28  29
HETATM   29  C   UNL     1     -11.768  14.739  65.221  1.00  0.00    -0.311 C  
BRANCH  29  30
HETATM   30  N   UNL     1     -11.226  13.367  65.354  1.00  0.00    -0.286 NA 
HETATM   31  C   UNL     1     -12.234  12.308  65.525  1.00  0.00    -0.168 C  
HETATM   32  C   UNL     1     -13.019  11.969  64.255  1.00  0.00    -0.095 C  
HETATM   33  C   UNL     1     -12.099  11.711  63.066  1.00  0.00     0.052 C  
HETATM   34  C   UNL     1     -11.035  12.795  62.931  1.00  0.00     1.088 C  
HETATM   35  C   UNL     1     -10.313  13.025  64.258  1.00  0.00    -0.362 C  
ENDBRANCH  29  30
ENDBRANCH  28  29
ENDBRANCH  27  28
ENDBRANCH  22  27
ENDBRANCH  20  21
ENDBRANCH  10  20
ENDBRANCH   6   9
ENDBRANCH   2   3
TORSDOF 8
ENDMDL
MODEL      198
REMARK 921   NORMALIZED FREE ENERGY PREDICTED BY IDOCK:    2.12 KCAL/MOL
REMARK 922        TOTAL FREE ENERGY PREDICTED BY IDOCK:    1.36 KCAL/MOL
REMARK 923 INTER-LIGAND FREE ENERGY PREDICTED BY IDOCK:    2.06 KCAL/MOL
REMARK 924 INTRA-LIGAND FREE ENERGY PREDICTED BY IDOCK:   -0.70 KCAL/MOL
REMARK 927      BINDING AFFINITY PREDICTED BY RF-SCORE:    0.00 PKD
ROOT
HETATM    1  C   UNL     1     -12.998  17.155  67.890  1.00  0.00     5.280 C  
HETATM    2  O   UNL     1     -12.022  16.822  68.870  1.00  0.00     0.302 OA 
ENDROOT
BRANCH   2   3
HETATM    3  C   UNL     1     -11.903  15.501  69.194  1.00  0.00    -0.354 A  
HETATM    4  C   UNL     1     -12.000  14.424  68.316  1.00  0.00    -0.323 A  
HETATM    5  C   UNL     1     -11.892  13.106  68.788  1.00  0.00    -0.361 A  
HETATM    6  C   UNL     1     -11.671  12.832  70.145  1.00  0.00    -0.239 A  
HETATM    7  C   UNL     1     -11.666  15.245  70.541  1.00  0.00    -0.355 A  
HETATM    8  C   UNL     1     -11.546  13.929  71.015  1.00  0.00     0.227 A  
BRANCH   6   9
HETATM    9  C   UNL     1     -11.633  11.432  70.641  1.00  0.00     0.071 A  
HETATM   10  C   UNL     1     -10.802  10.366  70.309  1.00  0.00    -0.242 A  
HETATM   11  C   UNL     1     -11.183   9.115  70.949  1.00  0.00    -0.359 A  
HETATM   12  C   UNL     1     -11.208   6.752  71.630  1.00  0.00    -0.293 A  
HETATM   13  C   UNL     1     -12.241   9.321  71.837  1.00  0.00    -0.378 A  
HETATM   14  H   UNL     1     -12.286   5.118  73.236  1.00  0.00     0.000 HD 
HETATM   15  C   UNL     1     -10.673   7.790  70.860  1.00  0.00    -0.229 A  
HETATM   16  S   UNL     1     -12.817  10.929  71.778  1.00  0.00    -0.325 SA 
HETATM   17  C   UNL     1     -12.746   8.295  72.665  1.00  0.00    -0.137 A  
HETATM   18  C   UNL     1     -12.211   7.019  72.541  1.00  0.00     0.077 A  
HETATM   19  O   UNL     1     -12.653   5.991  73.321  1.00  0.00     1.150 OA 
BRANCH  10  20
HETATM   20  O   UNL     1      -9.703  10.591  69.532  1.00  0.00    -0.202 OA 
BRANCH  20  21
HETATM   21  C   UNL     1      -9.065   9.625  68.794  1.00  0.00    -0.134 A  
HETATM   22  C   UNL     1      -7.588   7.716  67.348  1.00  0.00    -0.109 A  
HETATM   23  C   UNL     1      -7.152   8.135  68.608  1.00  0.00    -0.072 A  
HETATM   24  C   UNL     1      -9.489   9.221  67.534  1.00  0.00    -0.160 A  
HETATM   25  C   UNL     1      -7.890   9.084  69.329  1.00  0.00    -0.095 A  
HETATM   26  C   UNL     1      -8.782   8.247  66.838  1.00  0.00    -0.141 A  
BRANCH  22  27
HETATM   27  O   UNL     1      -6.789   6.816  66.673  1.00  0.00    -0.058 OA 
BRANCH  27  28
HETATM   28  C   UNL     1      -7.371   5.506  66.597  1.00  0.00    -0.083 C  
BRANCH  28  29
HETATM   29  C   UNL     1      -7.955   5.169  65.222  1.00  0.00    -0.108 C  
BRANCH  29  30
HETATM   30  N   UNL     1      -8.095   3.704  65.047  1.00  0.00    -0.090 NA 
HETATM   31  C   UNL     1      -8.140   3.242  63.650  1.00  0.00    -0.085 C  
HETATM   32  C   UNL     1      -6.794   3.289  62.922  1.00  0.00    -0.031 C  
HETATM   33  C   UNL     1      -5.686   2.614  63.724  1.00  0.00    -0.010 C  
HETATM   34  C   UNL     1      -5.683   3.073  65.178  1.00  0.00    -0.018 C  
HETATM   35  C   UNL     1      -7.077   2.960  65.795  1.00  0.00    -0.061 C  
ENDBRANCH  29  30
ENDBRANCH  28  29
ENDBRANCH  27  28
ENDBRANCH  22  27
ENDBRANCH  20  21
ENDBRANCH  10  20
ENDBRANCH   6   9
ENDBRANCH   2   3
TORSDOF 8
ENDMDL
MODEL      199
REMARK 921   NORMALIZED FREE ENERGY PREDICTED BY IDOCK:    2.24 KCAL/MOL
REMARK 922        TOTAL FREE ENERGY PREDICTED BY IDOCK:    1.53 KCAL/MOL
REMARK 923 INTER-LIGAND FREE ENERGY PREDICTED BY IDOCK:   -1.42 KCAL/MOL
REMARK 924 INTRA-LIGAND FREE ENERGY PREDICTED BY IDOCK:    2.96 KCAL/MOL
REMARK 927      BINDING AFFINITY PREDICTED BY RF-SCORE:    0.00 PKD
ROOT
HETATM    1  C   UNL     1     -13.742  11.730  70.935  1.00  0.00     1.630 C  
HETATM    2  O   UNL     1     -13.813  10.329  71.172  1.00  0.00    -0.006 OA 
ENDROOT
BRANCH   2   3
HETATM    3  C   UNL     1     -12.870   9.553  70.562  1.00  0.00     0.195 A  
HETATM    4  C   UNL     1     -12.620   8.206  70.814  1.00  0.00     0.172 A  
HETATM    5  C   UNL     1     -11.591   7.532  70.137  1.00  0.00    -0.046 A  
HETATM    6  C   UNL     1     -10.795   8.182  69.184  1.00  0.00    -0.033 A  
HETATM    7  C   UNL     1     -12.100  10.207  69.605  1.00  0.00     0.012 A  
HETATM    8  C   UNL     1     -11.078   9.533  68.918  1.00  0.00    -0.050 A  
BRANCH   6   9
HETATM    9  C   UNL     1      -9.664   7.476  68.530  1.00  0.00    -0.156 A  
HETATM   10  C   UNL     1      -8.951   7.766  67.370  1.00  0.00    -0.123 A  
HETATM   11  C   UNL     1      -7.984   6.739  67.013  1.00  0.00    -0.109 A  
HETATM   12  C   UNL     1      -6.224   5.498  65.825  1.00  0.00    -0.034 A  
HETATM   13  C   UNL     1      -7.932   5.751  67.999  1.00  0.00    -0.101 A  
HETATM   14  H   UNL     1      -4.668   3.510  66.012  1.00  0.00     0.000 HD 
HETATM   15  C   UNL     1      -7.100   6.586  65.909  1.00  0.00    -0.062 A  
HETATM   16  S   UNL     1      -9.105   6.005  69.216  1.00  0.00    -0.124 SA 
HETATM   17  C   UNL     1      -7.008   4.684  67.955  1.00  0.00    -0.057 A  
HETATM   18  C   UNL     1      -6.164   4.582  66.856  1.00  0.00    -0.032 A  
HETATM   19  O   UNL     1      -5.245   3.579  66.764  1.00  0.00    -0.011 OA 
BRANCH  10  20
HETATM   20  O   UNL     1      -9.140   8.968  66.752  1.00  0.00    -0.136 OA 
BRANCH  20  21
HETATM   21  C   UNL     1      -8.653  10.164  67.216  1.00  0.00    -0.125 A  
HETATM   22  C   UNL     1      -7.562  12.519  68.306  1.00  0.00    -0.129 A  
HETATM   23  C   UNL     1      -6.823  11.332  68.313  1.00  0.00    -0.064 A  
HETATM   24  C   UNL     1      -9.394  11.340  67.223  1.00  0.00    -0.173 A  
HETATM   25  C   UNL     1      -7.367  10.160  67.767  1.00  0.00    -0.088 A  
HETATM   26  C   UNL     1      -8.839  12.512  67.725  1.00  0.00    -0.178 A  
BRANCH  22  27
HETATM   27  O   UNL     1      -6.987  13.621  68.902  1.00  0.00    -0.105 OA 
BRANCH  27  28
HETATM   28  C   UNL     1      -7.947  14.635  69.237  1.00  0.00    -0.055 C  
BRANCH  28  29
HETATM   29  C   UNL     1      -9.138  14.700  68.276  1.00  0.00    -0.189 C  
BRANCH  29  30
HETATM   30  N   UNL     1      -9.292  16.061  67.711  1.00  0.00    -0.210 NA 
HETATM   31  C   UNL     1      -9.193  17.159  68.686  1.00  0.00    -0.263 C  
HETATM   32  C   UNL     1      -7.774  17.433  69.190  1.00  0.00    -0.055 C  
HETATM   33  C   UNL     1      -6.778  17.580  68.044  1.00  0.00    -0.181 C  
HETATM   34  C   UNL     1      -6.926  16.458  67.022  1.00  0.00    -0.254 C  
HETATM   35  C   UNL     1      -8.381  16.298  66.586  1.00  0.00    -0.280 C  
ENDBRANCH  29  30
ENDBRANCH  28  29
ENDBRANCH  27  28
ENDBRANCH  22  27
ENDBRANCH  20  21
ENDBRANCH  10  20
ENDBRANCH   6   9
ENDBRANCH   2   3
TORSDOF 8
ENDMDL
MODEL      200
REMARK 921   NORMALIZED FREE ENERGY PREDICTED BY IDOCK:    2.33 KCAL/MOL
REMARK 922        TOTAL FREE ENERGY PREDICTED BY IDOCK:    1.67 KCAL/MOL
REMARK 923 INTER-LIGAND FREE ENERGY PREDICTED BY IDOCK:   -2.59 KCAL/MOL
REMARK 924 INTRA-LIGAND FREE ENERGY PREDICTED BY IDOCK:    4.25 KCAL/MOL
REMARK 927      BINDING AFFINITY PREDICTED BY RF-SCORE:    0.00 PKD
ROOT
HETATM    1  C   UNL     1      -5.561   7.554  72.028  1.00  0.00    -0.036 C  
HETATM    2  O   UNL     1      -5.571   7.969  70.667  1.00  0.00    -0.029 OA 
ENDROOT
BRANCH   2   3
HETATM    3  C   UNL     1      -5.715   9.307  70.434  1.00  0.00    -0.036 A  
HETATM    4  C   UNL     1      -6.315  10.233  71.284  1.00  0.00     0.321 A  
HETATM    5  C   UNL     1      -6.429  11.580  70.906  1.00  0.00     1.084 A  
HETATM    6  C   UNL     1      -5.938  12.038  69.675  1.00  0.00    -0.120 A  
HETATM    7  C   UNL     1      -5.207   9.750  69.217  1.00  0.00    -0.035 A  
HETATM    8  C   UNL     1      -5.309  11.098  68.840  1.00  0.00    -0.040 A  
BRANCH   6   9
HETATM    9  C   UNL     1      -6.132  13.450  69.257  1.00  0.00    -0.098 A  
HETATM   10  C   UNL     1      -6.653  13.994  68.087  1.00  0.00    -0.124 A  
HETATM   11  C   UNL     1      -6.554  15.445  68.030  1.00  0.00    -0.160 A  
HETATM   12  C   UNL     1      -6.729  17.771  67.250  1.00  0.00    -0.186 A  
HETATM   13  C   UNL     1      -6.050  15.950  69.232  1.00  0.00    -0.133 A  
HETATM   14  H   UNL     1      -6.451  20.180  67.979  1.00  0.00     0.000 HD 
HETATM   15  C   UNL     1      -6.892  16.399  67.030  1.00  0.00    -0.245 A  
HETATM   16  S   UNL     1      -5.598  14.700  70.307  1.00  0.00    -0.133 SA 
HETATM   17  C   UNL     1      -5.941  17.334  69.486  1.00  0.00    -0.241 A  
HETATM   18  C   UNL     1      -6.289  18.223  68.478  1.00  0.00    -0.213 A  
HETATM   19  O   UNL     1      -6.213  19.572  68.669  1.00  0.00    -0.230 OA 
BRANCH  10  20
HETATM   20  O   UNL     1      -7.267  13.177  67.184  1.00  0.00    -0.087 OA 
BRANCH  20  21
HETATM   21  C   UNL     1      -8.219  12.242  67.506  1.00  0.00    -0.170 A  
HETATM   22  C   UNL     1     -10.037  10.233  68.268  1.00  0.00    -0.154 A  
HETATM   23  C   UNL     1      -9.050  10.664  69.160  1.00  0.00    -0.152 A  
HETATM   24  C   UNL     1      -9.190  11.802  66.613  1.00  0.00    -0.201 A  
HETATM   25  C   UNL     1      -8.147  11.667  68.779  1.00  0.00    -0.072 A  
HETATM   26  C   UNL     1     -10.113  10.839  67.005  1.00  0.00    -0.249 A  
BRANCH  22  27
HETATM   27  O   UNL     1     -10.861   9.211  68.689  1.00  0.00    -0.162 OA 
BRANCH  27  28
HETATM   28  C   UNL     1     -10.794   8.992  70.106  1.00  0.00    -0.237 C  
BRANCH  28  29
HETATM   29  C   UNL     1     -11.285  10.180  70.939  1.00  0.00    -0.307 C  
BRANCH  29  30
HETATM   30  N   UNL     1     -12.415  10.868  70.271  1.00  0.00    -0.314 NA 
HETATM   31  C   UNL     1     -13.674  10.890  71.034  1.00  0.00     0.841 C  
HETATM   32  C   UNL     1     -13.676  11.851  72.226  1.00  0.00     0.024 C  
HETATM   33  C   UNL     1     -13.208  13.249  71.834  1.00  0.00    -0.523 C  
HETATM   34  C   UNL     1     -11.927  13.203  71.007  1.00  0.00     0.081 C  
HETATM   35  C   UNL     1     -12.059  12.224  69.841  1.00  0.00    -0.249 C  
ENDBRANCH  29  30
ENDBRANCH  28  29
ENDBRANCH  27  28
ENDBRANCH  22  27
ENDBRANCH  20  21
ENDBRANCH  10  20
ENDBRANCH   6   9
ENDBRANCH   2   3
TORSDOF 8
ENDMDL
MODEL      201
REMARK 921   NORMALIZED FREE ENERGY PREDICTED BY IDOCK:    2.60 KCAL/MOL
REMARK 922        TOTAL FREE ENERGY PREDICTED BY IDOCK:    2.06 KCAL/MOL
REMARK 923 INTER-LIGAND FREE ENERGY PREDICTED BY IDOCK:    2.10 KCAL/MOL
REMARK 924 INTRA-LIGAND FREE ENERGY PREDICTED BY IDOCK:   -0.04 KCAL/MOL
REMARK 927      BINDING AFFINITY PREDICTED BY RF-SCORE:    0.00 PKD
ROOT
HETATM    1  C   UNL     1     -13.583  11.731  65.863  1.00  0.00     7.590 C  
HETATM    2  O   UNL     1     -12.234  11.498  66.255  1.00  0.00     0.061 OA 
ENDROOT
BRANCH   2   3
HETATM    3  C   UNL     1     -11.493  12.596  66.585  1.00  0.00    -0.351 A  
HETATM    4  C   UNL     1     -11.486  13.818  65.917  1.00  0.00    -0.330 A  
HETATM    5  C   UNL     1     -10.646  14.860  66.343  1.00  0.00    -0.307 A  
HETATM    6  C   UNL     1      -9.801  14.710  67.452  1.00  0.00    -0.222 A  
HETATM    7  C   UNL     1     -10.673  12.439  67.698  1.00  0.00    -0.248 A  
HETATM    8  C   UNL     1      -9.841  13.482  68.134  1.00  0.00    -0.237 A  
BRANCH   6   9
HETATM    9  C   UNL     1      -8.865  15.794  67.845  1.00  0.00    -0.175 A  
HETATM   10  C   UNL     1      -7.475  15.825  67.906  1.00  0.00    -0.134 A  
HETATM   11  C   UNL     1      -6.947  17.061  68.464  1.00  0.00    -0.197 A  
HETATM   12  C   UNL     1      -5.387  18.783  69.271  1.00  0.00    -0.202 A  
HETATM   13  C   UNL     1      -7.980  17.971  68.705  1.00  0.00    -0.294 A  
HETATM   14  H   UNL     1      -5.248  21.189  70.046  1.00  0.00     0.000 HD 
HETATM   15  C   UNL     1      -5.628  17.501  68.765  1.00  0.00    -0.160 A  
HETATM   16  S   UNL     1      -9.515  17.286  68.391  1.00  0.00    -0.292 SA 
HETATM   17  C   UNL     1      -7.742  19.287  69.155  1.00  0.00    -0.272 A  
HETATM   18  C   UNL     1      -6.435  19.667  69.429  1.00  0.00    -0.335 A  
HETATM   19  O   UNL     1      -6.143  20.929  69.858  1.00  0.00    -0.347 OA 
BRANCH  10  20
HETATM   20  O   UNL     1      -6.758  14.791  67.378  1.00  0.00    -0.247 OA 
BRANCH  20  21
HETATM   21  C   UNL     1      -6.947  13.470  67.704  1.00  0.00    -0.167 A  
HETATM   22  C   UNL     1      -7.193  10.783  68.502  1.00  0.00    -0.088 A  
HETATM   23  C   UNL     1      -6.885  11.771  69.442  1.00  0.00    -0.067 A  
HETATM   24  C   UNL     1      -7.236  12.486  66.766  1.00  0.00     0.302 A  
HETATM   25  C   UNL     1      -6.766  13.110  69.043  1.00  0.00    -0.103 A  
HETATM   26  C   UNL     1      -7.398  11.165  67.168  1.00  0.00    -0.121 A  
BRANCH  22  27
HETATM   27  O   UNL     1      -7.247   9.481  68.954  1.00  0.00    -0.070 OA 
BRANCH  27  28
HETATM   28  C   UNL     1      -8.530   9.137  69.499  1.00  0.00    -0.128 C  
BRANCH  28  29
HETATM   29  C   UNL     1      -8.722   7.635  69.726  1.00  0.00    -0.140 C  
BRANCH  29  30
HETATM   30  N   UNL     1      -8.656   7.301  71.168  1.00  0.00    -0.130 NA 
HETATM   31  C   UNL     1      -9.463   6.140  71.579  1.00  0.00    -0.148 C  
HETATM   32  C   UNL     1      -8.894   4.786  71.149  1.00  0.00    -0.147 C  
HETATM   33  C   UNL     1      -7.424   4.637  71.528  1.00  0.00    -0.073 C  
HETATM   34  C   UNL     1      -6.612   5.866  71.133  1.00  0.00    -0.049 C  
HETATM   35  C   UNL     1      -7.274   7.149  71.636  1.00  0.00    -0.073 C  
ENDBRANCH  29  30
ENDBRANCH  28  29
ENDBRANCH  27  28
ENDBRANCH  22  27
ENDBRANCH  20  21
ENDBRANCH  10  20
ENDBRANCH   6   9
ENDBRANCH   2   3
TORSDOF 8
ENDMDL
MODEL      202
REMARK 921   NORMALIZED FREE ENERGY PREDICTED BY IDOCK:    3.56 KCAL/MOL
REMARK 922        TOTAL FREE ENERGY PREDICTED BY IDOCK:    3.48 KCAL/MOL
REMARK 923 INTER-LIGAND FREE ENERGY PREDICTED BY IDOCK:    5.09 KCAL/MOL
REMARK 924 INTRA-LIGAND FREE ENERGY PREDICTED BY IDOCK:   -1.61 KCAL/MOL
REMARK 927      BINDING AFFINITY PREDICTED BY RF-SCORE:    0.00 PKD
ROOT
HETATM    1  C   UNL     1     -11.502   4.846  65.358  1.00  0.00     0.804 C  
HETATM    2  O   UNL     1     -11.902   6.207  65.467  1.00  0.00     2.959 OA 
ENDROOT
BRANCH   2   3
HETATM    3  C   UNL     1     -10.976   7.082  65.956  1.00  0.00     2.061 A  
HETATM    4  C   UNL     1      -9.599   7.028  65.748  1.00  0.00     0.361 A  
HETATM    5  C   UNL     1      -8.750   7.977  66.340  1.00  0.00    -0.169 A  
HETATM    6  C   UNL     1      -9.255   9.008  67.144  1.00  0.00    -0.164 A  
HETATM    7  C   UNL     1     -11.493   8.111  66.737  1.00  0.00     2.329 A  
HETATM    8  C   UNL     1     -10.648   9.068  67.321  1.00  0.00    -0.301 A  
BRANCH   6   9
HETATM    9  C   UNL     1      -8.338   9.960  67.824  1.00  0.00    -0.114 A  
HETATM   10  C   UNL     1      -7.509   9.800  68.930  1.00  0.00    -0.075 A  
HETATM   11  C   UNL     1      -6.859  11.033  69.348  1.00  0.00    -0.119 A  
HETATM   12  C   UNL     1      -5.466  12.635  70.589  1.00  0.00    -0.172 A  
HETATM   13  C   UNL     1      -7.148  12.067  68.455  1.00  0.00    -0.098 A  
HETATM   14  H   UNL     1      -4.559  14.999  70.535  1.00  0.00     0.000 HD 
HETATM   15  C   UNL     1      -5.996  11.350  70.434  1.00  0.00    -0.142 A  
HETATM   16  S   UNL     1      -8.265  11.579  67.256  1.00  0.00    -0.162 SA 
HETATM   17  C   UNL     1      -6.568  13.349  68.567  1.00  0.00    -0.089 A  
HETATM   18  C   UNL     1      -5.729  13.606  69.644  1.00  0.00    -0.102 A  
HETATM   19  O   UNL     1      -5.133  14.823  69.798  1.00  0.00    -0.093 OA 
BRANCH  10  20
HETATM   20  O   UNL     1      -7.310   8.551  69.442  1.00  0.00    -0.066 OA 
BRANCH  20  21
HETATM   21  C   UNL     1      -8.160   7.930  70.324  1.00  0.00    -0.115 A  
HETATM   22  C   UNL     1      -9.747   6.603  72.232  1.00  0.00    -0.148 A  
HETATM   23  C   UNL     1      -8.581   7.265  72.625  1.00  0.00    -0.132 A  
HETATM   24  C   UNL     1      -9.311   7.257  69.930  1.00  0.00    -0.154 A  
HETATM   25  C   UNL     1      -7.792   7.929  71.674  1.00  0.00    -0.102 A  
HETATM   26  C   UNL     1     -10.116   6.637  70.879  1.00  0.00    -0.208 A  
BRANCH  22  27
HETATM   27  O   UNL     1     -10.449   5.931  73.211  1.00  0.00    -0.206 OA 
BRANCH  27  28
HETATM   28  C   UNL     1      -9.598   5.168  74.078  1.00  0.00    -0.134 C  
BRANCH  28  29
HETATM   29  C   UNL     1      -9.260   3.773  73.544  1.00  0.00    -0.097 C  
BRANCH  29  30
HETATM   30  N   UNL     1      -7.801   3.521  73.598  1.00  0.00    -0.066 NA 
HETATM   31  C   UNL     1      -7.408   2.104  73.526  1.00  0.00    -0.036 C  
HETATM   32  C   UNL     1      -7.555   1.474  72.139  1.00  0.00    -0.040 C  
HETATM   33  C   UNL     1      -6.893   2.318  71.055  1.00  0.00    -0.032 C  
HETATM   34  C   UNL     1      -7.277   3.789  71.172  1.00  0.00    -0.033 C  
HETATM   35  C   UNL     1      -7.068   4.301  72.596  1.00  0.00    -0.062 C  
ENDBRANCH  29  30
ENDBRANCH  28  29
ENDBRANCH  27  28
ENDBRANCH  22  27
ENDBRANCH  20  21
ENDBRANCH  10  20
ENDBRANCH   6   9
ENDBRANCH   2   3
TORSDOF 8
ENDMDL
MODEL      203
REMARK 921   NORMALIZED FREE ENERGY PREDICTED BY IDOCK:    4.07 KCAL/MOL
REMARK 922        TOTAL FREE ENERGY PREDICTED BY IDOCK:    4.23 KCAL/MOL
REMARK 923 INTER-LIGAND FREE ENERGY PREDICTED BY IDOCK:    5.61 KCAL/MOL
REMARK 924 INTRA-LIGAND FREE ENERGY PREDICTED BY IDOCK:   -1.39 KCAL/MOL
REMARK 927      BINDING AFFINITY PREDICTED BY RF-SCORE:    0.00 PKD
ROOT
HETATM    1  C   UNL     1     -11.493   4.841  65.363  1.00  0.00     0.790 C  
HETATM    2  O   UNL     1     -11.915   6.195  65.479  1.00  0.00     3.203 OA 
ENDROOT
BRANCH   2   3
HETATM    3  C   UNL     1     -10.990   7.091  65.933  1.00  0.00     2.581 A  
HETATM    4  C   UNL     1      -9.623   7.070  65.667  1.00  0.00     0.531 A  
HETATM    5  C   UNL     1      -8.772   8.037  66.227  1.00  0.00    -0.174 A  
HETATM    6  C   UNL     1      -9.267   9.053  67.057  1.00  0.00    -0.169 A  
HETATM    7  C   UNL     1     -11.498   8.103  66.740  1.00  0.00     2.329 A  
HETATM    8  C   UNL     1     -10.652   9.078  67.292  1.00  0.00    -0.301 A  
BRANCH   6   9
HETATM    9  C   UNL     1      -8.345  10.023  67.701  1.00  0.00    -0.114 A  
HETATM   10  C   UNL     1      -7.178   9.829  68.433  1.00  0.00    -0.077 A  
HETATM   11  C   UNL     1      -6.637  11.057  68.997  1.00  0.00    -0.065 A  
HETATM   12  C   UNL     1      -5.192  12.633  70.214  1.00  0.00    -0.112 A  
HETATM   13  C   UNL     1      -7.377  12.162  68.567  1.00  0.00    -0.105 A  
HETATM   14  H   UNL     1      -4.761  15.096  70.607  1.00  0.00     0.000 HD 
HETATM   15  C   UNL     1      -5.524  11.326  69.842  1.00  0.00    -0.068 A  
HETATM   16  S   UNL     1      -8.736  11.694  67.640  1.00  0.00    -0.163 SA 
HETATM   17  C   UNL     1      -7.014  13.488  68.885  1.00  0.00    -0.108 A  
HETATM   18  C   UNL     1      -5.916  13.695  69.709  1.00  0.00    -0.121 A  
HETATM   19  O   UNL     1      -5.512  14.955  70.043  1.00  0.00    -0.104 OA 
BRANCH  10  20
HETATM   20  O   UNL     1      -6.614   8.587  68.478  1.00  0.00    -0.057 OA 
BRANCH  20  21
HETATM   21  C   UNL     1      -6.601   7.781  69.589  1.00  0.00    -0.035 A  
HETATM   22  C   UNL     1      -6.725   6.034  71.791  1.00  0.00    -0.063 A  
HETATM   23  C   UNL     1      -7.024   5.569  70.507  1.00  0.00    -0.057 A  
HETATM   24  C   UNL     1      -6.321   8.247  70.868  1.00  0.00    -0.037 A  
HETATM   25  C   UNL     1      -6.959   6.440  69.410  1.00  0.00    -0.071 A  
HETATM   26  C   UNL     1      -6.342   7.374  71.950  1.00  0.00    -0.039 A  
BRANCH  22  27
HETATM   27  O   UNL     1      -6.855   5.136  72.830  1.00  0.00    -0.071 OA 
BRANCH  27  28
HETATM   28  C   UNL     1      -8.225   4.846  73.144  1.00  0.00    -0.101 C  
BRANCH  28  29
HETATM   29  C   UNL     1      -9.000   6.045  73.698  1.00  0.00    -0.127 C  
BRANCH  29  30
HETATM   30  N   UNL     1     -10.459   5.871  73.507  1.00  0.00    -0.241 NA 
HETATM   31  C   UNL     1     -11.218   7.118  73.313  1.00  0.00    -0.108 C  
HETATM   32  C   UNL     1     -11.027   7.770  71.941  1.00  0.00    -0.294 C  
HETATM   33  C   UNL     1     -11.235   6.777  70.802  1.00  0.00    -0.352 C  
HETATM   34  C   UNL     1     -10.476   5.476  71.042  1.00  0.00    -0.314 C  
HETATM   35  C   UNL     1     -10.766   4.919  72.435  1.00  0.00    -0.175 C  
ENDBRANCH  29  30
ENDBRANCH  28  29
ENDBRANCH  27  28
ENDBRANCH  22  27
ENDBRANCH  20  21
ENDBRANCH  10  20
ENDBRANCH   6   9
ENDBRANCH   2   3
TORSDOF 8
ENDMDL
MODEL      204
REMARK 921   NORMALIZED FREE ENERGY PREDICTED BY IDOCK:    4.61 KCAL/MOL
REMARK 922        TOTAL FREE ENERGY PREDICTED BY IDOCK:    5.02 KCAL/MOL
REMARK 923 INTER-LIGAND FREE ENERGY PREDICTED BY IDOCK:    4.12 KCAL/MOL
REMARK 924 INTRA-LIGAND FREE ENERGY PREDICTED BY IDOCK:    0.89 KCAL/MOL
REMARK 927      BINDING AFFINITY PREDICTED BY RF-SCORE:    0.00 PKD
ROOT
HETATM    1  C   UNL     1     -11.862   6.128  70.292  1.00  0.00     0.097 C  
HETATM    2  O   UNL     1     -13.055   6.613  70.896  1.00  0.00    -0.058 OA 
ENDROOT
BRANCH   2   3
HETATM    3  C   UNL     1     -13.085   7.939  71.220  1.00  0.00    -0.184 A  
HETATM    4  C   UNL     1     -14.060   8.581  71.981  1.00  0.00    -0.516 A  
HETATM    5  C   UNL     1     -13.989   9.964  72.212  1.00  0.00    -0.030 A  
HETATM    6  C   UNL     1     -12.938  10.738  71.699  1.00  0.00    -0.581 A  
HETATM    7  C   UNL     1     -12.027   8.691  70.719  1.00  0.00    -0.143 A  
HETATM    8  C   UNL     1     -11.946  10.072  70.958  1.00  0.00    -0.469 A  
BRANCH   6   9
HETATM    9  C   UNL     1     -12.916  12.211  71.889  1.00  0.00    -0.314 A  
HETATM   10  C   UNL     1     -12.336  13.223  71.130  1.00  0.00    -0.232 A  
HETATM   11  C   UNL     1     -12.449  14.540  71.739  1.00  0.00    -0.420 A  
HETATM   12  C   UNL     1     -12.257  16.962  72.123  1.00  0.00     0.940 A  
HETATM   13  C   UNL     1     -13.221  14.478  72.902  1.00  0.00    -0.515 A  
HETATM   14  H   UNL     1     -13.053  18.847  73.614  1.00  0.00     0.000 HD 
HETATM   15  C   UNL     1     -11.966  15.824  71.362  1.00  0.00    -0.499 A  
HETATM   16  S   UNL     1     -13.657  12.871  73.290  1.00  0.00     3.475 SA 
HETATM   17  C   UNL     1     -13.573  15.628  73.641  1.00  0.00     0.084 A  
HETATM   18  C   UNL     1     -13.078  16.858  73.228  1.00  0.00     1.140 A  
HETATM   19  O   UNL     1     -13.392  18.005  73.897  1.00  0.00     3.314 OA 
BRANCH  10  20
HETATM   20  O   UNL     1     -11.822  12.927  69.901  1.00  0.00    -0.323 OA 
BRANCH  20  21
HETATM   21  C   UNL     1     -10.533  13.200  69.513  1.00  0.00     0.508 A  
HETATM   22  C   UNL     1      -7.935  13.947  68.732  1.00  0.00    -0.059 A  
HETATM   23  C   UNL     1      -8.627  14.701  69.685  1.00  0.00     0.303 A  
HETATM   24  C   UNL     1      -9.852  12.461  68.554  1.00  0.00    -0.156 A  
HETATM   25  C   UNL     1      -9.921  14.325  70.075  1.00  0.00     0.875 A  
HETATM   26  C   UNL     1      -8.553  12.806  68.199  1.00  0.00    -0.185 A  
BRANCH  22  27
HETATM   27  O   UNL     1      -6.687  14.399  68.359  1.00  0.00    -0.088 OA 
BRANCH  27  28
HETATM   28  C   UNL     1      -6.739  15.354  67.289  1.00  0.00    -0.061 C  
BRANCH  28  29
HETATM   29  C   UNL     1      -8.043  16.156  67.240  1.00  0.00    -0.175 C  
BRANCH  29  30
HETATM   30  N   UNL     1      -8.009  17.289  68.193  1.00  0.00    -0.215 NA 
HETATM   31  C   UNL     1      -6.791  18.116  68.140  1.00  0.00    -0.212 C  
HETATM   32  C   UNL     1      -6.697  19.028  66.915  1.00  0.00    -0.204 C  
HETATM   33  C   UNL     1      -7.967  19.848  66.713  1.00  0.00    -0.340 C  
HETATM   34  C   UNL     1      -9.219  18.984  66.815  1.00  0.00    -0.345 C  
HETATM   35  C   UNL     1      -9.201  18.137  68.087  1.00  0.00    -0.291 C  
ENDBRANCH  29  30
ENDBRANCH  28  29
ENDBRANCH  27  28
ENDBRANCH  22  27
ENDBRANCH  20  21
ENDBRANCH  10  20
ENDBRANCH   6   9
ENDBRANCH   2   3
TORSDOF 8
ENDMDL
MODEL      205
REMARK 921   NORMALIZED FREE ENERGY PREDICTED BY IDOCK:    4.62 KCAL/MOL
REMARK 922        TOTAL FREE ENERGY PREDICTED BY IDOCK:    5.04 KCAL/MOL
REMARK 923 INTER-LIGAND FREE ENERGY PREDICTED BY IDOCK:    5.85 KCAL/MOL
REMARK 924 INTRA-LIGAND FREE ENERGY PREDICTED BY IDOCK:   -0.82 KCAL/MOL
REMARK 927      BINDING AFFINITY PREDICTED BY RF-SCORE:    0.00 PKD
ROOT
HETATM    1  C   UNL     1     -11.763   8.521  73.427  1.00  0.00     1.729 C  
HETATM    2  O   UNL     1     -12.102   9.892  73.252  1.00  0.00     2.402 OA 
ENDROOT
BRANCH   2   3
HETATM    3  C   UNL     1     -12.177  10.347  71.967  1.00  0.00     0.245 A  
HETATM    4  C   UNL     1     -13.343  10.581  71.241  1.00  0.00    -0.290 A  
HETATM    5  C   UNL     1     -13.278  11.019  69.908  1.00  0.00     0.620 A  
HETATM    6  C   UNL     1     -12.050  11.244  69.272  1.00  0.00    -0.372 A  
HETATM    7  C   UNL     1     -10.951  10.583  71.354  1.00  0.00     1.115 A  
HETATM    8  C   UNL     1     -10.882  11.031  70.026  1.00  0.00    -0.054 A  
BRANCH   6   9
HETATM    9  C   UNL     1     -11.996  11.634  67.840  1.00  0.00    -0.089 A  
HETATM   10  C   UNL     1     -11.558  10.938  66.717  1.00  0.00     0.522 A  
HETATM   11  C   UNL     1     -11.564  11.739  65.501  1.00  0.00    -0.192 A  
HETATM   12  C   UNL     1     -11.310  12.424  63.153  1.00  0.00    -0.220 A  
HETATM   13  C   UNL     1     -12.121  12.997  65.745  1.00  0.00    -0.454 A  
HETATM   14  H   UNL     1     -11.834  14.283  61.516  1.00  0.00     0.000 HD 
HETATM   15  C   UNL     1     -11.155  11.471  64.166  1.00  0.00    -0.417 A  
HETATM   16  S   UNL     1     -12.481  13.222  67.401  1.00  0.00     0.513 SA 
HETATM   17  C   UNL     1     -12.339  13.941  64.719  1.00  0.00    -0.429 A  
HETATM   18  C   UNL     1     -11.925  13.628  63.431  1.00  0.00    -0.149 A  
HETATM   19  O   UNL     1     -12.118  14.497  62.398  1.00  0.00     1.885 OA 
BRANCH  10  20
HETATM   20  O   UNL     1     -11.267   9.610  66.824  1.00  0.00     0.184 OA 
BRANCH  20  21
HETATM   21  C   UNL     1     -10.023   9.068  66.612  1.00  0.00    -0.278 A  
HETATM   22  C   UNL     1      -7.552   7.851  66.036  1.00  0.00    -0.086 A  
HETATM   23  C   UNL     1      -8.458   8.125  65.007  1.00  0.00    -0.117 A  
HETATM   24  C   UNL     1      -9.129   8.782  67.636  1.00  0.00    -0.145 A  
HETATM   25  C   UNL     1      -9.688   8.734  65.295  1.00  0.00     0.390 A  
HETATM   26  C   UNL     1      -7.892   8.218  67.346  1.00  0.00    -0.106 A  
BRANCH  22  27
HETATM   27  O   UNL     1      -6.382   7.208  65.689  1.00  0.00    -0.039 OA 
BRANCH  27  28
HETATM   28  C   UNL     1      -6.604   5.871  65.216  1.00  0.00    -0.043 C  
BRANCH  28  29
HETATM   29  C   UNL     1      -6.332   4.791  66.267  1.00  0.00    -0.036 C  
BRANCH  29  30
HETATM   30  N   UNL     1      -6.442   5.342  67.638  1.00  0.00    -0.046 NA 
HETATM   31  C   UNL     1      -7.711   5.056  68.328  1.00  0.00    -0.083 C  
HETATM   32  C   UNL     1      -7.864   3.609  68.802  1.00  0.00    -0.055 C  
HETATM   33  C   UNL     1      -6.650   3.136  69.595  1.00  0.00    -0.033 C  
HETATM   34  C   UNL     1      -5.344   3.478  68.886  1.00  0.00    -0.012 C  
HETATM   35  C   UNL     1      -5.307   4.952  68.482  1.00  0.00    -0.007 C  
ENDBRANCH  29  30
ENDBRANCH  28  29
ENDBRANCH  27  28
ENDBRANCH  22  27
ENDBRANCH  20  21
ENDBRANCH  10  20
ENDBRANCH   6   9
ENDBRANCH   2   3
TORSDOF 8
ENDMDL
MODEL      206
REMARK 921   NORMALIZED FREE ENERGY PREDICTED BY IDOCK:    5.02 KCAL/MOL
REMARK 922        TOTAL FREE ENERGY PREDICTED BY IDOCK:    5.61 KCAL/MOL
REMARK 923 INTER-LIGAND FREE ENERGY PREDICTED BY IDOCK:    7.66 KCAL/MOL
REMARK 924 INTRA-LIGAND FREE ENERGY PREDICTED BY IDOCK:   -2.05 KCAL/MOL
REMARK 927      BINDING AFFINITY PREDICTED BY RF-SCORE:    0.00 PKD
ROOT
HETATM    1  C   UNL     1     -11.581   4.532  64.986  1.00  0.00     1.144 C  
HETATM    2  O   UNL     1     -12.114   5.752  65.489  1.00  0.00     2.519 OA 
ENDROOT
BRANCH   2   3
HETATM    3  C   UNL     1     -11.215   6.679  65.930  1.00  0.00     2.581 A  
HETATM    4  C   UNL     1      -9.972   6.957  65.365  1.00  0.00     1.614 A  
HETATM    5  C   UNL     1      -9.125   7.918  65.941  1.00  0.00    -0.139 A  
HETATM    6  C   UNL     1      -9.502   8.631  67.087  1.00  0.00    -0.207 A  
HETATM    7  C   UNL     1     -11.610   7.393  67.057  1.00  0.00     1.465 A  
HETATM    8  C   UNL     1     -10.771   8.361  67.628  1.00  0.00    -0.191 A  
BRANCH   6   9
HETATM    9  C   UNL     1      -8.566   9.590  67.728  1.00  0.00    -0.115 A  
HETATM   10  C   UNL     1      -7.211   9.483  68.030  1.00  0.00    -0.081 A  
HETATM   11  C   UNL     1      -6.693  10.621  68.775  1.00  0.00    -0.055 A  
HETATM   12  C   UNL     1      -5.167  12.124  69.984  1.00  0.00    -0.089 A  
HETATM   13  C   UNL     1      -7.675  11.606  68.912  1.00  0.00    -0.065 A  
HETATM   14  H   UNL     1      -4.974  14.445  70.977  1.00  0.00     0.000 HD 
HETATM   15  C   UNL     1      -5.418  10.910  69.335  1.00  0.00    -0.041 A  
HETATM   16  S   UNL     1      -9.180  11.095  68.281  1.00  0.00    -0.174 SA 
HETATM   17  C   UNL     1      -7.415  12.858  69.509  1.00  0.00     0.596 A  
HETATM   18  C   UNL     1      -6.151  13.091  70.036  1.00  0.00    -0.112 A  
HETATM   19  O   UNL     1      -5.839  14.286  70.616  1.00  0.00    -0.158 OA 
BRANCH  10  20
HETATM   20  O   UNL     1      -6.499   8.425  67.545  1.00  0.00    -0.056 OA 
BRANCH  20  21
HETATM   21  C   UNL     1      -6.248   7.272  68.247  1.00  0.00    -0.036 A  
HETATM   22  C   UNL     1      -5.824   4.811  69.544  1.00  0.00    -0.017 A  
HETATM   23  C   UNL     1      -5.783   4.887  68.149  1.00  0.00    -0.017 A  
HETATM   24  C   UNL     1      -6.305   7.194  69.633  1.00  0.00    -0.035 A  
HETATM   25  C   UNL     1      -5.992   6.115  67.504  1.00  0.00    -0.017 A  
HETATM   26  C   UNL     1      -6.054   5.986  70.275  1.00  0.00    -0.030 A  
BRANCH  22  27
HETATM   27  O   UNL     1      -5.658   3.565  70.111  1.00  0.00    -0.015 OA 
BRANCH  27  28
HETATM   28  C   UNL     1      -6.828   2.742  69.994  1.00  0.00    -0.034 C  
BRANCH  28  29
HETATM   29  C   UNL     1      -7.935   3.097  70.991  1.00  0.00    -0.054 C  
BRANCH  29  30
HETATM   30  N   UNL     1      -9.264   3.090  70.337  1.00  0.00    -0.127 NA 
HETATM   31  C   UNL     1     -10.372   3.596  71.164  1.00  0.00     0.459 C  
HETATM   32  C   UNL     1     -10.377   5.114  71.357  1.00  0.00    -0.273 C  
HETATM   33  C   UNL     1     -10.250   5.860  70.033  1.00  0.00    -0.286 C  
HETATM   34  C   UNL     1      -9.126   5.294  69.172  1.00  0.00    -0.136 C  
HETATM   35  C   UNL     1      -9.244   3.776  69.041  1.00  0.00    -0.156 C  
ENDBRANCH  29  30
ENDBRANCH  28  29
ENDBRANCH  27  28
ENDBRANCH  22  27
ENDBRANCH  20  21
ENDBRANCH  10  20
ENDBRANCH   6   9
ENDBRANCH   2   3
TORSDOF 8
ENDMDL
MODEL      207
REMARK 921   NORMALIZED FREE ENERGY PREDICTED BY IDOCK:    5.10 KCAL/MOL
REMARK 922        TOTAL FREE ENERGY PREDICTED BY IDOCK:    5.74 KCAL/MOL
REMARK 923 INTER-LIGAND FREE ENERGY PREDICTED BY IDOCK:    6.19 KCAL/MOL
REMARK 924 INTRA-LIGAND FREE ENERGY PREDICTED BY IDOCK:   -0.45 KCAL/MOL
REMARK 927      BINDING AFFINITY PREDICTED BY RF-SCORE:    0.00 PKD
ROOT
HETATM    1  C   UNL     1      -8.145  19.262  64.269  1.00  0.00     5.243 C  
HETATM    2  O   UNL     1      -7.468  18.465  65.233  1.00  0.00    -0.355 OA 
ENDROOT
BRANCH   2   3
HETATM    3  C   UNL     1      -8.061  17.287  65.583  1.00  0.00     0.569 A  
HETATM    4  C   UNL     1      -9.185  16.720  64.986  1.00  0.00     2.230 A  
HETATM    5  C   UNL     1      -9.718  15.513  65.467  1.00  0.00    -0.307 A  
HETATM    6  C   UNL     1      -9.134  14.837  66.548  1.00  0.00    -0.291 A  
HETATM    7  C   UNL     1      -7.461  16.618  66.645  1.00  0.00    -0.311 A  
HETATM    8  C   UNL     1      -7.984  15.406  67.122  1.00  0.00    -0.251 A  
BRANCH   6   9
HETATM    9  C   UNL     1      -9.752  13.601  67.094  1.00  0.00    -0.245 A  
HETATM   10  C   UNL     1      -9.853  12.318  66.564  1.00  0.00    -0.229 A  
HETATM   11  C   UNL     1     -10.651  11.416  67.381  1.00  0.00    -0.257 A  
HETATM   12  C   UNL     1     -11.812   9.404  68.189  1.00  0.00     1.901 A  
HETATM   13  C   UNL     1     -11.034  12.041  68.570  1.00  0.00    -0.240 A  
HETATM   14  H   UNL     1     -13.037   8.433  70.181  1.00  0.00     0.000 HD 
HETATM   15  C   UNL     1     -11.064  10.066  67.209  1.00  0.00    -0.116 A  
HETATM   16  S   UNL     1     -10.557  13.682  68.608  1.00  0.00    -0.231 SA 
HETATM   17  C   UNL     1     -11.734  11.364  69.591  1.00  0.00    -0.415 A  
HETATM   18  C   UNL     1     -12.110  10.044  69.375  1.00  0.00     0.322 A  
HETATM   19  O   UNL     1     -12.780   9.336  70.329  1.00  0.00     0.324 OA 
BRANCH  10  20
HETATM   20  O   UNL     1      -9.155  12.003  65.434  1.00  0.00     0.010 OA 
BRANCH  20  21
HETATM   21  C   UNL     1      -8.459  10.834  65.254  1.00  0.00    -0.115 A  
HETATM   22  C   UNL     1      -6.891   8.512  64.992  1.00  0.00    -0.071 A  
HETATM   23  C   UNL     1      -6.886   9.232  66.190  1.00  0.00    -0.085 A  
HETATM   24  C   UNL     1      -8.451  10.127  64.057  1.00  0.00    -0.185 A  
HETATM   25  C   UNL     1      -7.670  10.388  66.320  1.00  0.00    -0.129 A  
HETATM   26  C   UNL     1      -7.708   8.957  63.942  1.00  0.00    -0.129 A  
BRANCH  22  27
HETATM   27  O   UNL     1      -6.061   7.413  64.916  1.00  0.00    -0.037 OA 
BRANCH  27  28
HETATM   28  C   UNL     1      -5.136   7.340  66.011  1.00  0.00    -0.024 C  
BRANCH  28  29
HETATM   29  C   UNL     1      -5.773   6.895  67.330  1.00  0.00    -0.017 C  
BRANCH  29  30
HETATM   30  N   UNL     1      -6.060   5.442  67.320  1.00  0.00    -0.029 NA 
HETATM   31  C   UNL     1      -5.886   4.759  68.613  1.00  0.00    -0.021 C  
HETATM   32  C   UNL     1      -6.979   5.058  69.641  1.00  0.00    -0.054 C  
HETATM   33  C   UNL     1      -8.377   4.861  69.062  1.00  0.00    -0.082 C  
HETATM   34  C   UNL     1      -8.525   5.538  67.704  1.00  0.00    -0.102 C  
HETATM   35  C   UNL     1      -7.385   5.145  66.765  1.00  0.00    -0.086 C  
ENDBRANCH  29  30
ENDBRANCH  28  29
ENDBRANCH  27  28
ENDBRANCH  22  27
ENDBRANCH  20  21
ENDBRANCH  10  20
ENDBRANCH   6   9
ENDBRANCH   2   3
TORSDOF 8
ENDMDL
MODEL      208
REMARK 921   NORMALIZED FREE ENERGY PREDICTED BY IDOCK:    6.72 KCAL/MOL
REMARK 922        TOTAL FREE ENERGY PREDICTED BY IDOCK:    8.10 KCAL/MOL
REMARK 923 INTER-LIGAND FREE ENERGY PREDICTED BY IDOCK:    7.25 KCAL/MOL
REMARK 924 INTRA-LIGAND FREE ENERGY PREDICTED BY IDOCK:    0.85 KCAL/MOL
REMARK 927      BINDING AFFINITY PREDICTED BY RF-SCORE:    0.00 PKD
ROOT
HETATM    1  C   UNL     1     -11.496   4.843  65.362  1.00  0.00     0.804 C  
HETATM    2  O   UNL     1     -11.918   6.197  65.469  1.00  0.00     3.203 OA 
ENDROOT
BRANCH   2   3
HETATM    3  C   UNL     1     -10.993   7.096  65.916  1.00  0.00     2.745 A  
HETATM    4  C   UNL     1      -9.625   7.071  65.655  1.00  0.00     0.531 A  
HETATM    5  C   UNL     1      -8.775   8.043  66.207  1.00  0.00    -0.174 A  
HETATM    6  C   UNL     1      -9.271   9.068  67.024  1.00  0.00    -0.169 A  
HETATM    7  C   UNL     1     -11.502   8.119  66.710  1.00  0.00     2.329 A  
HETATM    8  C   UNL     1     -10.657   9.098  67.255  1.00  0.00    -0.303 A  
BRANCH   6   9
HETATM    9  C   UNL     1      -8.350  10.044  67.661  1.00  0.00    -0.114 A  
HETATM   10  C   UNL     1      -7.188   9.856  68.403  1.00  0.00    -0.073 A  
HETATM   11  C   UNL     1      -6.646  11.090  68.953  1.00  0.00    -0.058 A  
HETATM   12  C   UNL     1      -5.204  12.677  70.157  1.00  0.00    -0.100 A  
HETATM   13  C   UNL     1      -7.379  12.191  68.503  1.00  0.00    -0.105 A  
HETATM   14  H   UNL     1      -4.765  15.144  70.519  1.00  0.00     0.000 HD 
HETATM   15  C   UNL     1      -5.538  11.366  69.801  1.00  0.00    -0.075 A  
HETATM   16  S   UNL     1      -8.733  11.716  67.573  1.00  0.00    -0.162 SA 
HETATM   17  C   UNL     1      -7.013  13.520  68.804  1.00  0.00    -0.102 A  
HETATM   18  C   UNL     1      -5.919  13.735  69.633  1.00  0.00    -0.113 A  
HETATM   19  O   UNL     1      -5.513  14.998  69.951  1.00  0.00    -0.100 OA 
BRANCH  10  20
HETATM   20  O   UNL     1      -6.630   8.613  68.469  1.00  0.00    -0.057 OA 
BRANCH  20  21
HETATM   21  C   UNL     1      -6.622   7.824  69.593  1.00  0.00    -0.035 A  
HETATM   22  C   UNL     1      -6.779   6.140  71.842  1.00  0.00    -0.064 A  
HETATM   23  C   UNL     1      -7.297   5.722  70.613  1.00  0.00    -0.084 A  
HETATM   24  C   UNL     1      -6.122   8.247  70.819  1.00  0.00    -0.033 A  
HETATM   25  C   UNL     1      -7.215   6.561  69.492  1.00  0.00    -0.082 A  
HETATM   26  C   UNL     1      -6.163   7.398  71.920  1.00  0.00    -0.039 A  
BRANCH  22  27
HETATM   27  O   UNL     1      -6.935   5.285  72.913  1.00  0.00    -0.078 OA 
BRANCH  27  28
HETATM   28  C   UNL     1      -6.425   3.969  72.651  1.00  0.00    -0.021 C  
BRANCH  28  29
HETATM   29  C   UNL     1      -7.419   3.053  71.932  1.00  0.00    -0.048 C  
BRANCH  29  30
HETATM   30  N   UNL     1      -6.721   2.138  70.999  1.00  0.00    -0.030 NA 
HETATM   31  C   UNL     1      -7.492   1.755  69.804  1.00  0.00    -0.042 C  
HETATM   32  C   UNL     1      -7.632   2.861  68.756  1.00  0.00    -0.048 C  
HETATM   33  C   UNL     1      -6.287   3.488  68.404  1.00  0.00    -0.033 C  
HETATM   34  C   UNL     1      -5.484   3.839  69.653  1.00  0.00    -0.016 C  
HETATM   35  C   UNL     1      -5.403   2.649  70.608  1.00  0.00    -0.004 C  
ENDBRANCH  29  30
ENDBRANCH  28  29
ENDBRANCH  27  28
ENDBRANCH  22  27
ENDBRANCH  20  21
ENDBRANCH  10  20
ENDBRANCH   6   9
ENDBRANCH   2   3
TORSDOF 8
ENDMDL
MODEL      209
REMARK 921   NORMALIZED FREE ENERGY PREDICTED BY IDOCK:   10.30 KCAL/MOL
REMARK 922        TOTAL FREE ENERGY PREDICTED BY IDOCK:   13.37 KCAL/MOL
REMARK 923 INTER-LIGAND FREE ENERGY PREDICTED BY IDOCK:   14.25 KCAL/MOL
REMARK 924 INTRA-LIGAND FREE ENERGY PREDICTED BY IDOCK:   -0.88 KCAL/MOL
REMARK 927      BINDING AFFINITY PREDICTED BY RF-SCORE:    0.00 PKD
ROOT
HETATM    1  C   UNL     1     -12.377   6.299  64.706  1.00  0.00     9.164 C  
HETATM    2  O   UNL     1     -11.307   6.211  65.639  1.00  0.00     1.682 OA 
ENDROOT
BRANCH   2   3
HETATM    3  C   UNL     1     -10.673   7.377  65.959  1.00  0.00     1.793 A  
HETATM    4  C   UNL     1     -10.932   8.633  65.414  1.00  0.00     4.673 A  
HETATM    5  C   UNL     1     -10.180   9.751  65.809  1.00  0.00    -0.222 A  
HETATM    6  C   UNL     1      -9.160   9.645  66.765  1.00  0.00    -0.171 A  
HETATM    7  C   UNL     1      -9.676   7.260  66.922  1.00  0.00    -0.252 A  
HETATM    8  C   UNL     1      -8.930   8.378  67.328  1.00  0.00    -0.142 A  
BRANCH   6   9
HETATM    9  C   UNL     1      -8.324  10.822  67.117  1.00  0.00    -0.126 A  
HETATM   10  C   UNL     1      -6.949  10.948  67.292  1.00  0.00    -0.089 A  
HETATM   11  C   UNL     1      -6.544  12.266  67.757  1.00  0.00    -0.108 A  
HETATM   12  C   UNL     1      -5.160  14.158  68.503  1.00  0.00    -0.095 A  
HETATM   13  C   UNL     1      -7.643  13.127  67.811  1.00  0.00    -0.155 A  
HETATM   14  H   UNL     1      -5.226  16.634  69.025  1.00  0.00     0.000 HD 
HETATM   15  C   UNL     1      -5.284  12.818  68.119  1.00  0.00    -0.077 A  
HETATM   16  S   UNL     1      -9.103  12.317  67.444  1.00  0.00    -0.192 SA 
HETATM   17  C   UNL     1      -7.520  14.495  68.136  1.00  0.00    -0.126 A  
HETATM   18  C   UNL     1      -6.266  14.985  68.477  1.00  0.00    -0.094 A  
HETATM   19  O   UNL     1      -6.084  16.300  68.792  1.00  0.00    -0.112 OA 
BRANCH  10  20
HETATM   20  O   UNL     1      -6.132   9.914  66.940  1.00  0.00    -0.060 OA 
BRANCH  20  21
HETATM   21  C   UNL     1      -5.868   8.828  67.737  1.00  0.00    -0.043 A  
HETATM   22  C   UNL     1      -5.439   6.497  69.255  1.00  0.00    -0.013 A  
HETATM   23  C   UNL     1      -5.574   6.417  67.867  1.00  0.00    -0.008 A  
HETATM   24  C   UNL     1      -5.749   8.906  69.120  1.00  0.00    -0.036 A  
HETATM   25  C   UNL     1      -5.785   7.579  67.111  1.00  0.00    -0.031 A  
HETATM   26  C   UNL     1      -5.497   7.759  69.865  1.00  0.00    -0.023 A  
BRANCH  22  27
HETATM   27  O   UNL     1      -5.281   5.311  69.941  1.00  0.00    -0.003 OA 
BRANCH  27  28
HETATM   28  C   UNL     1      -6.170   5.197  71.063  1.00  0.00    -0.023 C  
BRANCH  28  29
HETATM   29  C   UNL     1      -7.603   4.818  70.680  1.00  0.00    -0.058 C  
BRANCH  29  30
HETATM   30  N   UNL     1      -8.586   5.687  71.368  1.00  0.00    -0.131 NA 
HETATM   31  C   UNL     1      -9.841   5.024  71.760  1.00  0.00    -0.177 C  
HETATM   32  C   UNL     1      -9.712   4.075  72.953  1.00  0.00    -0.179 C  
HETATM   33  C   UNL     1      -9.008   4.734  74.135  1.00  0.00    -0.112 C  
HETATM   34  C   UNL     1      -7.733   5.451  73.703  1.00  0.00    -0.102 C  
HETATM   35  C   UNL     1      -7.999   6.381  72.519  1.00  0.00    -0.102 C  
ENDBRANCH  29  30
ENDBRANCH  28  29
ENDBRANCH  27  28
ENDBRANCH  22  27
ENDBRANCH  20  21
ENDBRANCH  10  20
ENDBRANCH   6   9
ENDBRANCH   2   3
TORSDOF 8
ENDMDL
MODEL      210
REMARK 921   NORMALIZED FREE ENERGY PREDICTED BY IDOCK:   10.37 KCAL/MOL
REMARK 922        TOTAL FREE ENERGY PREDICTED BY IDOCK:   13.47 KCAL/MOL
REMARK 923 INTER-LIGAND FREE ENERGY PREDICTED BY IDOCK:   13.95 KCAL/MOL
REMARK 924 INTRA-LIGAND FREE ENERGY PREDICTED BY IDOCK:   -0.48 KCAL/MOL
REMARK 927      BINDING AFFINITY PREDICTED BY RF-SCORE:    0.00 PKD
ROOT
HETATM    1  C   UNL     1      -8.332  13.677  63.597  1.00  0.00    10.618 C  
HETATM    2  O   UNL     1      -8.043  12.969  64.797  1.00  0.00     4.129 OA 
ENDROOT
BRANCH   2   3
HETATM    3  C   UNL     1      -8.070  11.606  64.728  1.00  0.00     1.351 A  
HETATM    4  C   UNL     1      -8.666  10.745  65.648  1.00  0.00    -0.198 A  
HETATM    5  C   UNL     1      -8.591   9.354  65.476  1.00  0.00    -0.169 A  
HETATM    6  C   UNL     1      -7.931   8.788  64.376  1.00  0.00    -0.144 A  
HETATM    7  C   UNL     1      -7.427  11.060  63.623  1.00  0.00     0.663 A  
HETATM    8  C   UNL     1      -7.360   9.670  63.441  1.00  0.00    -0.119 A  
BRANCH   6   9
HETATM    9  C   UNL     1      -7.796   7.315  64.246  1.00  0.00    -0.125 A  
HETATM   10  C   UNL     1      -7.431   6.344  65.174  1.00  0.00    -0.083 A  
HETATM   11  C   UNL     1      -7.305   5.013  64.600  1.00  0.00    -0.063 A  
HETATM   12  C   UNL     1      -6.912   2.596  64.365  1.00  0.00    -0.048 A  
HETATM   13  C   UNL     1      -7.694   5.019  63.258  1.00  0.00    -0.070 A  
HETATM   14  H   UNL     1      -7.151   0.651  62.762  1.00  0.00     0.000 HD 
HETATM   15  C   UNL     1      -6.907   3.759  65.142  1.00  0.00    -0.053 A  
HETATM   16  S   UNL     1      -8.056   6.597  62.708  1.00  0.00     0.003 SA 
HETATM   17  C   UNL     1      -7.763   3.841  62.483  1.00  0.00    -0.061 A  
HETATM   18  C   UNL     1      -7.367   2.642  63.062  1.00  0.00    -0.048 A  
HETATM   19  O   UNL     1      -7.421   1.471  62.365  1.00  0.00    -0.031 OA 
BRANCH  10  20
HETATM   20  O   UNL     1      -7.321   6.684  66.491  1.00  0.00    -0.071 OA 
BRANCH  20  21
HETATM   21  C   UNL     1      -8.147   6.218  67.484  1.00  0.00    -0.113 A  
HETATM   22  C   UNL     1      -9.765   5.086  69.489  1.00  0.00    -0.189 A  
HETATM   23  C   UNL     1      -8.467   4.611  69.282  1.00  0.00    -0.090 A  
HETATM   24  C   UNL     1      -9.443   6.678  67.679  1.00  0.00    -0.129 A  
HETATM   25  C   UNL     1      -7.660   5.178  68.284  1.00  0.00    -0.079 A  
HETATM   26  C   UNL     1     -10.228   6.147  68.696  1.00  0.00    -0.220 A  
BRANCH  22  27
HETATM   27  O   UNL     1     -10.519   4.452  70.453  1.00  0.00     0.016 OA 
BRANCH  27  28
HETATM   28  C   UNL     1     -10.645   5.225  71.656  1.00  0.00    -0.192 C  
BRANCH  28  29
HETATM   29  C   UNL     1      -9.605   4.878  72.725  1.00  0.00    -0.139 C  
BRANCH  29  30
HETATM   30  N   UNL     1      -8.588   3.940  72.195  1.00  0.00    -0.098 NA 
HETATM   31  C   UNL     1      -7.216   4.162  72.682  1.00  0.00    -0.067 C  
HETATM   32  C   UNL     1      -6.982   3.736  74.133  1.00  0.00    -0.051 C  
HETATM   33  C   UNL     1      -7.471   2.315  74.399  1.00  0.00    -0.041 C  
HETATM   34  C   UNL     1      -8.876   2.091  73.849  1.00  0.00    -0.062 C  
HETATM   35  C   UNL     1      -8.974   2.538  72.391  1.00  0.00    -0.078 C  
ENDBRANCH  29  30
ENDBRANCH  28  29
ENDBRANCH  27  28
ENDBRANCH  22  27
ENDBRANCH  20  21
ENDBRANCH  10  20
ENDBRANCH   6   9
ENDBRANCH   2   3
TORSDOF 8
ENDMDL
MODEL      211
REMARK 921   NORMALIZED FREE ENERGY PREDICTED BY IDOCK:   11.26 KCAL/MOL
REMARK 922        TOTAL FREE ENERGY PREDICTED BY IDOCK:   14.77 KCAL/MOL
REMARK 923 INTER-LIGAND FREE ENERGY PREDICTED BY IDOCK:   14.53 KCAL/MOL
REMARK 924 INTRA-LIGAND FREE ENERGY PREDICTED BY IDOCK:    0.24 KCAL/MOL
REMARK 927      BINDING AFFINITY PREDICTED BY RF-SCORE:    0.00 PKD
ROOT
HETATM    1  C   UNL     1     -12.377   6.299  64.706  1.00  0.00     9.164 C  
HETATM    2  O   UNL     1     -11.307   6.211  65.639  1.00  0.00     1.682 OA 
ENDROOT
BRANCH   2   3
HETATM    3  C   UNL     1     -10.673   7.377  65.959  1.00  0.00     1.793 A  
HETATM    4  C   UNL     1     -10.932   8.633  65.414  1.00  0.00     4.673 A  
HETATM    5  C   UNL     1     -10.180   9.751  65.809  1.00  0.00    -0.222 A  
HETATM    6  C   UNL     1      -9.160   9.645  66.765  1.00  0.00    -0.171 A  
HETATM    7  C   UNL     1      -9.676   7.260  66.922  1.00  0.00    -0.252 A  
HETATM    8  C   UNL     1      -8.930   8.378  67.328  1.00  0.00    -0.142 A  
BRANCH   6   9
HETATM    9  C   UNL     1      -8.324  10.822  67.117  1.00  0.00    -0.126 A  
HETATM   10  C   UNL     1      -6.949  10.948  67.292  1.00  0.00    -0.089 A  
HETATM   11  C   UNL     1      -6.544  12.266  67.757  1.00  0.00    -0.108 A  
HETATM   12  C   UNL     1      -5.160  14.158  68.503  1.00  0.00    -0.095 A  
HETATM   13  C   UNL     1      -7.643  13.127  67.811  1.00  0.00    -0.155 A  
HETATM   14  H   UNL     1      -5.226  16.634  69.025  1.00  0.00     0.000 HD 
HETATM   15  C   UNL     1      -5.284  12.818  68.119  1.00  0.00    -0.077 A  
HETATM   16  S   UNL     1      -9.103  12.317  67.444  1.00  0.00    -0.192 SA 
HETATM   17  C   UNL     1      -7.520  14.495  68.136  1.00  0.00    -0.126 A  
HETATM   18  C   UNL     1      -6.266  14.985  68.477  1.00  0.00    -0.094 A  
HETATM   19  O   UNL     1      -6.084  16.300  68.792  1.00  0.00    -0.112 OA 
BRANCH  10  20
HETATM   20  O   UNL     1      -6.132   9.914  66.940  1.00  0.00    -0.060 OA 
BRANCH  20  21
HETATM   21  C   UNL     1      -5.868   8.828  67.737  1.00  0.00    -0.043 A  
HETATM   22  C   UNL     1      -5.439   6.497  69.255  1.00  0.00    -0.013 A  
HETATM   23  C   UNL     1      -5.574   6.417  67.867  1.00  0.00    -0.008 A  
HETATM   24  C   UNL     1      -5.749   8.906  69.120  1.00  0.00    -0.036 A  
HETATM   25  C   UNL     1      -5.785   7.579  67.111  1.00  0.00    -0.031 A  
HETATM   26  C   UNL     1      -5.497   7.759  69.865  1.00  0.00    -0.023 A  
BRANCH  22  27
HETATM   27  O   UNL     1      -5.281   5.311  69.941  1.00  0.00    -0.003 OA 
BRANCH  27  28
HETATM   28  C   UNL     1      -6.430   4.457  69.842  1.00  0.00    -0.032 C  
BRANCH  28  29
HETATM   29  C   UNL     1      -6.120   2.975  70.071  1.00  0.00    -0.023 C  
BRANCH  29  30
HETATM   30  N   UNL     1      -6.747   2.131  69.027  1.00  0.00    -0.033 NA 
HETATM   31  C   UNL     1      -8.148   1.757  69.283  1.00  0.00    -0.044 C  
HETATM   32  C   UNL     1      -9.154   2.895  69.094  1.00  0.00    -0.198 C  
HETATM   33  C   UNL     1      -8.974   3.599  67.752  1.00  0.00    -0.165 C  
HETATM   34  C   UNL     1      -7.512   3.939  67.485  1.00  0.00    -0.068 C  
HETATM   35  C   UNL     1      -6.616   2.719  67.690  1.00  0.00    -0.036 C  
ENDBRANCH  29  30
ENDBRANCH  28  29
ENDBRANCH  27  28
ENDBRANCH  22  27
ENDBRANCH  20  21
ENDBRANCH  10  20
ENDBRANCH   6   9
ENDBRANCH   2   3
TORSDOF 8
ENDMDL
MODEL      212
REMARK 921   NORMALIZED FREE ENERGY PREDICTED BY IDOCK:   13.56 KCAL/MOL
REMARK 922        TOTAL FREE ENERGY PREDICTED BY IDOCK:   18.14 KCAL/MOL
REMARK 923 INTER-LIGAND FREE ENERGY PREDICTED BY IDOCK:   13.93 KCAL/MOL
REMARK 924 INTRA-LIGAND FREE ENERGY PREDICTED BY IDOCK:    4.22 KCAL/MOL
REMARK 927      BINDING AFFINITY PREDICTED BY RF-SCORE:    0.00 PKD
ROOT
HETATM    1  C   UNL     1      -8.317  13.690  63.590  1.00  0.00    10.618 C  
HETATM    2  O   UNL     1      -8.036  12.978  64.789  1.00  0.00     4.598 OA 
ENDROOT
BRANCH   2   3
HETATM    3  C   UNL     1      -8.098  11.615  64.723  1.00  0.00     1.351 A  
HETATM    4  C   UNL     1      -8.705  10.772  65.651  1.00  0.00    -0.198 A  
HETATM    5  C   UNL     1      -8.668   9.379  65.480  1.00  0.00    -0.190 A  
HETATM    6  C   UNL     1      -8.034   8.795  64.375  1.00  0.00    -0.144 A  
HETATM    7  C   UNL     1      -7.481  11.051  63.612  1.00  0.00     0.663 A  
HETATM    8  C   UNL     1      -7.451   9.660  63.432  1.00  0.00    -0.118 A  
BRANCH   6   9
HETATM    9  C   UNL     1      -7.938   7.318  64.246  1.00  0.00    -0.093 A  
HETATM   10  C   UNL     1      -7.626   6.336  65.182  1.00  0.00    -0.092 A  
HETATM   11  C   UNL     1      -7.523   5.002  64.609  1.00  0.00    -0.075 A  
HETATM   12  C   UNL     1      -7.194   2.576  64.381  1.00  0.00    -0.054 A  
HETATM   13  C   UNL     1      -7.876   5.021  63.258  1.00  0.00    -0.079 A  
HETATM   14  H   UNL     1      -7.446   0.639  62.770  1.00  0.00     0.000 HD 
HETATM   15  C   UNL     1      -7.176   3.738  65.160  1.00  0.00    -0.067 A  
HETATM   16  S   UNL     1      -8.178   6.609  62.701  1.00  0.00     0.058 SA 
HETATM   17  C   UNL     1      -7.959   3.846  62.479  1.00  0.00    -0.063 A  
HETATM   18  C   UNL     1      -7.613   2.636  63.067  1.00  0.00    -0.062 A  
HETATM   19  O   UNL     1      -7.682   1.467  62.367  1.00  0.00    -0.039 OA 
BRANCH  10  20
HETATM   20  O   UNL     1      -7.541   6.672  66.502  1.00  0.00    -0.087 OA 
BRANCH  20  21
HETATM   21  C   UNL     1      -8.526   7.326  67.200  1.00  0.00    -0.118 A  
HETATM   22  C   UNL     1     -10.670   8.608  68.497  1.00  0.00    -0.043 A  
HETATM   23  C   UNL     1     -10.873   7.393  67.836  1.00  0.00    -0.151 A  
HETATM   24  C   UNL     1      -8.328   8.542  67.844  1.00  0.00    -0.126 A  
HETATM   25  C   UNL     1      -9.803   6.754  67.192  1.00  0.00    -0.207 A  
HETATM   26  C   UNL     1      -9.378   9.154  68.519  1.00  0.00    -0.137 A  
BRANCH  22  27
HETATM   27  O   UNL     1     -11.774   9.205  69.068  1.00  0.00     0.554 OA 
BRANCH  27  28
HETATM   28  C   UNL     1     -11.544   9.618  70.423  1.00  0.00    -0.236 C  
BRANCH  28  29
HETATM   29  C   UNL     1     -10.994   8.507  71.322  1.00  0.00    -0.256 C  
BRANCH  29  30
HETATM   30  N   UNL     1     -11.581   7.194  70.967  1.00  0.00    -0.294 NA 
HETATM   31  C   UNL     1     -10.642   6.229  70.371  1.00  0.00    -0.252 C  
HETATM   32  C   UNL     1      -9.648   5.617  71.361  1.00  0.00    -0.188 C  
HETATM   33  C   UNL     1     -10.344   5.063  72.601  1.00  0.00    -0.249 C  
HETATM   34  C   UNL     1     -11.344   6.059  73.178  1.00  0.00    -0.098 C  
HETATM   35  C   UNL     1     -12.289   6.581  72.096  1.00  0.00    -0.198 C  
ENDBRANCH  29  30
ENDBRANCH  28  29
ENDBRANCH  27  28
ENDBRANCH  22  27
ENDBRANCH  20  21
ENDBRANCH  10  20
ENDBRANCH   6   9
ENDBRANCH   2   3
TORSDOF 8
ENDMDL
MODEL      213
REMARK 921   NORMALIZED FREE ENERGY PREDICTED BY IDOCK:   20.04 KCAL/MOL
REMARK 922        TOTAL FREE ENERGY PREDICTED BY IDOCK:   27.67 KCAL/MOL
REMARK 923 INTER-LIGAND FREE ENERGY PREDICTED BY IDOCK:    7.61 KCAL/MOL
REMARK 924 INTRA-LIGAND FREE ENERGY PREDICTED BY IDOCK:   20.06 KCAL/MOL
REMARK 927      BINDING AFFINITY PREDICTED BY RF-SCORE:    0.00 PKD
ROOT
HETATM    1  C   UNL     1     -11.913  17.833  71.685  1.00  0.00     4.968 C  
HETATM    2  O   UNL     1     -12.409  16.539  72.008  1.00  0.00    -0.242 OA 
ENDROOT
BRANCH   2   3
HETATM    3  C   UNL     1     -12.109  15.531  71.137  1.00  0.00    -0.380 A  
HETATM    4  C   UNL     1     -12.898  14.416  70.864  1.00  0.00    -0.419 A  
HETATM    5  C   UNL     1     -12.454  13.430  69.967  1.00  0.00    -0.202 A  
HETATM    6  C   UNL     1     -11.219  13.541  69.313  1.00  0.00    -0.285 A  
HETATM    7  C   UNL     1     -10.889  15.663  70.482  1.00  0.00    -0.347 A  
HETATM    8  C   UNL     1     -10.448  14.686  69.576  1.00  0.00    -0.124 A  
BRANCH   6   9
HETATM    9  C   UNL     1     -10.730  12.455  68.424  1.00  0.00    -0.235 A  
HETATM   10  C   UNL     1      -9.977  12.499  67.255  1.00  0.00    -0.211 A  
HETATM   11  C   UNL     1      -9.815  11.198  66.622  1.00  0.00    -0.231 A  
HETATM   12  C   UNL     1      -9.140   9.433  65.048  1.00  0.00    -0.271 A  
HETATM   13  C   UNL     1     -10.373  10.194  67.416  1.00  0.00    -0.238 A  
HETATM   14  H   UNL     1      -9.086   6.923  64.720  1.00  0.00     0.000 HD 
HETATM   15  C   UNL     1      -9.190  10.783  65.413  1.00  0.00    -0.234 A  
HETATM   16  S   UNL     1     -11.170  10.835  68.786  1.00  0.00    -0.292 SA 
HETATM   17  C   UNL     1     -10.272   8.824  67.089  1.00  0.00    -0.346 A  
HETATM   18  C   UNL     1      -9.649   8.472  65.899  1.00  0.00    -0.094 A  
HETATM   19  O   UNL     1      -9.513   7.164  65.534  1.00  0.00     0.309 OA 
BRANCH  10  20
HETATM   20  O   UNL     1      -9.404  13.676  66.872  1.00  0.00    -0.240 OA 
BRANCH  20  21
HETATM   21  C   UNL     1      -8.983  14.653  67.740  1.00  0.00    -0.181 A  
HETATM   22  C   UNL     1      -7.984  16.701  69.392  1.00  0.00     0.077 A  
HETATM   23  C   UNL     1      -7.984  16.855  68.002  1.00  0.00    -0.185 A  
HETATM   24  C   UNL     1      -8.968  14.493  69.121  1.00  0.00     0.032 A  
HETATM   25  C   UNL     1      -8.485  15.835  67.181  1.00  0.00    -0.235 A  
HETATM   26  C   UNL     1      -8.512  15.522  69.938  1.00  0.00     0.196 A  
BRANCH  22  27
HETATM   27  O   UNL     1      -7.434  17.722  70.137  1.00  0.00     1.140 OA 
BRANCH  27  28
HETATM   28  C   UNL     1      -8.422  18.495  70.835  1.00  0.00     5.384 C  
BRANCH  28  29
HETATM   29  C   UNL     1      -9.378  19.254  69.911  1.00  0.00     0.696 C  
BRANCH  29  30
HETATM   30  N   UNL     1      -8.968  19.122  68.494  1.00  0.00    -0.353 NA 
HETATM   31  C   UNL     1      -9.609  18.021  67.756  1.00  0.00    -0.278 C  
HETATM   32  C   UNL     1     -11.077  18.266  67.400  1.00  0.00     0.054 C  
HETATM   33  C   UNL     1     -11.284  19.618  66.724  1.00  0.00     0.007 C  
HETATM   34  C   UNL     1     -10.577  20.739  67.478  1.00  0.00     0.566 C  
HETATM   35  C   UNL     1      -9.117  20.381  67.756  1.00  0.00    -0.200 C  
ENDBRANCH  29  30
ENDBRANCH  28  29
ENDBRANCH  27  28
ENDBRANCH  22  27
ENDBRANCH  20  21
ENDBRANCH  10  20
ENDBRANCH   6   9
ENDBRANCH   2   3
TORSDOF 8
ENDMDL
MODEL      214
REMARK 921   NORMALIZED FREE ENERGY PREDICTED BY IDOCK:   26.15 KCAL/MOL
REMARK 922        TOTAL FREE ENERGY PREDICTED BY IDOCK:   36.63 KCAL/MOL
REMARK 923 INTER-LIGAND FREE ENERGY PREDICTED BY IDOCK:   38.27 KCAL/MOL
REMARK 924 INTRA-LIGAND FREE ENERGY PREDICTED BY IDOCK:   -1.64 KCAL/MOL
REMARK 927      BINDING AFFINITY PREDICTED BY RF-SCORE:    0.00 PKD
ROOT
HETATM    1  C   UNL     1     -11.398  10.089  74.118  1.00  0.00    15.185 C  
HETATM    2  O   UNL     1     -11.298  11.441  73.686  1.00  0.00    11.648 OA 
ENDROOT
BRANCH   2   3
HETATM    3  C   UNL     1     -11.558  11.687  72.368  1.00  0.00     5.407 A  
HETATM    4  C   UNL     1     -12.818  11.803  71.784  1.00  0.00    -0.403 A  
HETATM    5  C   UNL     1     -12.946  12.023  70.403  1.00  0.00     0.310 A  
HETATM    6  C   UNL     1     -11.822  12.144  69.575  1.00  0.00    -0.386 A  
HETATM    7  C   UNL     1     -10.433  11.823  71.562  1.00  0.00     7.606 A  
HETATM    8  C   UNL     1     -10.558  12.054  70.183  1.00  0.00     1.415 A  
BRANCH   6   9
HETATM    9  C   UNL     1     -11.974  12.303  68.106  1.00  0.00    -0.195 A  
HETATM   10  C   UNL     1     -11.789  11.399  67.064  1.00  0.00     0.280 A  
HETATM   11  C   UNL     1     -11.929  11.999  65.745  1.00  0.00    -0.140 A  
HETATM   12  C   UNL     1     -12.011  12.284  63.304  1.00  0.00    -0.499 A  
HETATM   13  C   UNL     1     -12.329  13.334  65.854  1.00  0.00    -0.418 A  
HETATM   14  H   UNL     1     -12.641  13.917  61.474  1.00  0.00     0.000 HD 
HETATM   15  C   UNL     1     -11.772  11.487  64.428  1.00  0.00    -0.131 A  
HETATM   16  S   UNL     1     -12.389  13.848  67.483  1.00  0.00     0.099 SA 
HETATM   17  C   UNL     1     -12.633  14.128  64.728  1.00  0.00    -0.326 A  
HETATM   18  C   UNL     1     -12.467  13.578  63.464  1.00  0.00    -0.161 A  
HETATM   19  O   UNL     1     -12.755  14.295  62.339  1.00  0.00     0.987 OA 
BRANCH  10  20
HETATM   20  O   UNL     1     -11.598  10.079  67.349  1.00  0.00     0.015 OA 
BRANCH  20  21
HETATM   21  C   UNL     1     -10.376   9.453  67.347  1.00  0.00    -0.263 A  
HETATM   22  C   UNL     1      -7.963   8.005  67.370  1.00  0.00    -0.122 A  
HETATM   23  C   UNL     1      -9.113   7.446  66.806  1.00  0.00    -0.178 A  
HETATM   24  C   UNL     1      -9.236  10.002  67.923  1.00  0.00    -0.145 A  
HETATM   25  C   UNL     1     -10.314   8.171  66.792  1.00  0.00    -0.361 A  
HETATM   26  C   UNL     1      -8.035   9.303  67.898  1.00  0.00    -0.100 A  
BRANCH  22  27
HETATM   27  O   UNL     1      -6.829   7.220  67.393  1.00  0.00    -0.071 OA 
BRANCH  27  28
HETATM   28  C   UNL     1      -6.951   6.096  68.276  1.00  0.00    -0.080 C  
BRANCH  28  29
HETATM   29  C   UNL     1      -7.730   6.399  69.559  1.00  0.00    -0.100 C  
BRANCH  29  30
HETATM   30  N   UNL     1      -6.812   6.602  70.704  1.00  0.00    -0.061 NA 
HETATM   31  C   UNL     1      -6.416   7.999  70.949  1.00  0.00    -0.037 C  
HETATM   32  C   UNL     1      -7.515   8.871  71.561  1.00  0.00    -0.084 C  
HETATM   33  C   UNL     1      -8.145   8.220  72.788  1.00  0.00    -0.206 C  
HETATM   34  C   UNL     1      -8.508   6.762  72.529  1.00  0.00    -0.122 C  
HETATM   35  C   UNL     1      -7.325   5.997  71.938  1.00  0.00    -0.094 C  
ENDBRANCH  29  30
ENDBRANCH  28  29
ENDBRANCH  27  28
ENDBRANCH  22  27
ENDBRANCH  20  21
ENDBRANCH  10  20
ENDBRANCH   6   9
ENDBRANCH   2   3
TORSDOF 8
ENDMDL
MODEL      215
REMARK 921   NORMALIZED FREE ENERGY PREDICTED BY IDOCK:   26.77 KCAL/MOL
REMARK 922        TOTAL FREE ENERGY PREDICTED BY IDOCK:   37.54 KCAL/MOL
REMARK 923 INTER-LIGAND FREE ENERGY PREDICTED BY IDOCK:   38.55 KCAL/MOL
REMARK 924 INTRA-LIGAND FREE ENERGY PREDICTED BY IDOCK:   -1.01 KCAL/MOL
REMARK 927      BINDING AFFINITY PREDICTED BY RF-SCORE:    0.00 PKD
ROOT
HETATM    1  C   UNL     1     -11.398  10.089  74.118  1.00  0.00    15.185 C  
HETATM    2  O   UNL     1     -11.299  11.442  73.688  1.00  0.00    11.648 OA 
ENDROOT
BRANCH   2   3
HETATM    3  C   UNL     1     -11.549  11.687  72.368  1.00  0.00     5.407 A  
HETATM    4  C   UNL     1     -12.803  11.799  71.773  1.00  0.00    -0.403 A  
HETATM    5  C   UNL     1     -12.921  12.020  70.391  1.00  0.00     0.310 A  
HETATM    6  C   UNL     1     -11.789  12.146  69.573  1.00  0.00    -0.386 A  
HETATM    7  C   UNL     1     -10.417  11.828  71.572  1.00  0.00     7.606 A  
HETATM    8  C   UNL     1     -10.530  12.060  70.192  1.00  0.00     1.677 A  
BRANCH   6   9
HETATM    9  C   UNL     1     -11.929  12.305  68.102  1.00  0.00    -0.195 A  
HETATM   10  C   UNL     1     -11.732  11.402  67.061  1.00  0.00     0.090 A  
HETATM   11  C   UNL     1     -11.863  12.003  65.742  1.00  0.00    -0.236 A  
HETATM   12  C   UNL     1     -11.924  12.289  63.300  1.00  0.00    -0.499 A  
HETATM   13  C   UNL     1     -12.268  13.336  65.848  1.00  0.00    -0.441 A  
HETATM   14  H   UNL     1     -12.543  13.921  61.466  1.00  0.00     0.000 HD 
HETATM   15  C   UNL     1     -11.692  11.492  64.426  1.00  0.00    -0.131 A  
HETATM   16  S   UNL     1     -12.344  13.849  67.477  1.00  0.00     0.099 SA 
HETATM   17  C   UNL     1     -12.565  14.130  64.720  1.00  0.00    -0.326 A  
HETATM   18  C   UNL     1     -12.386  13.581  63.457  1.00  0.00    -0.274 A  
HETATM   19  O   UNL     1     -12.666  14.298  62.331  1.00  0.00     0.987 OA 
BRANCH  10  20
HETATM   20  O   UNL     1     -11.539  10.082  67.348  1.00  0.00     0.015 OA 
BRANCH  20  21
HETATM   21  C   UNL     1     -10.402   9.572  67.925  1.00  0.00    -0.227 A  
HETATM   22  C   UNL     1      -8.159   8.548  69.280  1.00  0.00    -0.113 A  
HETATM   23  C   UNL     1      -9.447   8.283  69.753  1.00  0.00    -0.163 A  
HETATM   24  C   UNL     1      -9.121   9.849  67.465  1.00  0.00    -0.145 A  
HETATM   25  C   UNL     1     -10.565   8.791  69.075  1.00  0.00    -0.191 A  
HETATM   26  C   UNL     1      -8.014   9.309  68.111  1.00  0.00    -0.099 A  
BRANCH  22  27
HETATM   27  O   UNL     1      -7.104   8.058  70.022  1.00  0.00    -0.048 OA 
BRANCH  27  28
HETATM   28  C   UNL     1      -6.365   7.041  69.330  1.00  0.00    -0.035 C  
BRANCH  28  29
HETATM   29  C   UNL     1      -7.073   5.684  69.285  1.00  0.00    -0.065 C  
BRANCH  29  30
HETATM   30  N   UNL     1      -6.840   5.003  67.990  1.00  0.00    -0.058 NA 
HETATM   31  C   UNL     1      -8.045   4.458  67.343  1.00  0.00    -0.100 C  
HETATM   32  C   UNL     1      -8.964   5.513  66.724  1.00  0.00    -0.114 C  
HETATM   33  C   UNL     1      -8.201   6.476  65.819  1.00  0.00    -0.135 C  
HETATM   34  C   UNL     1      -6.934   6.996  66.489  1.00  0.00    -0.069 C  
HETATM   35  C   UNL     1      -6.097   5.847  67.049  1.00  0.00    -0.025 C  
ENDBRANCH  29  30
ENDBRANCH  28  29
ENDBRANCH  27  28
ENDBRANCH  22  27
ENDBRANCH  20  21
ENDBRANCH  10  20
ENDBRANCH   6   9
ENDBRANCH   2   3
TORSDOF 8
ENDMDL
MODEL      216
REMARK 921   NORMALIZED FREE ENERGY PREDICTED BY IDOCK:   26.87 KCAL/MOL
REMARK 922        TOTAL FREE ENERGY PREDICTED BY IDOCK:   37.69 KCAL/MOL
REMARK 923 INTER-LIGAND FREE ENERGY PREDICTED BY IDOCK:   31.42 KCAL/MOL
REMARK 924 INTRA-LIGAND FREE ENERGY PREDICTED BY IDOCK:    6.27 KCAL/MOL
REMARK 927      BINDING AFFINITY PREDICTED BY RF-SCORE:    0.00 PKD
ROOT
HETATM    1  C   UNL     1     -11.753  19.362  69.499  1.00  0.00     5.908 C  
HETATM    2  O   UNL     1     -12.720  18.330  69.336  1.00  0.00     9.272 OA 
ENDROOT
BRANCH   2   3
HETATM    3  C   UNL     1     -12.309  17.200  68.688  1.00  0.00     2.830 A  
HETATM    4  C   UNL     1     -12.709  15.896  68.971  1.00  0.00     0.929 A  
HETATM    5  C   UNL     1     -12.181  14.815  68.246  1.00  0.00    -0.065 A  
HETATM    6  C   UNL     1     -11.252  15.011  67.215  1.00  0.00    -0.339 A  
HETATM    7  C   UNL     1     -11.401  17.412  67.656  1.00  0.00     0.405 A  
HETATM    8  C   UNL     1     -10.881  16.335  66.922  1.00  0.00    -0.151 A  
BRANCH   6   9
HETATM    9  C   UNL     1     -10.647  13.853  66.508  1.00  0.00    -0.279 A  
HETATM   10  C   UNL     1      -9.652  13.792  65.537  1.00  0.00     0.044 A  
HETATM   11  C   UNL     1      -9.435  12.451  65.014  1.00  0.00     0.182 A  
HETATM   12  C   UNL     1      -8.539  10.567  63.711  1.00  0.00    -0.151 A  
HETATM   13  C   UNL     1     -10.217  11.523  65.705  1.00  0.00    -0.249 A  
HETATM   14  H   UNL     1      -8.571   8.043  63.513  1.00  0.00     0.000 HD 
HETATM   15  C   UNL     1      -8.585  11.936  63.996  1.00  0.00     1.240 A  
HETATM   16  S   UNL     1     -11.256  12.281  66.832  1.00  0.00    -0.333 SA 
HETATM   17  C   UNL     1     -10.132  10.134  65.469  1.00  0.00    -0.338 A  
HETATM   18  C   UNL     1      -9.283   9.683  64.467  1.00  0.00    -0.218 A  
HETATM   19  O   UNL     1      -9.152   8.352  64.200  1.00  0.00     0.404 OA 
BRANCH  10  20
HETATM   20  O   UNL     1      -8.935  14.915  65.241  1.00  0.00     0.770 OA 
BRANCH  20  21
HETATM   21  C   UNL     1      -8.104  15.559  66.124  1.00  0.00     0.577 A  
HETATM   22  C   UNL     1      -6.537  16.859  68.067  1.00  0.00    -0.144 A  
HETATM   23  C   UNL     1      -7.366  15.794  68.430  1.00  0.00    -0.117 A  
HETATM   24  C   UNL     1      -7.291  16.629  65.766  1.00  0.00     0.946 A  
HETATM   25  C   UNL     1      -8.145  15.145  67.460  1.00  0.00    -0.196 A  
HETATM   26  C   UNL     1      -6.487  17.244  66.719  1.00  0.00    -0.244 A  
BRANCH  22  27
HETATM   27  O   UNL     1      -5.836  17.481  69.078  1.00  0.00    -0.179 OA 
BRANCH  27  28
HETATM   28  C   UNL     1      -5.432  18.815  68.733  1.00  0.00    -0.194 C  
BRANCH  28  29
HETATM   29  C   UNL     1      -6.602  19.770  68.484  1.00  0.00    -0.280 C  
BRANCH  29  30
HETATM   30  N   UNL     1      -7.899  19.102  68.741  1.00  0.00    -0.350 NA 
HETATM   31  C   UNL     1      -7.903  18.154  69.867  1.00  0.00     1.314 C  
HETATM   32  C   UNL     1      -7.866  18.810  71.249  1.00  0.00     5.367 C  
HETATM   33  C   UNL     1      -8.930  19.894  71.397  1.00  0.00     2.634 C  
HETATM   34  C   UNL     1      -8.940  20.840  70.201  1.00  0.00     2.306 C  
HETATM   35  C   UNL     1      -8.997  20.065  68.885  1.00  0.00     0.119 C  
ENDBRANCH  29  30
ENDBRANCH  28  29
ENDBRANCH  27  28
ENDBRANCH  22  27
ENDBRANCH  20  21
ENDBRANCH  10  20
ENDBRANCH   6   9
ENDBRANCH   2   3
TORSDOF 8
ENDMDL
MODEL      217
REMARK 921   NORMALIZED FREE ENERGY PREDICTED BY IDOCK:   31.70 KCAL/MOL
REMARK 922        TOTAL FREE ENERGY PREDICTED BY IDOCK:   44.78 KCAL/MOL
REMARK 923 INTER-LIGAND FREE ENERGY PREDICTED BY IDOCK:   29.70 KCAL/MOL
REMARK 924 INTRA-LIGAND FREE ENERGY PREDICTED BY IDOCK:   15.08 KCAL/MOL
REMARK 927      BINDING AFFINITY PREDICTED BY RF-SCORE:    0.00 PKD
ROOT
HETATM    1  C   UNL     1      -8.292  13.733  63.585  1.00  0.00    11.340 C  
HETATM    2  O   UNL     1      -7.975  13.247  64.885  1.00  0.00     4.865 OA 
ENDROOT
BRANCH   2   3
HETATM    3  C   UNL     1      -8.031  11.895  65.065  1.00  0.00     1.869 A  
HETATM    4  C   UNL     1      -8.601  11.230  66.149  1.00  0.00    -0.156 A  
HETATM    5  C   UNL     1      -8.560   9.829  66.229  1.00  0.00    -0.137 A  
HETATM    6  C   UNL     1      -7.960   9.057  65.224  1.00  0.00    -0.114 A  
HETATM    7  C   UNL     1      -7.447  11.141  64.052  1.00  0.00     0.994 A  
HETATM    8  C   UNL     1      -7.415   9.740  64.123  1.00  0.00    -0.135 A  
BRANCH   6   9
HETATM    9  C   UNL     1      -7.858   7.581  65.359  1.00  0.00    -0.117 A  
HETATM   10  C   UNL     1      -7.496   6.784  66.440  1.00  0.00    -0.074 A  
HETATM   11  C   UNL     1      -7.410   5.368  66.111  1.00  0.00    -0.081 A  
HETATM   12  C   UNL     1      -7.073   2.940  66.307  1.00  0.00    -0.058 A  
HETATM   13  C   UNL     1      -7.824   5.144  64.796  1.00  0.00    -0.094 A  
HETATM   14  H   UNL     1      -7.383   0.746  65.082  1.00  0.00     0.000 HD 
HETATM   15  C   UNL     1      -7.028   4.223  66.863  1.00  0.00    -0.059 A  
HETATM   16  S   UNL     1      -8.164   6.607  63.978  1.00  0.00     0.144 SA 
HETATM   17  C   UNL     1      -7.933   3.849  64.246  1.00  0.00    -0.086 A  
HETATM   18  C   UNL     1      -7.552   2.763  65.024  1.00  0.00    -0.073 A  
HETATM   19  O   UNL     1      -7.644   1.488  64.549  1.00  0.00    -0.056 OA 
BRANCH  10  20
HETATM   20  O   UNL     1      -7.354   7.351  67.672  1.00  0.00    -0.087 OA 
BRANCH  20  21
HETATM   21  C   UNL     1      -8.296   8.150  68.272  1.00  0.00    -0.126 A  
HETATM   22  C   UNL     1     -10.359   9.703  69.389  1.00  0.00    -0.213 A  
HETATM   23  C   UNL     1     -10.603   8.381  69.007  1.00  0.00    -0.172 A  
HETATM   24  C   UNL     1      -8.058   9.469  68.637  1.00  0.00    -0.097 A  
HETATM   25  C   UNL     1      -9.572   7.607  68.453  1.00  0.00    -0.155 A  
HETATM   26  C   UNL     1      -9.067  10.224  69.226  1.00  0.00    -0.206 A  
BRANCH  22  27
HETATM   27  O   UNL     1     -11.428  10.422  69.882  1.00  0.00    -0.258 OA 
BRANCH  27  28
HETATM   28  C   UNL     1     -11.106  11.145  71.079  1.00  0.00     1.411 C  
BRANCH  28  29
HETATM   29  C   UNL     1     -10.183  10.381  72.033  1.00  0.00     4.942 C  
BRANCH  29  30
HETATM   30  N   UNL     1      -9.179   9.590  71.284  1.00  0.00    -0.174 NA 
HETATM   31  C   UNL     1      -8.106  10.376  70.653  1.00  0.00     1.349 C  
HETATM   32  C   UNL     1      -7.068  10.933  71.630  1.00  0.00     3.922 C  
HETATM   33  C   UNL     1      -6.528   9.856  72.566  1.00  0.00     1.181 C  
HETATM   34  C   UNL     1      -7.651   9.025  73.176  1.00  0.00     0.580 C  
HETATM   35  C   UNL     1      -8.606   8.513  72.098  1.00  0.00    -0.173 C  
ENDBRANCH  29  30
ENDBRANCH  28  29
ENDBRANCH  27  28
ENDBRANCH  22  27
ENDBRANCH  20  21
ENDBRANCH  10  20
ENDBRANCH   6   9
ENDBRANCH   2   3
TORSDOF 8
ENDMDL
MODEL      218
REMARK 921   NORMALIZED FREE ENERGY PREDICTED BY IDOCK:   31.76 KCAL/MOL
REMARK 922        TOTAL FREE ENERGY PREDICTED BY IDOCK:   44.86 KCAL/MOL
REMARK 923 INTER-LIGAND FREE ENERGY PREDICTED BY IDOCK:   44.51 KCAL/MOL
REMARK 924 INTRA-LIGAND FREE ENERGY PREDICTED BY IDOCK:    0.35 KCAL/MOL
REMARK 927      BINDING AFFINITY PREDICTED BY RF-SCORE:    0.00 PKD
ROOT
HETATM    1  C   UNL     1      -5.161  20.171  69.293  1.00  0.00    -0.207 C  
HETATM    2  O   UNL     1      -5.160  19.682  70.630  1.00  0.00    -0.185 OA 
ENDROOT
BRANCH   2   3
HETATM    3  C   UNL     1      -5.399  18.348  70.796  1.00  0.00    -0.253 A  
HETATM    4  C   UNL     1      -5.132  17.340  69.872  1.00  0.00    -0.184 A  
HETATM    5  C   UNL     1      -5.461  16.005  70.157  1.00  0.00    -0.162 A  
HETATM    6  C   UNL     1      -6.053  15.642  71.375  1.00  0.00     0.881 A  
HETATM    7  C   UNL     1      -5.971  18.001  72.016  1.00  0.00     1.669 A  
HETATM    8  C   UNL     1      -6.291  16.666  72.309  1.00  0.00     3.908 A  
BRANCH   6   9
HETATM    9  C   UNL     1      -6.464  14.238  71.632  1.00  0.00     0.861 A  
HETATM   10  C   UNL     1      -7.331  13.397  70.941  1.00  0.00     3.418 A  
HETATM   11  C   UNL     1      -7.549  12.120  71.604  1.00  0.00     9.837 A  
HETATM   12  C   UNL     1      -8.370   9.856  72.104  1.00  0.00     3.445 A  
HETATM   13  C   UNL     1      -6.736  12.009  72.735  1.00  0.00     7.219 A  
HETATM   14  H   UNL     1      -8.044   7.877  73.649  1.00  0.00     0.000 HD 
HETATM   15  C   UNL     1      -8.379  11.004  71.304  1.00  0.00     6.530 A  
HETATM   16  S   UNL     1      -5.863  13.449  73.034  1.00  0.00     1.179 SA 
HETATM   17  C   UNL     1      -6.673  10.832  73.512  1.00  0.00     4.501 A  
HETATM   18  C   UNL     1      -7.501   9.770  73.173  1.00  0.00     2.912 A  
HETATM   19  O   UNL     1      -7.477   8.604  73.881  1.00  0.00    -0.371 OA 
BRANCH  10  20
HETATM   20  O   UNL     1      -7.803  13.779  69.719  1.00  0.00     0.593 OA 
BRANCH  20  21
HETATM   21  C   UNL     1      -7.834  12.969  68.611  1.00  0.00    -0.050 A  
HETATM   22  C   UNL     1      -7.969  11.169  66.452  1.00  0.00    -0.147 A  
HETATM   23  C   UNL     1      -8.949  11.148  67.448  1.00  0.00    -0.139 A  
HETATM   24  C   UNL     1      -6.850  12.980  67.630  1.00  0.00    -0.155 A  
HETATM   25  C   UNL     1      -8.882  12.047  68.522  1.00  0.00    -0.095 A  
HETATM   26  C   UNL     1      -6.940  12.118  66.542  1.00  0.00     0.421 A  
BRANCH  22  27
HETATM   27  O   UNL     1      -8.069  10.226  65.451  1.00  0.00    -0.138 OA 
BRANCH  27  28
HETATM   28  C   UNL     1      -7.164   9.127  65.632  1.00  0.00    -0.082 C  
BRANCH  28  29
HETATM   29  C   UNL     1      -7.195   8.106  64.491  1.00  0.00    -0.084 C  
BRANCH  29  30
HETATM   30  N   UNL     1      -7.058   6.725  65.008  1.00  0.00    -0.061 NA 
HETATM   31  C   UNL     1      -6.261   6.593  66.239  1.00  0.00    -0.038 C  
HETATM   32  C   UNL     1      -6.962   7.092  67.505  1.00  0.00    -0.079 C  
HETATM   33  C   UNL     1      -8.363   6.506  67.652  1.00  0.00    -0.121 C  
HETATM   34  C   UNL     1      -9.158   6.612  66.355  1.00  0.00    -0.172 C  
HETATM   35  C   UNL     1      -8.358   6.066  65.173  1.00  0.00    -0.140 C  
ENDBRANCH  29  30
ENDBRANCH  28  29
ENDBRANCH  27  28
ENDBRANCH  22  27
ENDBRANCH  20  21
ENDBRANCH  10  20
ENDBRANCH   6   9
ENDBRANCH   2   3
TORSDOF 8
ENDMDL
MODEL      219
REMARK 921   NORMALIZED FREE ENERGY PREDICTED BY IDOCK:   34.23 KCAL/MOL
REMARK 922        TOTAL FREE ENERGY PREDICTED BY IDOCK:   48.49 KCAL/MOL
REMARK 923 INTER-LIGAND FREE ENERGY PREDICTED BY IDOCK:   45.99 KCAL/MOL
REMARK 924 INTRA-LIGAND FREE ENERGY PREDICTED BY IDOCK:    2.50 KCAL/MOL
REMARK 927      BINDING AFFINITY PREDICTED BY RF-SCORE:    0.00 PKD
ROOT
HETATM    1  C   UNL     1      -5.161  20.171  69.293  1.00  0.00    -0.207 C  
HETATM    2  O   UNL     1      -5.165  19.681  70.629  1.00  0.00    -0.203 OA 
ENDROOT
BRANCH   2   3
HETATM    3  C   UNL     1      -5.406  18.347  70.794  1.00  0.00    -0.253 A  
HETATM    4  C   UNL     1      -5.135  17.340  69.871  1.00  0.00    -0.184 A  
HETATM    5  C   UNL     1      -5.466  16.005  70.154  1.00  0.00    -0.162 A  
HETATM    6  C   UNL     1      -6.064  15.642  71.369  1.00  0.00     0.881 A  
HETATM    7  C   UNL     1      -5.982  18.000  72.012  1.00  0.00     1.669 A  
HETATM    8  C   UNL     1      -6.304  16.665  72.303  1.00  0.00     3.908 A  
BRANCH   6   9
HETATM    9  C   UNL     1      -6.475  14.238  71.624  1.00  0.00     0.861 A  
HETATM   10  C   UNL     1      -7.340  13.397  70.929  1.00  0.00     3.418 A  
HETATM   11  C   UNL     1      -7.562  12.120  71.591  1.00  0.00     9.837 A  
HETATM   12  C   UNL     1      -8.386   9.856  72.086  1.00  0.00     3.445 A  
HETATM   13  C   UNL     1      -6.752  12.008  72.725  1.00  0.00     7.219 A  
HETATM   14  H   UNL     1      -8.066   7.876  73.632  1.00  0.00     0.000 HD 
HETATM   15  C   UNL     1      -8.390  11.004  71.287  1.00  0.00     6.530 A  
HETATM   16  S   UNL     1      -5.881  13.447  73.027  1.00  0.00     1.179 SA 
HETATM   17  C   UNL     1      -6.693  10.831  73.501  1.00  0.00     4.501 A  
HETATM   18  C   UNL     1      -7.520   9.769  73.159  1.00  0.00     2.912 A  
HETATM   19  O   UNL     1      -7.500   8.603  73.866  1.00  0.00    -0.371 OA 
BRANCH  10  20
HETATM   20  O   UNL     1      -7.807  13.780  69.706  1.00  0.00     0.593 OA 
BRANCH  20  21
HETATM   21  C   UNL     1      -8.293  12.917  68.755  1.00  0.00     0.140 A  
HETATM   22  C   UNL     1      -9.141  11.029  66.849  1.00  0.00    -0.156 A  
HETATM   23  C   UNL     1      -8.558  10.605  68.047  1.00  0.00    -0.122 A  
HETATM   24  C   UNL     1      -8.857  13.338  67.557  1.00  0.00    -0.206 A  
HETATM   25  C   UNL     1      -8.139  11.547  68.997  1.00  0.00     0.037 A  
HETATM   26  C   UNL     1      -9.313  12.404  66.634  1.00  0.00    -0.227 A  
BRANCH  22  27
HETATM   27  O   UNL     1      -9.486  10.052  65.938  1.00  0.00    -0.176 OA 
BRANCH  27  28
HETATM   28  C   UNL     1      -8.540   9.934  64.866  1.00  0.00    -0.169 C  
BRANCH  28  29
HETATM   29  C   UNL     1      -7.815   8.586  64.827  1.00  0.00    -0.125 C  
BRANCH  29  30
HETATM   30  N   UNL     1      -6.411   8.749  64.383  1.00  0.00    -0.070 NA 
HETATM   31  C   UNL     1      -6.174   9.864  63.451  1.00  0.00    -0.121 C  
HETATM   32  C   UNL     1      -6.224  11.251  64.095  1.00  0.00     1.435 C  
HETATM   33  C   UNL     1      -5.346  11.336  65.340  1.00  0.00     0.277 C  
HETATM   34  C   UNL     1      -5.574  10.150  66.272  1.00  0.00    -0.057 C  
HETATM   35  C   UNL     1      -5.480   8.827  65.513  1.00  0.00    -0.038 C  
ENDBRANCH  29  30
ENDBRANCH  28  29
ENDBRANCH  27  28
ENDBRANCH  22  27
ENDBRANCH  20  21
ENDBRANCH  10  20
ENDBRANCH   6   9
ENDBRANCH   2   3
TORSDOF 8
ENDMDL
MODEL      220
REMARK 921   NORMALIZED FREE ENERGY PREDICTED BY IDOCK:   41.82 KCAL/MOL
REMARK 922        TOTAL FREE ENERGY PREDICTED BY IDOCK:   59.63 KCAL/MOL
REMARK 923 INTER-LIGAND FREE ENERGY PREDICTED BY IDOCK:   36.60 KCAL/MOL
REMARK 924 INTRA-LIGAND FREE ENERGY PREDICTED BY IDOCK:   23.02 KCAL/MOL
REMARK 927      BINDING AFFINITY PREDICTED BY RF-SCORE:    0.00 PKD
ROOT
HETATM    1  C   UNL     1      -8.107   7.238  68.199  1.00  0.00    -0.124 C  
HETATM    2  O   UNL     1      -7.909   8.230  67.199  1.00  0.00    -0.095 OA 
ENDROOT
BRANCH   2   3
HETATM    3  C   UNL     1      -8.193   9.519  67.547  1.00  0.00    -0.121 A  
HETATM    4  C   UNL     1      -7.306  10.593  67.532  1.00  0.00    -0.091 A  
HETATM    5  C   UNL     1      -7.720  11.868  67.949  1.00  0.00    -0.131 A  
HETATM    6  C   UNL     1      -9.033  12.104  68.381  1.00  0.00    -0.146 A  
HETATM    7  C   UNL     1      -9.504   9.742  67.956  1.00  0.00    -0.144 A  
HETATM    8  C   UNL     1      -9.925  11.018  68.363  1.00  0.00    -0.194 A  
BRANCH   6   9
HETATM    9  C   UNL     1      -9.436  13.440  68.890  1.00  0.00     0.197 A  
HETATM   10  C   UNL     1      -9.923  13.838  70.131  1.00  0.00     1.988 A  
HETATM   11  C   UNL     1     -10.314  15.239  70.178  1.00  0.00    -0.210 A  
HETATM   12  C   UNL     1     -11.145  17.408  70.987  1.00  0.00     1.543 A  
HETATM   13  C   UNL     1      -9.996  15.877  68.976  1.00  0.00    -0.233 A  
HETATM   14  H   UNL     1     -11.338  19.858  70.379  1.00  0.00     0.000 HD 
HETATM   15  C   UNL     1     -10.903  16.045  71.191  1.00  0.00     0.151 A  
HETATM   16  S   UNL     1      -9.385  14.779  67.817  1.00  0.00    -0.202 SA 
HETATM   17  C   UNL     1     -10.178  17.263  68.782  1.00  0.00    -0.353 A  
HETATM   18  C   UNL     1     -10.753  18.006  69.805  1.00  0.00     1.123 A  
HETATM   19  O   UNL     1     -10.944  19.350  69.679  1.00  0.00     1.343 OA 
BRANCH  10  20
HETATM   20  O   UNL     1      -9.905  12.955  71.171  1.00  0.00     7.326 OA 
BRANCH  20  21
HETATM   21  C   UNL     1      -9.451  11.662  71.084  1.00  0.00     9.037 A  
HETATM   22  C   UNL     1      -8.347   9.077  70.960  1.00  0.00    -0.189 A  
HETATM   23  C   UNL     1      -7.924   9.976  71.943  1.00  0.00     3.028 A  
HETATM   24  C   UNL     1      -9.860  10.774  70.096  1.00  0.00     0.707 A  
HETATM   25  C   UNL     1      -8.477  11.263  72.006  1.00  0.00    13.380 A  
HETATM   26  C   UNL     1      -9.344   9.484  70.061  1.00  0.00    -0.265 A  
BRANCH  22  27
HETATM   27  O   UNL     1      -7.727   7.845  70.926  1.00  0.00    -0.079 OA 
BRANCH  27  28
HETATM   28  C   UNL     1      -8.570   6.787  71.405  1.00  0.00    -0.124 C  
BRANCH  28  29
HETATM   29  C   UNL     1      -8.297   5.432  70.745  1.00  0.00    -0.116 C  
BRANCH  29  30
HETATM   30  N   UNL     1      -9.421   5.031  69.867  1.00  0.00    -0.145 NA 
HETATM   31  C   UNL     1     -10.671   4.689  70.566  1.00  0.00     0.513 C  
HETATM   32  C   UNL     1     -11.429   5.891  71.135  1.00  0.00    -0.152 C  
HETATM   33  C   UNL     1     -11.625   6.989  70.094  1.00  0.00    -0.273 C  
HETATM   34  C   UNL     1     -10.330   7.298  69.350  1.00  0.00    -0.212 C  
HETATM   35  C   UNL     1      -9.682   6.021  68.817  1.00  0.00    -0.131 C  
ENDBRANCH  29  30
ENDBRANCH  28  29
ENDBRANCH  27  28
ENDBRANCH  22  27
ENDBRANCH  20  21
ENDBRANCH  10  20
ENDBRANCH   6   9
ENDBRANCH   2   3
TORSDOF 8
ENDMDL
MODEL      221
REMARK 921   NORMALIZED FREE ENERGY PREDICTED BY IDOCK:   44.44 KCAL/MOL
REMARK 922        TOTAL FREE ENERGY PREDICTED BY IDOCK:   63.47 KCAL/MOL
REMARK 923 INTER-LIGAND FREE ENERGY PREDICTED BY IDOCK:   11.31 KCAL/MOL
REMARK 924 INTRA-LIGAND FREE ENERGY PREDICTED BY IDOCK:   52.16 KCAL/MOL
REMARK 927      BINDING AFFINITY PREDICTED BY RF-SCORE:    0.00 PKD
ROOT
HETATM    1  C   UNL     1      -6.363   5.072  73.816  1.00  0.00    -0.061 C  
HETATM    2  O   UNL     1      -6.247   6.451  73.485  1.00  0.00    -0.062 OA 
ENDROOT
BRANCH   2   3
HETATM    3  C   UNL     1      -6.809   6.850  72.307  1.00  0.00    -0.062 A  
HETATM    4  C   UNL     1      -8.003   6.384  71.763  1.00  0.00    -0.105 A  
HETATM    5  C   UNL     1      -8.454   6.855  70.519  1.00  0.00    -0.137 A  
HETATM    6  C   UNL     1      -7.728   7.811  69.794  1.00  0.00    -0.097 A  
HETATM    7  C   UNL     1      -6.087   7.812  71.607  1.00  0.00    -0.035 A  
HETATM    8  C   UNL     1      -6.540   8.294  70.369  1.00  0.00    -0.036 A  
BRANCH   6   9
HETATM    9  C   UNL     1      -8.178   8.244  68.446  1.00  0.00    -0.132 A  
HETATM   10  C   UNL     1      -8.511   9.503  67.954  1.00  0.00    -0.119 A  
HETATM   11  C   UNL     1      -9.024   9.474  66.592  1.00  0.00    -0.168 A  
HETATM   12  C   UNL     1      -9.930  10.188  64.420  1.00  0.00    -0.229 A  
HETATM   13  C   UNL     1      -8.952   8.180  66.068  1.00  0.00    -0.171 A  
HETATM   14  H   UNL     1     -10.448   9.383  62.076  1.00  0.00     0.000 HD 
HETATM   15  C   UNL     1      -9.530  10.484  65.728  1.00  0.00    -0.249 A  
HETATM   16  S   UNL     1      -8.417   7.051  67.235  1.00  0.00    -0.122 SA 
HETATM   17  C   UNL     1      -9.293   7.883  64.731  1.00  0.00     1.220 A  
HETATM   18  C   UNL     1      -9.779   8.907  63.928  1.00  0.00     2.027 A  
HETATM   19  O   UNL     1     -10.116   8.682  62.625  1.00  0.00     3.092 OA 
BRANCH  10  20
HETATM   20  O   UNL     1      -8.253  10.608  68.711  1.00  0.00    -0.125 OA 
BRANCH  20  21
HETATM   21  C   UNL     1      -8.826  11.839  68.507  1.00  0.00    -0.122 A  
HETATM   22  C   UNL     1     -10.123  14.322  68.234  1.00  0.00    -0.238 A  
HETATM   23  C   UNL     1      -9.958  13.749  69.499  1.00  0.00     0.607 A  
HETATM   24  C   UNL     1      -9.004  12.400  67.248  1.00  0.00    -0.190 A  
HETATM   25  C   UNL     1      -9.309  12.513  69.634  1.00  0.00     1.919 A  
HETATM   26  C   UNL     1      -9.608  13.646  67.118  1.00  0.00    -0.241 A  
BRANCH  22  27
HETATM   27  O   UNL     1     -10.811  15.515  68.169  1.00  0.00    -0.275 OA 
BRANCH  27  28
HETATM   28  C   UNL     1      -9.958  16.657  68.327  1.00  0.00    -0.261 C  
BRANCH  28  29
HETATM   29  C   UNL     1      -8.562  16.475  67.724  1.00  0.00    -0.177 C  
BRANCH  29  30
HETATM   30  N   UNL     1      -7.691  15.684  68.625  1.00  0.00    -0.141 NA 
HETATM   31  C   UNL     1      -7.746  16.069  70.045  1.00  0.00     0.668 C  
HETATM   32  C   UNL     1      -9.027  15.647  70.768  1.00  0.00     2.180 C  
HETATM   33  C   UNL     1      -9.346  14.171  70.551  1.00  0.00     2.900 C  
HETATM   34  C   UNL     1      -9.242  13.781  69.081  1.00  0.00     0.394 C  
HETATM   35  C   UNL     1      -7.914  14.242  68.482  1.00  0.00    -0.145 C  
ENDBRANCH  29  30
ENDBRANCH  28  29
ENDBRANCH  27  28
ENDBRANCH  22  27
ENDBRANCH  20  21
ENDBRANCH  10  20
ENDBRANCH   6   9
ENDBRANCH   2   3
TORSDOF 8
ENDMDL
