MODEL        1
REMARK 921   NORMALIZED FREE ENERGY PREDICTED BY IDOCK:   -5.04 KCAL/MOL
REMARK 922        TOTAL FREE ENERGY PREDICTED BY IDOCK:   -6.00 KCAL/MOL
REMARK 923 INTER-LIGAND FREE ENERGY PREDICTED BY IDOCK:   -5.62 KCAL/MOL
REMARK 924 INTRA-LIGAND FREE ENERGY PREDICTED BY IDOCK:   -0.38 KCAL/MOL
REMARK 927      BINDING AFFINITY PREDICTED BY RF-SCORE:    0.00 PKD
ROOT
HETATM    1  C   UNL     1     -11.113  13.751  66.023  1.00  0.00    -0.291 C  
HETATM    2  O   UNL     1     -10.442  14.708  65.181  1.00  0.00    -0.365 OA 
HETATM    3  H   UNL     1     -12.211  14.451  69.129  1.00  0.00     0.000 HD 
HETATM    4  C   UNL     1     -10.339  15.897  65.842  1.00  0.00    -0.365 C  
HETATM    5  O   UNL     1     -12.031  13.960  68.336  1.00  0.00    -0.354 OA 
HETATM    6  H   UNL     1     -11.406  16.652  68.987  1.00  0.00     0.000 HD 
HETATM    7  C   UNL     1     -11.395  14.518  67.261  1.00  0.00    -0.350 C  
HETATM    8  O   UNL     1     -11.012  16.738  68.126  1.00  0.00    -0.356 OA 
HETATM    9  C   UNL     1     -10.948  15.764  67.171  1.00  0.00    -0.244 C  
HETATM   10  O   UNL     1      -9.812  16.916  65.428  1.00  0.00    -0.537 OA 
ENDROOT
BRANCH   1  11
HETATM   11  C   UNL     1     -12.325  13.128  65.290  1.00  0.00    -0.481 C  
HETATM   12  H   UNL     1     -14.261  13.536  64.996  1.00  0.00     0.000 HD 
HETATM   13  O   UNL     1     -13.517  13.918  65.446  1.00  0.00    -0.672 OA 
BRANCH  11  14
HETATM   14  C   UNL     1     -12.122  12.884  63.790  1.00  0.00    -0.508 C  
HETATM   15  O   UNL     1     -12.486  14.029  63.021  1.00  0.00    -1.101 OA 
HETATM   16  H   UNL     1     -12.360  13.877  62.092  1.00  0.00     0.000 HD 
ENDBRANCH  11  14
ENDBRANCH   1  11
TORSDOF 2
ENDMDL
MODEL        2
REMARK 921   NORMALIZED FREE ENERGY PREDICTED BY IDOCK:   -5.02 KCAL/MOL
REMARK 922        TOTAL FREE ENERGY PREDICTED BY IDOCK:   -5.98 KCAL/MOL
REMARK 923 INTER-LIGAND FREE ENERGY PREDICTED BY IDOCK:   -5.87 KCAL/MOL
REMARK 924 INTRA-LIGAND FREE ENERGY PREDICTED BY IDOCK:   -0.11 KCAL/MOL
REMARK 927      BINDING AFFINITY PREDICTED BY RF-SCORE:    0.00 PKD
ROOT
HETATM    1  C   UNL     1     -11.607  14.432  65.294  1.00  0.00    -0.353 C  
HETATM    2  O   UNL     1     -12.595  13.956  64.360  1.00  0.00    -0.647 OA 
HETATM    3  H   UNL     1      -9.117  12.516  66.508  1.00  0.00     0.000 HD 
HETATM    4  C   UNL     1     -12.348  12.648  64.068  1.00  0.00    -0.443 C  
HETATM    5  O   UNL     1      -9.669  13.276  66.363  1.00  0.00    -0.269 OA 
HETATM    6  H   UNL     1      -9.865  10.657  65.283  1.00  0.00     0.000 HD 
HETATM    7  C   UNL     1     -10.745  13.246  65.519  1.00  0.00    -0.289 C  
HETATM    8  O   UNL     1     -10.630  10.946  64.798  1.00  0.00    -0.315 OA 
HETATM    9  C   UNL     1     -11.165  12.202  64.817  1.00  0.00    -0.323 C  
HETATM   10  O   UNL     1     -12.998  11.932  63.326  1.00  0.00    -0.707 OA 
ENDROOT
BRANCH   1  11
HETATM   11  C   UNL     1     -10.919  15.712  64.763  1.00  0.00    -0.400 C  
HETATM   12  H   UNL     1     -11.355  17.253  63.566  1.00  0.00     0.000 HD 
HETATM   13  O   UNL     1     -11.778  16.467  63.892  1.00  0.00    -1.148 OA 
BRANCH  11  14
HETATM   14  C   UNL     1     -10.398  16.666  65.845  1.00  0.00    -0.340 C  
HETATM   15  O   UNL     1     -10.593  18.029  65.475  1.00  0.00    -0.639 OA 
HETATM   16  H   UNL     1     -10.270  18.620  66.145  1.00  0.00     0.000 HD 
ENDBRANCH  11  14
ENDBRANCH   1  11
TORSDOF 2
ENDMDL
MODEL        3
REMARK 921   NORMALIZED FREE ENERGY PREDICTED BY IDOCK:   -5.00 KCAL/MOL
REMARK 922        TOTAL FREE ENERGY PREDICTED BY IDOCK:   -5.97 KCAL/MOL
REMARK 923 INTER-LIGAND FREE ENERGY PREDICTED BY IDOCK:   -5.66 KCAL/MOL
REMARK 924 INTRA-LIGAND FREE ENERGY PREDICTED BY IDOCK:   -0.31 KCAL/MOL
REMARK 927      BINDING AFFINITY PREDICTED BY RF-SCORE:    0.00 PKD
ROOT
HETATM    1  C   UNL     1     -12.013  13.929  66.277  1.00  0.00    -0.434 C  
HETATM    2  O   UNL     1     -12.973  13.725  65.223  1.00  0.00    -0.731 OA 
HETATM    3  H   UNL     1      -9.249  12.044  66.669  1.00  0.00     0.000 HD 
HETATM    4  C   UNL     1     -12.574  12.678  64.445  1.00  0.00    -0.387 C  
HETATM    5  O   UNL     1      -9.899  12.719  66.828  1.00  0.00    -0.230 OA 
HETATM    6  H   UNL     1      -9.808  10.725  64.809  1.00  0.00     0.000 HD 
HETATM    7  C   UNL     1     -10.999  12.875  66.030  1.00  0.00    -0.276 C  
HETATM    8  O   UNL     1     -10.624  11.074  64.469  1.00  0.00    -0.343 OA 
HETATM    9  C   UNL     1     -11.313  12.140  64.971  1.00  0.00    -0.328 C  
HETATM   10  O   UNL     1     -13.161  12.227  63.477  1.00  0.00    -0.766 OA 
ENDROOT
BRANCH   1  11
HETATM   11  C   UNL     1     -11.516  15.394  66.295  1.00  0.00     0.009 C  
HETATM   12  H   UNL     1     -10.439  16.589  67.483  1.00  0.00     0.000 HD 
HETATM   13  O   UNL     1     -10.745  15.690  67.472  1.00  0.00    -0.292 OA 
BRANCH  11  14
HETATM   14  C   UNL     1     -10.684  15.812  65.076  1.00  0.00    -0.421 C  
HETATM   15  O   UNL     1     -11.507  16.351  64.044  1.00  0.00    -1.465 OA 
HETATM   16  H   UNL     1     -10.992  16.610  63.289  1.00  0.00     0.000 HD 
ENDBRANCH  11  14
ENDBRANCH   1  11
TORSDOF 2
ENDMDL
MODEL        4
REMARK 921   NORMALIZED FREE ENERGY PREDICTED BY IDOCK:   -4.98 KCAL/MOL
REMARK 922        TOTAL FREE ENERGY PREDICTED BY IDOCK:   -5.94 KCAL/MOL
REMARK 923 INTER-LIGAND FREE ENERGY PREDICTED BY IDOCK:   -5.55 KCAL/MOL
REMARK 924 INTRA-LIGAND FREE ENERGY PREDICTED BY IDOCK:   -0.39 KCAL/MOL
REMARK 927      BINDING AFFINITY PREDICTED BY RF-SCORE:    0.00 PKD
ROOT
HETATM    1  C   UNL     1     -11.972  13.483  65.683  1.00  0.00    -0.397 C  
HETATM    2  O   UNL     1     -11.253  14.286  66.639  1.00  0.00    -0.316 OA 
HETATM    3  H   UNL     1     -12.812  14.560  62.605  1.00  0.00     0.000 HD 
HETATM    4  C   UNL     1     -10.985  15.506  66.093  1.00  0.00    -0.247 C  
HETATM    5  O   UNL     1     -12.732  13.988  63.359  1.00  0.00    -0.796 OA 
HETATM    6  H   UNL     1     -11.831  16.657  63.001  1.00  0.00     0.000 HD 
HETATM    7  C   UNL     1     -12.096  14.377  64.506  1.00  0.00    -0.481 C  
HETATM    8  O   UNL     1     -11.478  16.624  63.883  1.00  0.00    -1.186 OA 
HETATM    9  C   UNL     1     -11.531  15.556  64.731  1.00  0.00    -0.313 C  
HETATM   10  O   UNL     1     -10.406  16.434  66.633  1.00  0.00    -0.285 OA 
ENDROOT
BRANCH   1  11
HETATM   11  C   UNL     1     -11.266  12.124  65.463  1.00  0.00    -0.334 C  
HETATM   12  H   UNL     1      -9.618  11.427  64.569  1.00  0.00     0.000 HD 
HETATM   13  O   UNL     1     -10.052  12.261  64.704  1.00  0.00    -0.282 OA 
BRANCH  11  14
HETATM   14  C   UNL     1     -10.928  11.352  66.745  1.00  0.00    -0.291 C  
HETATM   15  O   UNL     1     -11.923  11.545  67.747  1.00  0.00    -0.623 OA 
HETATM   16  H   UNL     1     -11.714  11.067  68.541  1.00  0.00     0.000 HD 
ENDBRANCH  11  14
ENDBRANCH   1  11
TORSDOF 2
ENDMDL
MODEL        5
REMARK 921   NORMALIZED FREE ENERGY PREDICTED BY IDOCK:   -4.96 KCAL/MOL
REMARK 922        TOTAL FREE ENERGY PREDICTED BY IDOCK:   -5.92 KCAL/MOL
REMARK 923 INTER-LIGAND FREE ENERGY PREDICTED BY IDOCK:   -5.62 KCAL/MOL
REMARK 924 INTRA-LIGAND FREE ENERGY PREDICTED BY IDOCK:   -0.30 KCAL/MOL
REMARK 927      BINDING AFFINITY PREDICTED BY RF-SCORE:    0.00 PKD
ROOT
HETATM    1  C   UNL     1     -11.186  14.526  65.419  1.00  0.00    -0.342 C  
HETATM    2  O   UNL     1     -10.448  14.476  66.655  1.00  0.00    -0.269 OA 
HETATM    3  H   UNL     1     -11.508  17.312  63.555  1.00  0.00     0.000 HD 
HETATM    4  C   UNL     1      -9.925  15.707  66.919  1.00  0.00    -0.248 C  
HETATM    5  O   UNL     1     -11.604  16.409  63.833  1.00  0.00    -1.100 OA 
HETATM    6  H   UNL     1     -10.239  18.561  65.086  1.00  0.00     0.000 HD 
HETATM    7  C   UNL     1     -11.036  15.936  64.984  1.00  0.00    -0.360 C  
HETATM    8  O   UNL     1      -9.990  17.960  65.780  1.00  0.00    -0.551 OA 
HETATM    9  C   UNL     1     -10.309  16.634  65.847  1.00  0.00    -0.340 C  
HETATM   10  O   UNL     1      -9.259  16.022  67.891  1.00  0.00    -0.195 OA 
ENDROOT
BRANCH   1  11
HETATM   11  C   UNL     1     -10.698  13.432  64.441  1.00  0.00    -0.408 C  
HETATM   12  H   UNL     1      -9.722  11.688  64.521  1.00  0.00     0.000 HD 
HETATM   13  O   UNL     1     -10.022  12.360  65.121  1.00  0.00    -0.259 OA 
BRANCH  11  14
HETATM   14  C   UNL     1     -11.791  12.810  63.563  1.00  0.00    -0.546 C  
HETATM   15  O   UNL     1     -12.610  13.811  62.963  1.00  0.00    -1.005 OA 
HETATM   16  H   UNL     1     -13.286  13.426  62.419  1.00  0.00     0.000 HD 
ENDBRANCH  11  14
ENDBRANCH   1  11
TORSDOF 2
ENDMDL
MODEL        6
REMARK 921   NORMALIZED FREE ENERGY PREDICTED BY IDOCK:   -4.96 KCAL/MOL
REMARK 922        TOTAL FREE ENERGY PREDICTED BY IDOCK:   -5.92 KCAL/MOL
REMARK 923 INTER-LIGAND FREE ENERGY PREDICTED BY IDOCK:   -5.51 KCAL/MOL
REMARK 924 INTRA-LIGAND FREE ENERGY PREDICTED BY IDOCK:   -0.41 KCAL/MOL
REMARK 927      BINDING AFFINITY PREDICTED BY RF-SCORE:    0.00 PKD
ROOT
HETATM    1  C   UNL     1     -10.878  12.920  66.612  1.00  0.00    -0.267 C  
HETATM    2  O   UNL     1     -11.787  11.984  66.003  1.00  0.00    -0.522 OA 
HETATM    3  H   UNL     1     -10.632  16.149  65.684  1.00  0.00     0.000 HD 
HETATM    4  C   UNL     1     -12.500  12.615  65.028  1.00  0.00    -0.487 C  
HETATM    5  O   UNL     1     -10.465  15.340  66.154  1.00  0.00    -0.285 OA 
HETATM    6  H   UNL     1     -12.276  15.864  64.031  1.00  0.00     0.000 HD 
HETATM    7  C   UNL     1     -11.139  14.183  65.878  1.00  0.00    -0.306 C  
HETATM    8  O   UNL     1     -12.550  14.956  64.079  1.00  0.00    -0.832 OA 
HETATM    9  C   UNL     1     -12.077  14.019  64.953  1.00  0.00    -0.420 C  
HETATM   10  O   UNL     1     -13.344  12.115  64.304  1.00  0.00    -0.761 OA 
ENDROOT
BRANCH   1  11
HETATM   11  C   UNL     1     -11.063  12.949  68.148  1.00  0.00    -0.253 C  
HETATM   12  H   UNL     1     -12.377  13.655  69.479  1.00  0.00     0.000 HD 
HETATM   13  O   UNL     1     -12.264  13.638  68.536  1.00  0.00    -0.342 OA 
BRANCH  11  14
HETATM   14  C   UNL     1     -11.076  11.573  68.826  1.00  0.00    -0.233 C  
HETATM   15  O   UNL     1     -12.342  10.934  68.685  1.00  0.00    -0.805 OA 
HETATM   16  H   UNL     1     -12.350  10.082  69.105  1.00  0.00     0.000 HD 
ENDBRANCH  11  14
ENDBRANCH   1  11
TORSDOF 2
ENDMDL
MODEL        7
REMARK 921   NORMALIZED FREE ENERGY PREDICTED BY IDOCK:   -4.95 KCAL/MOL
REMARK 922        TOTAL FREE ENERGY PREDICTED BY IDOCK:   -5.90 KCAL/MOL
REMARK 923 INTER-LIGAND FREE ENERGY PREDICTED BY IDOCK:   -5.78 KCAL/MOL
REMARK 924 INTRA-LIGAND FREE ENERGY PREDICTED BY IDOCK:   -0.13 KCAL/MOL
REMARK 927      BINDING AFFINITY PREDICTED BY RF-SCORE:    0.00 PKD
ROOT
HETATM    1  C   UNL     1     -11.371  13.285  66.549  1.00  0.00    -0.322 C  
HETATM    2  O   UNL     1     -11.314  14.686  66.879  1.00  0.00    -0.337 OA 
HETATM    3  H   UNL     1     -12.169  10.879  68.766  1.00  0.00     0.000 HD 
HETATM    4  C   UNL     1     -11.630  14.852  68.195  1.00  0.00    -0.334 C  
HETATM    5  O   UNL     1     -11.921  11.290  67.947  1.00  0.00    -0.630 OA 
HETATM    6  H   UNL     1     -12.419  12.459  70.486  1.00  0.00     0.000 HD 
HETATM    7  C   UNL     1     -11.759  12.643  67.828  1.00  0.00    -0.356 C  
HETATM    8  O   UNL     1     -12.238  13.307  70.098  1.00  0.00    -0.334 OA 
HETATM    9  C   UNL     1     -11.910  13.541  68.794  1.00  0.00    -0.355 C  
HETATM   10  O   UNL     1     -11.663  15.906  68.808  1.00  0.00    -0.387 OA 
ENDROOT
BRANCH   1  11
HETATM   11  C   UNL     1     -12.295  13.043  65.332  1.00  0.00    -0.486 C  
HETATM   12  H   UNL     1     -14.010  13.762  64.595  1.00  0.00     0.000 HD 
HETATM   13  O   UNL     1     -13.443  13.910  65.343  1.00  0.00    -0.672 OA 
BRANCH  11  14
HETATM   14  C   UNL     1     -11.618  13.186  63.963  1.00  0.00    -0.428 C  
HETATM   15  O   UNL     1     -12.368  14.034  63.096  1.00  0.00    -1.133 OA 
HETATM   16  H   UNL     1     -11.948  14.122  62.248  1.00  0.00     0.000 HD 
ENDBRANCH  11  14
ENDBRANCH   1  11
TORSDOF 2
ENDMDL
MODEL        8
REMARK 921   NORMALIZED FREE ENERGY PREDICTED BY IDOCK:   -4.91 KCAL/MOL
REMARK 922        TOTAL FREE ENERGY PREDICTED BY IDOCK:   -5.87 KCAL/MOL
REMARK 923 INTER-LIGAND FREE ENERGY PREDICTED BY IDOCK:   -5.43 KCAL/MOL
REMARK 924 INTRA-LIGAND FREE ENERGY PREDICTED BY IDOCK:   -0.44 KCAL/MOL
REMARK 927      BINDING AFFINITY PREDICTED BY RF-SCORE:    0.00 PKD
ROOT
HETATM    1  C   UNL     1     -12.096  13.480  65.377  1.00  0.00    -0.415 C  
HETATM    2  O   UNL     1     -11.065  13.460  66.383  1.00  0.00    -0.294 OA 
HETATM    3  H   UNL     1     -12.666  16.105  63.346  1.00  0.00     0.000 HD 
HETATM    4  C   UNL     1     -10.390  14.645  66.361  1.00  0.00    -0.289 C  
HETATM    5  O   UNL     1     -12.760  15.246  63.742  1.00  0.00    -0.687 OA 
HETATM    6  H   UNL     1     -10.939  17.339  64.351  1.00  0.00     0.000 HD 
HETATM    7  C   UNL     1     -11.950  14.820  64.758  1.00  0.00    -0.404 C  
HETATM    8  O   UNL     1     -10.567  16.780  65.023  1.00  0.00    -0.695 OA 
HETATM    9  C   UNL     1     -10.966  15.509  65.322  1.00  0.00    -0.380 C  
HETATM   10  O   UNL     1      -9.469  14.971  67.090  1.00  0.00    -0.206 OA 
ENDROOT
BRANCH   1  11
HETATM   11  C   UNL     1     -11.974  12.255  64.440  1.00  0.00    -0.394 C  
HETATM   12  H   UNL     1     -13.114  11.257  63.134  1.00  0.00     0.000 HD 
HETATM   13  O   UNL     1     -13.188  12.009  63.710  1.00  0.00    -0.723 OA 
BRANCH  11  14
HETATM   14  C   UNL     1     -10.827  12.326  63.423  1.00  0.00    -0.403 C  
HETATM   15  O   UNL     1      -9.556  12.241  64.065  1.00  0.00    -0.543 OA 
HETATM   16  H   UNL     1      -8.846  12.285  63.436  1.00  0.00     0.000 HD 
ENDBRANCH  11  14
ENDBRANCH   1  11
TORSDOF 2
ENDMDL
MODEL        9
REMARK 921   NORMALIZED FREE ENERGY PREDICTED BY IDOCK:   -4.91 KCAL/MOL
REMARK 922        TOTAL FREE ENERGY PREDICTED BY IDOCK:   -5.87 KCAL/MOL
REMARK 923 INTER-LIGAND FREE ENERGY PREDICTED BY IDOCK:   -5.70 KCAL/MOL
REMARK 924 INTRA-LIGAND FREE ENERGY PREDICTED BY IDOCK:   -0.17 KCAL/MOL
REMARK 927      BINDING AFFINITY PREDICTED BY RF-SCORE:    0.00 PKD
ROOT
HETATM    1  C   UNL     1     -10.737  13.721  66.262  1.00  0.00    -0.285 C  
HETATM    2  O   UNL     1     -11.223  14.453  67.404  1.00  0.00    -0.300 OA 
HETATM    3  H   UNL     1     -11.094  10.393  65.893  1.00  0.00     0.000 HD 
HETATM    4  C   UNL     1     -11.830  13.590  68.267  1.00  0.00    -0.366 C  
HETATM    5  O   UNL     1     -10.843  11.289  65.704  1.00  0.00    -0.250 OA 
HETATM    6  H   UNL     1     -12.197  10.218  67.959  1.00  0.00     0.000 HD 
HETATM    7  C   UNL     1     -11.129  12.321  66.556  1.00  0.00    -0.299 C  
HETATM    8  O   UNL     1     -12.241  11.098  68.314  1.00  0.00    -0.613 OA 
HETATM    9  C   UNL     1     -11.762  12.230  67.719  1.00  0.00    -0.337 C  
HETATM   10  O   UNL     1     -12.337  13.871  69.340  1.00  0.00    -0.329 OA 
ENDROOT
BRANCH   1  11
HETATM   11  C   UNL     1     -11.266  14.339  64.946  1.00  0.00    -0.379 C  
HETATM   12  H   UNL     1     -12.999  14.487  63.959  1.00  0.00     0.000 HD 
HETATM   13  O   UNL     1     -12.674  14.107  64.767  1.00  0.00    -0.650 OA 
BRANCH  11  14
HETATM   14  C   UNL     1     -11.018  15.845  64.789  1.00  0.00    -0.375 C  
HETATM   15  O   UNL     1     -11.650  16.357  63.618  1.00  0.00    -1.514 OA 
HETATM   16  H   UNL     1     -11.496  17.290  63.521  1.00  0.00     0.000 HD 
ENDBRANCH  11  14
ENDBRANCH   1  11
TORSDOF 2
ENDMDL
MODEL       10
REMARK 921   NORMALIZED FREE ENERGY PREDICTED BY IDOCK:   -4.91 KCAL/MOL
REMARK 922        TOTAL FREE ENERGY PREDICTED BY IDOCK:   -5.86 KCAL/MOL
REMARK 923 INTER-LIGAND FREE ENERGY PREDICTED BY IDOCK:   -5.68 KCAL/MOL
REMARK 924 INTRA-LIGAND FREE ENERGY PREDICTED BY IDOCK:   -0.19 KCAL/MOL
REMARK 927      BINDING AFFINITY PREDICTED BY RF-SCORE:    0.00 PKD
ROOT
HETATM    1  C   UNL     1     -10.868  13.349  65.660  1.00  0.00    -0.283 C  
HETATM    2  O   UNL     1      -9.821  14.232  66.107  1.00  0.00    -0.294 OA 
HETATM    3  H   UNL     1     -13.290  14.272  63.509  1.00  0.00     0.000 HD 
HETATM    4  C   UNL     1      -9.982  15.454  65.524  1.00  0.00    -0.344 C  
HETATM    5  O   UNL     1     -12.778  13.728  64.097  1.00  0.00    -0.664 OA 
HETATM    6  H   UNL     1     -12.421  16.449  63.366  1.00  0.00     0.000 HD 
HETATM    7  C   UNL     1     -11.667  14.197  64.742  1.00  0.00    -0.410 C  
HETATM    8  O   UNL     1     -11.655  16.469  63.927  1.00  0.00    -1.175 OA 
HETATM    9  C   UNL     1     -11.166  15.423  64.656  1.00  0.00    -0.364 C  
HETATM   10  O   UNL     1      -9.283  16.439  65.694  1.00  0.00    -0.465 OA 
ENDROOT
BRANCH   1  11
HETATM   11  C   UNL     1     -10.276  12.045  65.076  1.00  0.00    -0.276 C  
HETATM   12  H   UNL     1     -10.628  10.077  65.163  1.00  0.00     0.000 HD 
HETATM   13  O   UNL     1     -10.991  10.879  65.522  1.00  0.00    -0.106 OA 
BRANCH  11  14
HETATM   14  C   UNL     1     -10.207  11.991  63.545  1.00  0.00    -0.450 C  
HETATM   15  O   UNL     1     -11.331  11.306  62.996  1.00  0.00    -0.847 OA 
HETATM   16  H   UNL     1     -11.288  11.273  62.048  1.00  0.00     0.000 HD 
ENDBRANCH  11  14
ENDBRANCH   1  11
TORSDOF 2
ENDMDL
MODEL       11
REMARK 921   NORMALIZED FREE ENERGY PREDICTED BY IDOCK:   -4.91 KCAL/MOL
REMARK 922        TOTAL FREE ENERGY PREDICTED BY IDOCK:   -5.86 KCAL/MOL
REMARK 923 INTER-LIGAND FREE ENERGY PREDICTED BY IDOCK:   -5.45 KCAL/MOL
REMARK 924 INTRA-LIGAND FREE ENERGY PREDICTED BY IDOCK:   -0.41 KCAL/MOL
REMARK 927      BINDING AFFINITY PREDICTED BY RF-SCORE:    0.00 PKD
ROOT
HETATM    1  C   UNL     1     -11.920  13.465  65.840  1.00  0.00    -0.409 C  
HETATM    2  O   UNL     1     -12.975  13.231  64.887  1.00  0.00    -0.727 OA 
HETATM    3  H   UNL     1      -8.875  12.040  65.633  1.00  0.00     0.000 HD 
HETATM    4  C   UNL     1     -12.534  12.369  63.927  1.00  0.00    -0.476 C  
HETATM    5  O   UNL     1      -9.591  12.571  65.961  1.00  0.00    -0.248 OA 
HETATM    6  H   UNL     1      -9.480  10.880  63.683  1.00  0.00     0.000 HD 
HETATM    7  C   UNL     1     -10.802  12.635  65.328  1.00  0.00    -0.288 C  
HETATM    8  O   UNL     1     -10.379  11.125  63.494  1.00  0.00    -0.354 OA 
HETATM    9  C   UNL     1     -11.145  11.991  64.219  1.00  0.00    -0.351 C  
HETATM   10  O   UNL     1     -13.174  11.945  62.980  1.00  0.00    -0.473 OA 
ENDROOT
BRANCH   1  11
HETATM   11  C   UNL     1     -11.653  14.979  66.006  1.00  0.00    -0.158 C  
HETATM   12  H   UNL     1     -10.640  16.189  67.235  1.00  0.00     0.000 HD 
HETATM   13  O   UNL     1     -10.804  15.259  67.133  1.00  0.00    -0.311 OA 
BRANCH  11  14
HETATM   14  C   UNL     1     -11.042  15.670  64.781  1.00  0.00    -0.412 C  
HETATM   15  O   UNL     1     -12.015  15.877  63.759  1.00  0.00    -1.238 OA 
HETATM   16  H   UNL     1     -11.637  16.305  63.001  1.00  0.00     0.000 HD 
ENDBRANCH  11  14
ENDBRANCH   1  11
TORSDOF 2
ENDMDL
MODEL       12
REMARK 921   NORMALIZED FREE ENERGY PREDICTED BY IDOCK:   -4.90 KCAL/MOL
REMARK 922        TOTAL FREE ENERGY PREDICTED BY IDOCK:   -5.85 KCAL/MOL
REMARK 923 INTER-LIGAND FREE ENERGY PREDICTED BY IDOCK:   -5.51 KCAL/MOL
REMARK 924 INTRA-LIGAND FREE ENERGY PREDICTED BY IDOCK:   -0.33 KCAL/MOL
REMARK 927      BINDING AFFINITY PREDICTED BY RF-SCORE:    0.00 PKD
ROOT
HETATM    1  C   UNL     1     -10.412  15.764  65.910  1.00  0.00    -0.352 C  
HETATM    2  O   UNL     1     -10.540  14.462  66.513  1.00  0.00    -0.289 OA 
HETATM    3  H   UNL     1     -11.965  16.655  63.057  1.00  0.00     0.000 HD 
HETATM    4  C   UNL     1     -11.369  13.692  65.753  1.00  0.00    -0.306 C  
HETATM    5  O   UNL     1     -11.418  16.715  63.832  1.00  0.00    -1.186 OA 
HETATM    6  H   UNL     1     -12.943  14.529  62.851  1.00  0.00     0.000 HD 
HETATM    7  C   UNL     1     -11.266  15.670  64.701  1.00  0.00    -0.369 C  
HETATM    8  O   UNL     1     -12.648  14.025  63.601  1.00  0.00    -0.818 OA 
HETATM    9  C   UNL     1     -11.825  14.471  64.596  1.00  0.00    -0.453 C  
HETATM   10  O   UNL     1     -11.682  12.532  65.965  1.00  0.00    -0.380 OA 
ENDROOT
BRANCH   1  11
HETATM   11  C   UNL     1     -10.754  16.878  66.928  1.00  0.00    -0.130 C  
HETATM   12  H   UNL     1     -10.677  17.167  68.905  1.00  0.00     0.000 HD 
HETATM   13  O   UNL     1     -10.468  16.483  68.280  1.00  0.00    -0.282 OA 
BRANCH  11  14
HETATM   14  C   UNL     1     -10.056  18.222  66.679  1.00  0.00    -0.375 C  
HETATM   15  O   UNL     1     -10.660  18.931  65.600  1.00  0.00    -0.575 OA 
HETATM   16  H   UNL     1     -10.229  19.763  65.446  1.00  0.00     0.000 HD 
ENDBRANCH  11  14
ENDBRANCH   1  11
TORSDOF 2
ENDMDL
MODEL       13
REMARK 921   NORMALIZED FREE ENERGY PREDICTED BY IDOCK:   -4.87 KCAL/MOL
REMARK 922        TOTAL FREE ENERGY PREDICTED BY IDOCK:   -5.81 KCAL/MOL
REMARK 923 INTER-LIGAND FREE ENERGY PREDICTED BY IDOCK:   -5.39 KCAL/MOL
REMARK 924 INTRA-LIGAND FREE ENERGY PREDICTED BY IDOCK:   -0.42 KCAL/MOL
REMARK 927      BINDING AFFINITY PREDICTED BY RF-SCORE:    0.00 PKD
ROOT
HETATM    1  C   UNL     1     -10.047  14.223  66.285  1.00  0.00    -0.298 C  
HETATM    2  O   UNL     1     -11.110  13.415  65.743  1.00  0.00    -0.283 OA 
HETATM    3  H   UNL     1      -9.461  17.403  65.344  1.00  0.00     0.000 HD 
HETATM    4  C   UNL     1     -11.805  14.142  64.823  1.00  0.00    -0.417 C  
HETATM    5  O   UNL     1      -9.364  16.575  65.800  1.00  0.00    -0.487 OA 
HETATM    6  H   UNL     1     -11.242  17.346  63.815  1.00  0.00     0.000 HD 
HETATM    7  C   UNL     1     -10.198  15.515  65.573  1.00  0.00    -0.386 C  
HETATM    8  O   UNL     1     -11.625  16.479  63.882  1.00  0.00    -1.175 OA 
HETATM    9  C   UNL     1     -11.213  15.481  64.719  1.00  0.00    -0.390 C  
HETATM   10  O   UNL     1     -12.756  13.760  64.162  1.00  0.00    -0.664 OA 
ENDROOT
BRANCH   1  11
HETATM   11  C   UNL     1     -10.116  14.258  67.830  1.00  0.00    -0.231 C  
HETATM   12  H   UNL     1      -8.913  14.701  69.366  1.00  0.00     0.000 HD 
HETATM   13  O   UNL     1      -8.872  14.678  68.417  1.00  0.00    -0.168 OA 
BRANCH  11  14
HETATM   14  C   UNL     1     -11.226  15.142  68.411  1.00  0.00    -0.299 C  
HETATM   15  O   UNL     1     -12.498  14.502  68.330  1.00  0.00    -0.592 OA 
HETATM   16  H   UNL     1     -13.185  15.049  68.691  1.00  0.00     0.000 HD 
ENDBRANCH  11  14
ENDBRANCH   1  11
TORSDOF 2
ENDMDL
MODEL       14
REMARK 921   NORMALIZED FREE ENERGY PREDICTED BY IDOCK:   -4.86 KCAL/MOL
REMARK 922        TOTAL FREE ENERGY PREDICTED BY IDOCK:   -5.81 KCAL/MOL
REMARK 923 INTER-LIGAND FREE ENERGY PREDICTED BY IDOCK:   -6.13 KCAL/MOL
REMARK 924 INTRA-LIGAND FREE ENERGY PREDICTED BY IDOCK:    0.32 KCAL/MOL
REMARK 927      BINDING AFFINITY PREDICTED BY RF-SCORE:    0.00 PKD
ROOT
HETATM    1  C   UNL     1     -12.312  13.711  65.895  1.00  0.00    -0.471 C  
HETATM    2  O   UNL     1     -12.245  12.276  66.008  1.00  0.00    -0.646 OA 
HETATM    3  H   UNL     1     -11.239  15.819  68.292  1.00  0.00     0.000 HD 
HETATM    4  C   UNL     1     -11.690  11.943  67.207  1.00  0.00    -0.247 C  
HETATM    5  O   UNL     1     -11.612  15.515  67.473  1.00  0.00    -0.253 OA 
HETATM    6  H   UNL     1     -10.613  14.028  69.676  1.00  0.00     0.000 HD 
HETATM    7  C   UNL     1     -11.730  14.185  67.174  1.00  0.00    -0.403 C  
HETATM    8  O   UNL     1     -10.821  13.234  69.197  1.00  0.00    -0.206 OA 
HETATM    9  C   UNL     1     -11.368  13.170  67.947  1.00  0.00    -0.286 C  
HETATM   10  O   UNL     1     -11.500  10.816  67.634  1.00  0.00    -0.477 OA 
ENDROOT
BRANCH   1  11
HETATM   11  C   UNL     1     -11.634  14.193  64.591  1.00  0.00    -0.406 C  
HETATM   12  H   UNL     1     -12.108  14.430  62.662  1.00  0.00     0.000 HD 
HETATM   13  O   UNL     1     -12.525  14.134  63.463  1.00  0.00    -0.817 OA 
BRANCH  11  14
HETATM   14  C   UNL     1     -11.049  15.610  64.648  1.00  0.00    -0.373 C  
HETATM   15  O   UNL     1     -11.722  16.488  63.748  1.00  0.00    -1.548 OA 
HETATM   16  H   UNL     1     -11.360  17.365  63.784  1.00  0.00     0.000 HD 
ENDBRANCH  11  14
ENDBRANCH   1  11
TORSDOF 2
ENDMDL
MODEL       15
REMARK 921   NORMALIZED FREE ENERGY PREDICTED BY IDOCK:   -4.86 KCAL/MOL
REMARK 922        TOTAL FREE ENERGY PREDICTED BY IDOCK:   -5.80 KCAL/MOL
REMARK 923 INTER-LIGAND FREE ENERGY PREDICTED BY IDOCK:   -5.45 KCAL/MOL
REMARK 924 INTRA-LIGAND FREE ENERGY PREDICTED BY IDOCK:   -0.35 KCAL/MOL
REMARK 927      BINDING AFFINITY PREDICTED BY RF-SCORE:    0.00 PKD
ROOT
HETATM    1  C   UNL     1     -10.436  13.975  66.070  1.00  0.00    -0.304 C  
HETATM    2  O   UNL     1     -11.282  13.253  65.155  1.00  0.00    -0.295 OA 
HETATM    3  H   UNL     1      -9.999  17.313  65.964  1.00  0.00     0.000 HD 
HETATM    4  C   UNL     1     -11.851  14.129  64.279  1.00  0.00    -0.397 C  
HETATM    5  O   UNL     1      -9.911  16.410  66.247  1.00  0.00    -0.286 OA 
HETATM    6  H   UNL     1     -11.426  17.504  64.109  1.00  0.00     0.000 HD 
HETATM    7  C   UNL     1     -10.572  15.384  65.628  1.00  0.00    -0.364 C  
HETATM    8  O   UNL     1     -11.726  16.625  63.909  1.00  0.00    -1.153 OA 
HETATM    9  C   UNL     1     -11.389  15.489  64.587  1.00  0.00    -0.357 C  
HETATM   10  O   UNL     1     -12.608  13.855  63.363  1.00  0.00    -0.853 OA 
ENDROOT
BRANCH   1  11
HETATM   11  C   UNL     1     -10.812  13.657  67.536  1.00  0.00    -0.264 C  
HETATM   12  H   UNL     1     -12.384  13.878  68.754  1.00  0.00     0.000 HD 
HETATM   13  O   UNL     1     -12.152  14.073  67.854  1.00  0.00    -0.363 OA 
BRANCH  11  14
HETATM   14  C   UNL     1     -10.675  12.183  67.938  1.00  0.00    -0.207 C  
HETATM   15  O   UNL     1     -11.859  11.448  67.635  1.00  0.00    -0.609 OA 
HETATM   16  H   UNL     1     -11.774  10.535  67.883  1.00  0.00     0.000 HD 
ENDBRANCH  11  14
ENDBRANCH   1  11
TORSDOF 2
ENDMDL
MODEL       16
REMARK 921   NORMALIZED FREE ENERGY PREDICTED BY IDOCK:   -4.79 KCAL/MOL
REMARK 922        TOTAL FREE ENERGY PREDICTED BY IDOCK:   -5.73 KCAL/MOL
REMARK 923 INTER-LIGAND FREE ENERGY PREDICTED BY IDOCK:   -5.40 KCAL/MOL
REMARK 924 INTRA-LIGAND FREE ENERGY PREDICTED BY IDOCK:   -0.33 KCAL/MOL
REMARK 927      BINDING AFFINITY PREDICTED BY RF-SCORE:    0.00 PKD
ROOT
HETATM    1  C   UNL     1     -11.792  13.317  65.082  1.00  0.00    -0.348 C  
HETATM    2  O   UNL     1     -11.075  13.182  63.840  1.00  0.00    -0.388 OA 
HETATM    3  H   UNL     1     -11.734  11.001  67.526  1.00  0.00     0.000 HD 
HETATM    4  C   UNL     1     -10.396  12.000  63.837  1.00  0.00    -0.402 C  
HETATM    5  O   UNL     1     -11.950  11.799  67.059  1.00  0.00    -0.610 OA 
HETATM    6  H   UNL     1     -10.321   9.613  66.265  1.00  0.00     0.000 HD 
HETATM    7  C   UNL     1     -11.456  12.071  65.812  1.00  0.00    -0.320 C  
HETATM    8  O   UNL     1     -10.158  10.069  65.448  1.00  0.00    -0.310 OA 
HETATM    9  C   UNL     1     -10.649  11.295  65.100  1.00  0.00    -0.280 C  
HETATM   10  O   UNL     1      -9.701  11.562  62.935  1.00  0.00    -0.372 OA 
ENDROOT
BRANCH   1  11
HETATM   11  C   UNL     1     -11.445  14.655  65.776  1.00  0.00    -0.338 C  
HETATM   12  H   UNL     1     -10.188  15.324  67.181  1.00  0.00     0.000 HD 
HETATM   13  O   UNL     1     -10.402  14.502  66.754  1.00  0.00    -0.264 OA 
BRANCH  11  14
HETATM   14  C   UNL     1     -11.034  15.791  64.831  1.00  0.00    -0.427 C  
HETATM   15  O   UNL     1     -11.993  15.978  63.793  1.00  0.00    -1.339 OA 
HETATM   16  H   UNL     1     -11.738  16.681  63.207  1.00  0.00     0.000 HD 
ENDBRANCH  11  14
ENDBRANCH   1  11
TORSDOF 2
ENDMDL
MODEL       17
REMARK 921   NORMALIZED FREE ENERGY PREDICTED BY IDOCK:   -4.74 KCAL/MOL
REMARK 922        TOTAL FREE ENERGY PREDICTED BY IDOCK:   -5.68 KCAL/MOL
REMARK 923 INTER-LIGAND FREE ENERGY PREDICTED BY IDOCK:   -5.24 KCAL/MOL
REMARK 924 INTRA-LIGAND FREE ENERGY PREDICTED BY IDOCK:   -0.44 KCAL/MOL
REMARK 927      BINDING AFFINITY PREDICTED BY RF-SCORE:    0.00 PKD
ROOT
HETATM    1  C   UNL     1     -10.347  12.873  65.153  1.00  0.00    -0.303 C  
HETATM    2  O   UNL     1     -10.036  14.273  65.009  1.00  0.00    -0.389 OA 
HETATM    3  H   UNL     1     -12.393  11.655  67.534  1.00  0.00     0.000 HD 
HETATM    4  C   UNL     1     -10.695  14.982  65.970  1.00  0.00    -0.326 C  
HETATM    5  O   UNL     1     -11.803  11.675  66.790  1.00  0.00    -0.557 OA 
HETATM    6  H   UNL     1     -12.752  13.802  68.415  1.00  0.00     0.000 HD 
HETATM    7  C   UNL     1     -11.269  12.841  66.314  1.00  0.00    -0.300 C  
HETATM    8  O   UNL     1     -12.246  14.400  67.877  1.00  0.00    -0.299 OA 
HETATM    9  C   UNL     1     -11.477  14.058  66.801  1.00  0.00    -0.363 C  
HETATM   10  O   UNL     1     -10.644  16.187  66.147  1.00  0.00    -0.313 OA 
ENDROOT
BRANCH   1  11
HETATM   11  C   UNL     1     -10.873  12.287  63.821  1.00  0.00    -0.442 C  
HETATM   12  H   UNL     1     -11.061  10.495  62.952  1.00  0.00     0.000 HD 
HETATM   13  O   UNL     1     -10.738  10.856  63.769  1.00  0.00    -0.315 OA 
BRANCH  11  14
HETATM   14  C   UNL     1     -12.332  12.629  63.491  1.00  0.00    -0.496 C  
HETATM   15  O   UNL     1     -12.480  14.004  63.148  1.00  0.00    -1.137 OA 
HETATM   16  H   UNL     1     -13.383  14.216  62.944  1.00  0.00     0.000 HD 
ENDBRANCH  11  14
ENDBRANCH   1  11
TORSDOF 2
ENDMDL
MODEL       18
REMARK 921   NORMALIZED FREE ENERGY PREDICTED BY IDOCK:   -4.71 KCAL/MOL
REMARK 922        TOTAL FREE ENERGY PREDICTED BY IDOCK:   -5.64 KCAL/MOL
REMARK 923 INTER-LIGAND FREE ENERGY PREDICTED BY IDOCK:   -5.47 KCAL/MOL
REMARK 924 INTRA-LIGAND FREE ENERGY PREDICTED BY IDOCK:   -0.16 KCAL/MOL
REMARK 927      BINDING AFFINITY PREDICTED BY RF-SCORE:    0.00 PKD
ROOT
HETATM    1  C   UNL     1     -10.970  14.302  66.573  1.00  0.00    -0.316 C  
HETATM    2  O   UNL     1     -10.750  15.602  65.992  1.00  0.00    -0.319 OA 
HETATM    3  H   UNL     1     -12.761  11.874  65.077  1.00  0.00     0.000 HD 
HETATM    4  C   UNL     1     -11.369  15.665  64.779  1.00  0.00    -0.343 C  
HETATM    5  O   UNL     1     -12.233  12.320  65.728  1.00  0.00    -0.622 OA 
HETATM    6  H   UNL     1     -13.211  13.254  63.231  1.00  0.00     0.000 HD 
HETATM    7  C   UNL     1     -11.795  13.605  65.556  1.00  0.00    -0.362 C  
HETATM    8  O   UNL     1     -12.778  14.082  63.405  1.00  0.00    -0.796 OA 
HETATM    9  C   UNL     1     -12.037  14.385  64.511  1.00  0.00    -0.481 C  
HETATM   10  O   UNL     1     -11.398  16.624  64.026  1.00  0.00    -1.120 OA 
ENDROOT
BRANCH   1  11
HETATM   11  C   UNL     1      -9.629  13.640  66.965  1.00  0.00    -0.251 C  
HETATM   12  H   UNL     1      -7.730  14.186  67.274  1.00  0.00     0.000 HD 
HETATM   13  O   UNL     1      -8.553  14.593  67.033  1.00  0.00    -0.213 OA 
BRANCH  11  14
HETATM   14  C   UNL     1      -9.649  12.867  68.290  1.00  0.00    -0.212 C  
HETATM   15  O   UNL     1     -10.560  13.449  69.220  1.00  0.00    -0.438 OA 
HETATM   16  H   UNL     1     -10.572  12.970  70.040  1.00  0.00     0.000 HD 
ENDBRANCH  11  14
ENDBRANCH   1  11
TORSDOF 2
ENDMDL
MODEL       19
REMARK 921   NORMALIZED FREE ENERGY PREDICTED BY IDOCK:   -4.71 KCAL/MOL
REMARK 922        TOTAL FREE ENERGY PREDICTED BY IDOCK:   -5.64 KCAL/MOL
REMARK 923 INTER-LIGAND FREE ENERGY PREDICTED BY IDOCK:   -5.21 KCAL/MOL
REMARK 924 INTRA-LIGAND FREE ENERGY PREDICTED BY IDOCK:   -0.43 KCAL/MOL
REMARK 927      BINDING AFFINITY PREDICTED BY RF-SCORE:    0.00 PKD
ROOT
HETATM    1  C   UNL     1     -10.189  14.866  66.203  1.00  0.00    -0.300 C  
HETATM    2  O   UNL     1     -10.753  13.564  66.453  1.00  0.00    -0.284 OA 
HETATM    3  H   UNL     1     -11.339  16.972  63.840  1.00  0.00     0.000 HD 
HETATM    4  C   UNL     1     -11.793  13.351  65.597  1.00  0.00    -0.370 C  
HETATM    5  O   UNL     1     -10.806  16.632  64.549  1.00  0.00    -0.847 OA 
HETATM    6  H   UNL     1     -12.982  15.431  63.176  1.00  0.00     0.000 HD 
HETATM    7  C   UNL     1     -11.021  15.397  65.096  1.00  0.00    -0.418 C  
HETATM    8  O   UNL     1     -12.877  14.670  63.736  1.00  0.00    -0.677 OA 
HETATM    9  C   UNL     1     -11.954  14.527  64.732  1.00  0.00    -0.442 C  
HETATM   10  O   UNL     1     -12.482  12.348  65.525  1.00  0.00    -0.643 OA 
ENDROOT
BRANCH   1  11
HETATM   11  C   UNL     1     -10.133  15.700  67.504  1.00  0.00    -0.253 C  
HETATM   12  H   UNL     1      -9.261  17.374  68.166  1.00  0.00     0.000 HD 
HETATM   13  O   UNL     1      -9.295  16.861  67.367  1.00  0.00    -0.231 OA 
BRANCH  11  14
HETATM   14  C   UNL     1     -11.494  16.169  68.035  1.00  0.00    -0.163 C  
HETATM   15  O   UNL     1     -12.219  15.095  68.629  1.00  0.00    -0.578 OA 
HETATM   16  H   UNL     1     -13.062  15.385  68.958  1.00  0.00     0.000 HD 
ENDBRANCH  11  14
ENDBRANCH   1  11
TORSDOF 2
ENDMDL
MODEL       20
REMARK 921   NORMALIZED FREE ENERGY PREDICTED BY IDOCK:   -4.68 KCAL/MOL
REMARK 922        TOTAL FREE ENERGY PREDICTED BY IDOCK:   -5.61 KCAL/MOL
REMARK 923 INTER-LIGAND FREE ENERGY PREDICTED BY IDOCK:   -5.18 KCAL/MOL
REMARK 924 INTRA-LIGAND FREE ENERGY PREDICTED BY IDOCK:   -0.43 KCAL/MOL
REMARK 927      BINDING AFFINITY PREDICTED BY RF-SCORE:    0.00 PKD
ROOT
HETATM    1  C   UNL     1     -11.815  14.339  66.684  1.00  0.00    -0.421 C  
HETATM    2  O   UNL     1     -11.499  15.617  66.098  1.00  0.00    -0.037 OA 
HETATM    3  H   UNL     1     -12.917  11.698  64.909  1.00  0.00     0.000 HD 
HETATM    4  C   UNL     1     -11.715  15.563  64.753  1.00  0.00    -0.187 C  
HETATM    5  O   UNL     1     -12.642  12.221  65.653  1.00  0.00    -0.504 OA 
HETATM    6  H   UNL     1     -12.852  12.933  62.912  1.00  0.00     0.000 HD 
HETATM    7  C   UNL     1     -12.245  13.523  65.522  1.00  0.00    -0.451 C  
HETATM    8  O   UNL     1     -12.541  13.800  63.143  1.00  0.00    -0.793 OA 
HETATM    9  C   UNL     1     -12.196  14.222  64.395  1.00  0.00    -0.447 C  
HETATM   10  O   UNL     1     -11.565  16.472  63.955  1.00  0.00    -1.175 OA 
ENDROOT
BRANCH   1  11
HETATM   11  C   UNL     1     -10.625  13.806  67.516  1.00  0.00    -0.244 C  
HETATM   12  H   UNL     1     -10.280  12.394  68.890  1.00  0.00     0.000 HD 
HETATM   13  O   UNL     1     -11.011  12.722  68.379  1.00  0.00    -0.232 OA 
BRANCH  11  14
HETATM   14  C   UNL     1      -9.415  13.339  66.696  1.00  0.00    -0.260 C  
HETATM   15  O   UNL     1      -8.717  14.442  66.124  1.00  0.00    -0.424 OA 
HETATM   16  H   UNL     1      -7.968  14.154  65.616  1.00  0.00     0.000 HD 
ENDBRANCH  11  14
ENDBRANCH   1  11
TORSDOF 2
ENDMDL
MODEL       21
REMARK 921   NORMALIZED FREE ENERGY PREDICTED BY IDOCK:   -4.63 KCAL/MOL
REMARK 922        TOTAL FREE ENERGY PREDICTED BY IDOCK:   -5.55 KCAL/MOL
REMARK 923 INTER-LIGAND FREE ENERGY PREDICTED BY IDOCK:   -5.18 KCAL/MOL
REMARK 924 INTRA-LIGAND FREE ENERGY PREDICTED BY IDOCK:   -0.37 KCAL/MOL
REMARK 927      BINDING AFFINITY PREDICTED BY RF-SCORE:    0.00 PKD
ROOT
HETATM    1  C   UNL     1     -10.623  14.369  65.397  1.00  0.00    -0.365 C  
HETATM    2  O   UNL     1     -10.854  15.475  64.504  1.00  0.00    -0.331 OA 
HETATM    3  H   UNL     1     -10.201  14.714  68.720  1.00  0.00     0.000 HD 
HETATM    4  C   UNL     1     -10.872  16.636  65.219  1.00  0.00    -0.183 C  
HETATM    5  O   UNL     1     -10.276  14.299  67.869  1.00  0.00    -0.231 OA 
HETATM    6  H   UNL     1     -10.426  17.047  68.570  1.00  0.00     0.000 HD 
HETATM    7  C   UNL     1     -10.506  15.016  66.726  1.00  0.00    -0.283 C  
HETATM    8  O   UNL     1     -10.572  17.243  67.652  1.00  0.00    -0.358 OA 
HETATM    9  C   UNL     1     -10.645  16.333  66.638  1.00  0.00    -0.252 C  
HETATM   10  O   UNL     1     -11.027  17.762  64.776  1.00  0.00    -0.855 OA 
ENDROOT
BRANCH   1  11
HETATM   11  C   UNL     1     -11.721  13.291  65.233  1.00  0.00    -0.330 C  
HETATM   12  H   UNL     1     -13.711  13.155  65.377  1.00  0.00     0.000 HD 
HETATM   13  O   UNL     1     -13.037  13.817  65.478  1.00  0.00    -0.671 OA 
BRANCH  11  14
HETATM   14  C   UNL     1     -11.746  12.591  63.868  1.00  0.00    -0.452 C  
HETATM   15  O   UNL     1     -12.301  13.433  62.860  1.00  0.00    -0.869 OA 
HETATM   16  H   UNL     1     -12.316  13.000  62.015  1.00  0.00     0.000 HD 
ENDBRANCH  11  14
ENDBRANCH   1  11
TORSDOF 2
ENDMDL
MODEL       22
REMARK 921   NORMALIZED FREE ENERGY PREDICTED BY IDOCK:   -4.58 KCAL/MOL
REMARK 922        TOTAL FREE ENERGY PREDICTED BY IDOCK:   -5.50 KCAL/MOL
REMARK 923 INTER-LIGAND FREE ENERGY PREDICTED BY IDOCK:   -5.07 KCAL/MOL
REMARK 924 INTRA-LIGAND FREE ENERGY PREDICTED BY IDOCK:   -0.43 KCAL/MOL
REMARK 927      BINDING AFFINITY PREDICTED BY RF-SCORE:    0.00 PKD
ROOT
HETATM    1  C   UNL     1     -10.168  12.474  64.954  1.00  0.00    -0.278 C  
HETATM    2  O   UNL     1     -11.213  11.662  64.385  1.00  0.00    -0.326 OA 
HETATM    3  H   UNL     1     -10.305  15.834  65.125  1.00  0.00     0.000 HD 
HETATM    4  C   UNL     1     -12.224  12.467  63.950  1.00  0.00    -0.513 C  
HETATM    5  O   UNL     1      -9.975  14.949  65.222  1.00  0.00    -0.350 OA 
HETATM    6  H   UNL     1     -12.405  15.866  64.073  1.00  0.00     0.000 HD 
HETATM    7  C   UNL     1     -10.683  13.856  64.802  1.00  0.00    -0.423 C  
HETATM    8  O   UNL     1     -12.630  14.959  63.900  1.00  0.00    -0.831 OA 
HETATM    9  C   UNL     1     -11.874  13.868  64.218  1.00  0.00    -0.412 C  
HETATM   10  O   UNL     1     -13.254  12.110  63.403  1.00  0.00    -0.689 OA 
ENDROOT
BRANCH   1  11
HETATM   11  C   UNL     1      -9.824  12.004  66.387  1.00  0.00    -0.220 C  
HETATM   12  H   UNL     1      -8.299  12.137  67.675  1.00  0.00     0.000 HD 
HETATM   13  O   UNL     1      -8.511  12.425  66.795  1.00  0.00    -0.174 OA 
BRANCH  11  14
HETATM   14  C   UNL     1     -10.813  12.451  67.472  1.00  0.00    -0.236 C  
HETATM   15  O   UNL     1     -12.034  11.718  67.398  1.00  0.00    -0.617 OA 
HETATM   16  H   UNL     1     -12.646  11.994  68.070  1.00  0.00     0.000 HD 
ENDBRANCH  11  14
ENDBRANCH   1  11
TORSDOF 2
ENDMDL
MODEL       23
REMARK 921   NORMALIZED FREE ENERGY PREDICTED BY IDOCK:   -4.58 KCAL/MOL
REMARK 922        TOTAL FREE ENERGY PREDICTED BY IDOCK:   -5.49 KCAL/MOL
REMARK 923 INTER-LIGAND FREE ENERGY PREDICTED BY IDOCK:   -5.29 KCAL/MOL
REMARK 924 INTRA-LIGAND FREE ENERGY PREDICTED BY IDOCK:   -0.20 KCAL/MOL
REMARK 927      BINDING AFFINITY PREDICTED BY RF-SCORE:    0.00 PKD
ROOT
HETATM    1  C   UNL     1      -9.758  15.642  65.707  1.00  0.00    -0.345 C  
HETATM    2  O   UNL     1      -9.799  14.383  66.406  1.00  0.00    -0.271 OA 
HETATM    3  H   UNL     1     -12.248  16.758  63.732  1.00  0.00     0.000 HD 
HETATM    4  C   UNL     1     -10.979  13.756  66.137  1.00  0.00    -0.292 C  
HETATM    5  O   UNL     1     -11.416  16.732  64.191  1.00  0.00    -1.171 OA 
HETATM    6  H   UNL     1     -13.517  14.822  64.131  1.00  0.00     0.000 HD 
HETATM    7  C   UNL     1     -11.056  15.682  64.990  1.00  0.00    -0.389 C  
HETATM    8  O   UNL     1     -13.003  14.282  64.719  1.00  0.00    -0.653 OA 
HETATM    9  C   UNL     1     -11.774  14.592  65.228  1.00  0.00    -0.361 C  
HETATM   10  O   UNL     1     -11.335  12.665  66.551  1.00  0.00    -0.291 OA 
ENDROOT
BRANCH   1  11
HETATM   11  C   UNL     1      -9.456  16.804  66.682  1.00  0.00    -0.257 C  
HETATM   12  H   UNL     1      -8.721  18.663  66.605  1.00  0.00     0.000 HD 
HETATM   13  O   UNL     1      -8.906  17.949  66.006  1.00  0.00    -0.492 OA 
BRANCH  11  14
HETATM   14  C   UNL     1     -10.654  17.285  67.511  1.00  0.00    -0.329 C  
HETATM   15  O   UNL     1     -10.884  18.680  67.335  1.00  0.00    -0.439 OA 
HETATM   16  H   UNL     1     -11.625  18.978  67.848  1.00  0.00     0.000 HD 
ENDBRANCH  11  14
ENDBRANCH   1  11
TORSDOF 2
ENDMDL
MODEL       24
REMARK 921   NORMALIZED FREE ENERGY PREDICTED BY IDOCK:   -4.54 KCAL/MOL
REMARK 922        TOTAL FREE ENERGY PREDICTED BY IDOCK:   -5.45 KCAL/MOL
REMARK 923 INTER-LIGAND FREE ENERGY PREDICTED BY IDOCK:   -5.05 KCAL/MOL
REMARK 924 INTRA-LIGAND FREE ENERGY PREDICTED BY IDOCK:   -0.40 KCAL/MOL
REMARK 927      BINDING AFFINITY PREDICTED BY RF-SCORE:    0.00 PKD
ROOT
HETATM    1  C   UNL     1     -10.432  14.382  64.736  1.00  0.00    -0.367 C  
HETATM    2  O   UNL     1      -9.972  13.130  65.280  1.00  0.00    -0.254 OA 
HETATM    3  H   UNL     1     -13.554  14.873  63.574  1.00  0.00     0.000 HD 
HETATM    4  C   UNL     1     -10.988  12.221  65.242  1.00  0.00    -0.307 C  
HETATM    5  O   UNL     1     -12.651  15.052  63.807  1.00  0.00    -0.776 OA 
HETATM    6  H   UNL     1     -14.152  12.654  64.057  1.00  0.00     0.000 HD 
HETATM    7  C   UNL     1     -11.842  14.104  64.372  1.00  0.00    -0.428 C  
HETATM    8  O   UNL     1     -13.382  12.246  64.436  1.00  0.00    -0.786 OA 
HETATM    9  C   UNL     1     -12.178  12.852  64.657  1.00  0.00    -0.435 C  
HETATM   10  O   UNL     1     -10.939  11.059  65.608  1.00  0.00    -0.153 OA 
ENDROOT
BRANCH   1  11
HETATM   11  C   UNL     1     -10.177  15.540  65.729  1.00  0.00    -0.366 C  
HETATM   12  H   UNL     1     -10.257  17.539  65.742  1.00  0.00     0.000 HD 
HETATM   13  O   UNL     1     -10.413  16.827  65.132  1.00  0.00    -0.658 OA 
BRANCH  11  14
HETATM   14  C   UNL     1     -10.991  15.474  67.028  1.00  0.00    -0.283 C  
HETATM   15  O   UNL     1     -10.452  14.513  67.932  1.00  0.00    -0.239 OA 
HETATM   16  H   UNL     1     -10.955  14.472  68.736  1.00  0.00     0.000 HD 
ENDBRANCH  11  14
ENDBRANCH   1  11
TORSDOF 2
ENDMDL
MODEL       25
REMARK 921   NORMALIZED FREE ENERGY PREDICTED BY IDOCK:   -4.45 KCAL/MOL
REMARK 922        TOTAL FREE ENERGY PREDICTED BY IDOCK:   -5.35 KCAL/MOL
REMARK 923 INTER-LIGAND FREE ENERGY PREDICTED BY IDOCK:   -4.96 KCAL/MOL
REMARK 924 INTRA-LIGAND FREE ENERGY PREDICTED BY IDOCK:   -0.39 KCAL/MOL
REMARK 927      BINDING AFFINITY PREDICTED BY RF-SCORE:    0.00 PKD
ROOT
HETATM    1  C   UNL     1     -11.265  14.032  66.954  1.00  0.00    -0.313 C  
HETATM    2  O   UNL     1     -11.469  15.019  65.924  1.00  0.00    -0.321 OA 
HETATM    3  H   UNL     1     -12.346  10.851  66.726  1.00  0.00     0.000 HD 
HETATM    4  C   UNL     1     -12.148  14.453  64.886  1.00  0.00    -0.436 C  
HETATM    5  O   UNL     1     -11.936  11.630  67.082  1.00  0.00    -0.614 OA 
HETATM    6  H   UNL     1     -13.287  11.255  64.612  1.00  0.00     0.000 HD 
HETATM    7  C   UNL     1     -11.905  12.815  66.399  1.00  0.00    -0.408 C  
HETATM    8  O   UNL     1     -13.107  12.166  64.409  1.00  0.00    -0.740 OA 
HETATM    9  C   UNL     1     -12.425  13.046  65.200  1.00  0.00    -0.496 C  
HETATM   10  O   UNL     1     -12.500  15.008  63.859  1.00  0.00    -0.790 OA 
ENDROOT
BRANCH   1  11
HETATM   11  C   UNL     1      -9.768  13.930  67.329  1.00  0.00    -0.245 C  
HETATM   12  H   UNL     1      -8.117  13.027  66.649  1.00  0.00     0.000 HD 
HETATM   13  O   UNL     1      -9.037  13.090  66.419  1.00  0.00    -0.179 OA 
BRANCH  11  14
HETATM   14  C   UNL     1      -9.027  15.271  67.421  1.00  0.00    -0.183 C  
HETATM   15  O   UNL     1      -9.849  16.281  68.000  1.00  0.00    -0.231 OA 
HETATM   16  H   UNL     1      -9.391  17.111  68.057  1.00  0.00     0.000 HD 
ENDBRANCH  11  14
ENDBRANCH   1  11
TORSDOF 2
ENDMDL
MODEL       26
REMARK 921   NORMALIZED FREE ENERGY PREDICTED BY IDOCK:   -4.44 KCAL/MOL
REMARK 922        TOTAL FREE ENERGY PREDICTED BY IDOCK:   -5.34 KCAL/MOL
REMARK 923 INTER-LIGAND FREE ENERGY PREDICTED BY IDOCK:   -5.03 KCAL/MOL
REMARK 924 INTRA-LIGAND FREE ENERGY PREDICTED BY IDOCK:   -0.31 KCAL/MOL
REMARK 927      BINDING AFFINITY PREDICTED BY RF-SCORE:    0.00 PKD
ROOT
HETATM    1  C   UNL     1     -12.100  12.831  65.901  1.00  0.00    -0.426 C  
HETATM    2  O   UNL     1     -12.135  11.860  66.964  1.00  0.00    -0.600 OA 
HETATM    3  H   UNL     1     -11.239  16.056  66.354  1.00  0.00     0.000 HD 
HETATM    4  C   UNL     1     -11.769  12.457  68.134  1.00  0.00    -0.353 C  
HETATM    5  O   UNL     1     -11.514  15.259  65.916  1.00  0.00    -0.243 OA 
HETATM    6  H   UNL     1     -10.916  15.713  68.654  1.00  0.00     0.000 HD 
HETATM    7  C   UNL     1     -11.670  14.076  66.584  1.00  0.00    -0.399 C  
HETATM    8  O   UNL     1     -11.104  14.796  68.817  1.00  0.00    -0.243 OA 
HETATM    9  C   UNL     1     -11.478  13.874  67.882  1.00  0.00    -0.318 C  
HETATM   10  O   UNL     1     -11.707  11.929  69.231  1.00  0.00    -0.281 OA 
ENDROOT
BRANCH   1  11
HETATM   11  C   UNL     1     -11.222  12.334  64.728  1.00  0.00    -0.318 C  
HETATM   12  H   UNL     1     -10.344  10.636  64.138  1.00  0.00     0.000 HD 
HETATM   13  O   UNL     1     -10.883  10.942  64.858  1.00  0.00    -0.227 OA 
BRANCH  11  14
HETATM   14  C   UNL     1     -11.826  12.537  63.333  1.00  0.00    -0.503 C  
HETATM   15  O   UNL     1     -12.372  13.845  63.186  1.00  0.00    -1.122 OA 
HETATM   16  H   UNL     1     -12.745  13.971  62.322  1.00  0.00     0.000 HD 
ENDBRANCH  11  14
ENDBRANCH   1  11
TORSDOF 2
ENDMDL
MODEL       27
REMARK 921   NORMALIZED FREE ENERGY PREDICTED BY IDOCK:   -4.39 KCAL/MOL
REMARK 922        TOTAL FREE ENERGY PREDICTED BY IDOCK:   -5.29 KCAL/MOL
REMARK 923 INTER-LIGAND FREE ENERGY PREDICTED BY IDOCK:   -5.16 KCAL/MOL
REMARK 924 INTRA-LIGAND FREE ENERGY PREDICTED BY IDOCK:   -0.12 KCAL/MOL
REMARK 927      BINDING AFFINITY PREDICTED BY RF-SCORE:    0.00 PKD
ROOT
HETATM    1  C   UNL     1     -10.512  13.624  65.287  1.00  0.00    -0.351 C  
HETATM    2  O   UNL     1     -11.323  14.343  64.338  1.00  0.00    -0.335 OA 
HETATM    3  H   UNL     1      -8.500  15.126  67.532  1.00  0.00     0.000 HD 
HETATM    4  C   UNL     1     -11.138  15.683  64.510  1.00  0.00    -0.286 C  
HETATM    5  O   UNL     1      -8.941  14.436  67.050  1.00  0.00    -0.218 OA 
HETATM    6  H   UNL     1      -9.101  17.255  66.742  1.00  0.00     0.000 HD 
HETATM    7  C   UNL     1      -9.824  14.701  66.040  1.00  0.00    -0.322 C  
HETATM    8  O   UNL     1      -9.724  17.113  66.038  1.00  0.00    -0.432 OA 
HETATM    9  C   UNL     1     -10.175  15.902  65.597  1.00  0.00    -0.379 C  
HETATM   10  O   UNL     1     -11.657  16.578  63.864  1.00  0.00    -1.175 OA 
ENDROOT
BRANCH   1  11
HETATM   11  C   UNL     1     -11.371  12.632  66.106  1.00  0.00    -0.330 C  
HETATM   12  H   UNL     1     -13.168  11.763  65.985  1.00  0.00     0.000 HD 
HETATM   13  O   UNL     1     -12.641  12.373  65.483  1.00  0.00    -0.616 OA 
BRANCH  11  14
HETATM   14  C   UNL     1     -10.707  11.278  66.389  1.00  0.00    -0.267 C  
HETATM   15  O   UNL     1     -11.413  10.551  67.392  1.00  0.00    -0.448 OA 
HETATM   16  H   UNL     1     -11.002   9.713  67.568  1.00  0.00     0.000 HD 
ENDBRANCH  11  14
ENDBRANCH   1  11
TORSDOF 2
ENDMDL
MODEL       28
REMARK 921   NORMALIZED FREE ENERGY PREDICTED BY IDOCK:   -4.34 KCAL/MOL
REMARK 922        TOTAL FREE ENERGY PREDICTED BY IDOCK:   -5.22 KCAL/MOL
REMARK 923 INTER-LIGAND FREE ENERGY PREDICTED BY IDOCK:   -5.05 KCAL/MOL
REMARK 924 INTRA-LIGAND FREE ENERGY PREDICTED BY IDOCK:   -0.17 KCAL/MOL
REMARK 927      BINDING AFFINITY PREDICTED BY RF-SCORE:    0.00 PKD
ROOT
HETATM    1  C   UNL     1     -11.823  12.098  66.452  1.00  0.00    -0.246 C  
HETATM    2  O   UNL     1     -12.684  12.913  65.634  1.00  0.00    -0.537 OA 
HETATM    3  H   UNL     1      -8.976  10.691  65.331  1.00  0.00     0.000 HD 
HETATM    4  C   UNL     1     -12.158  13.008  64.380  1.00  0.00    -0.411 C  
HETATM    5  O   UNL     1      -9.679  10.931  65.922  1.00  0.00    -0.205 OA 
HETATM    6  H   UNL     1      -9.302  11.588  63.185  1.00  0.00     0.000 HD 
HETATM    7  C   UNL     1     -10.724  11.722  65.529  1.00  0.00    -0.279 C  
HETATM    8  O   UNL     1     -10.111  12.085  63.223  1.00  0.00    -0.430 OA 
HETATM    9  C   UNL     1     -10.907  12.241  64.321  1.00  0.00    -0.348 C  
HETATM   10  O   UNL     1     -12.638  13.608  63.433  1.00  0.00    -0.799 OA 
ENDROOT
BRANCH   1  11
HETATM   11  C   UNL     1     -11.429  12.842  67.749  1.00  0.00    -0.323 C  
HETATM   12  H   UNL     1     -11.777  14.610  68.619  1.00  0.00     0.000 HD 
HETATM   13  O   UNL     1     -12.018  14.152  67.822  1.00  0.00    -0.366 OA 
BRANCH  11  14
HETATM   14  C   UNL     1     -11.770  12.106  69.051  1.00  0.00    -0.322 C  
HETATM   15  O   UNL     1     -12.402  10.854  68.791  1.00  0.00    -0.783 OA 
HETATM   16  H   UNL     1     -12.613  10.398  69.597  1.00  0.00     0.000 HD 
ENDBRANCH  11  14
ENDBRANCH   1  11
TORSDOF 2
ENDMDL
MODEL       29
REMARK 921   NORMALIZED FREE ENERGY PREDICTED BY IDOCK:   -4.32 KCAL/MOL
REMARK 922        TOTAL FREE ENERGY PREDICTED BY IDOCK:   -5.20 KCAL/MOL
REMARK 923 INTER-LIGAND FREE ENERGY PREDICTED BY IDOCK:   -4.79 KCAL/MOL
REMARK 924 INTRA-LIGAND FREE ENERGY PREDICTED BY IDOCK:   -0.41 KCAL/MOL
REMARK 927      BINDING AFFINITY PREDICTED BY RF-SCORE:    0.00 PKD
ROOT
HETATM    1  C   UNL     1     -11.140  13.283  65.969  1.00  0.00    -0.283 C  
HETATM    2  O   UNL     1     -10.236  12.365  65.325  1.00  0.00    -0.276 OA 
HETATM    3  H   UNL     1     -14.295  13.830  64.925  1.00  0.00     0.000 HD 
HETATM    4  C   UNL     1     -10.864  11.782  64.264  1.00  0.00    -0.349 C  
HETATM    5  O   UNL     1     -13.502  13.901  65.443  1.00  0.00    -0.672 OA 
HETATM    6  H   UNL     1     -14.038  12.316  63.149  1.00  0.00     0.000 HD 
HETATM    7  C   UNL     1     -12.379  13.173  65.161  1.00  0.00    -0.473 C  
HETATM    8  O   UNL     1     -13.153  11.976  63.213  1.00  0.00    -0.701 OA 
HETATM    9  C   UNL     1     -12.232  12.307  64.165  1.00  0.00    -0.446 C  
HETATM   10  O   UNL     1     -10.385  10.969  63.492  1.00  0.00    -0.352 OA 
ENDROOT
BRANCH   1  11
HETATM   11  C   UNL     1     -11.257  12.972  67.480  1.00  0.00    -0.284 C  
HETATM   12  H   UNL     1     -12.226  11.688  68.668  1.00  0.00     0.000 HD 
HETATM   13  O   UNL     1     -12.154  11.879  67.741  1.00  0.00    -0.564 OA 
BRANCH  11  14
HETATM   14  C   UNL     1      -9.930  12.662  68.184  1.00  0.00    -0.225 C  
HETATM   15  O   UNL     1      -9.518  11.317  67.952  1.00  0.00    -0.169 OA 
HETATM   16  H   UNL     1      -8.696  11.126  68.387  1.00  0.00     0.000 HD 
ENDBRANCH  11  14
ENDBRANCH   1  11
TORSDOF 2
ENDMDL
MODEL       30
REMARK 921   NORMALIZED FREE ENERGY PREDICTED BY IDOCK:   -4.25 KCAL/MOL
REMARK 922        TOTAL FREE ENERGY PREDICTED BY IDOCK:   -5.13 KCAL/MOL
REMARK 923 INTER-LIGAND FREE ENERGY PREDICTED BY IDOCK:   -4.93 KCAL/MOL
REMARK 924 INTRA-LIGAND FREE ENERGY PREDICTED BY IDOCK:   -0.20 KCAL/MOL
REMARK 927      BINDING AFFINITY PREDICTED BY RF-SCORE:    0.00 PKD
ROOT
HETATM    1  C   UNL     1     -11.917  13.372  66.580  1.00  0.00    -0.400 C  
HETATM    2  O   UNL     1     -12.429  14.195  65.514  1.00  0.00    -0.457 OA 
HETATM    3  H   UNL     1     -10.499  10.357  66.088  1.00  0.00     0.000 HD 
HETATM    4  C   UNL     1     -12.239  13.560  64.323  1.00  0.00    -0.396 C  
HETATM    5  O   UNL     1     -10.828  11.125  66.540  1.00  0.00    -0.274 OA 
HETATM    6  H   UNL     1     -10.838  10.505  63.769  1.00  0.00     0.000 HD 
HETATM    7  C   UNL     1     -11.403  12.173  65.874  1.00  0.00    -0.356 C  
HETATM    8  O   UNL     1     -11.260  11.342  63.613  1.00  0.00    -0.402 OA 
HETATM    9  C   UNL     1     -11.587  12.266  64.563  1.00  0.00    -0.353 C  
HETATM   10  O   UNL     1     -12.569  13.966  63.221  1.00  0.00    -0.824 OA 
ENDROOT
BRANCH   1  11
HETATM   11  C   UNL     1     -10.911  14.161  67.451  1.00  0.00    -0.299 C  
HETATM   12  H   UNL     1      -9.008  14.768  67.352  1.00  0.00     0.000 HD 
HETATM   13  O   UNL     1      -9.626  14.284  66.817  1.00  0.00    -0.259 OA 
BRANCH  11  14
HETATM   14  C   UNL     1     -11.366  15.569  67.856  1.00  0.00    -0.308 C  
HETATM   15  O   UNL     1     -12.289  15.526  68.942  1.00  0.00    -0.602 OA 
HETATM   16  H   UNL     1     -12.570  16.397  69.193  1.00  0.00     0.000 HD 
ENDBRANCH  11  14
ENDBRANCH   1  11
TORSDOF 2
ENDMDL
MODEL       31
REMARK 921   NORMALIZED FREE ENERGY PREDICTED BY IDOCK:   -4.23 KCAL/MOL
REMARK 922        TOTAL FREE ENERGY PREDICTED BY IDOCK:   -5.10 KCAL/MOL
REMARK 923 INTER-LIGAND FREE ENERGY PREDICTED BY IDOCK:   -4.92 KCAL/MOL
REMARK 924 INTRA-LIGAND FREE ENERGY PREDICTED BY IDOCK:   -0.19 KCAL/MOL
REMARK 927      BINDING AFFINITY PREDICTED BY RF-SCORE:    0.00 PKD
ROOT
HETATM    1  C   UNL     1     -11.410  14.925  66.643  1.00  0.00    -0.326 C  
HETATM    2  O   UNL     1     -12.265  14.556  65.544  1.00  0.00    -0.353 OA 
HETATM    3  H   UNL     1     -10.160  12.713  68.854  1.00  0.00     0.000 HD 
HETATM    4  C   UNL     1     -12.463  13.207  65.560  1.00  0.00    -0.458 C  
HETATM    5  O   UNL     1     -10.340  13.542  68.426  1.00  0.00    -0.238 OA 
HETATM    6  H   UNL     1     -11.247  10.929  67.781  1.00  0.00     0.000 HD 
HETATM    7  C   UNL     1     -11.128  13.631  67.312  1.00  0.00    -0.293 C  
HETATM    8  O   UNL     1     -11.718  11.306  67.047  1.00  0.00    -0.503 OA 
HETATM    9  C   UNL     1     -11.736  12.625  66.695  1.00  0.00    -0.398 C  
HETATM   10  O   UNL     1     -13.147  12.563  64.782  1.00  0.00    -0.853 OA 
ENDROOT
BRANCH   1  11
HETATM   11  C   UNL     1     -10.193  15.740  66.146  1.00  0.00    -0.315 C  
HETATM   12  H   UNL     1      -9.542  16.556  64.440  1.00  0.00     0.000 HD 
HETATM   13  O   UNL     1     -10.289  16.056  64.746  1.00  0.00    -0.510 OA 
BRANCH  11  14
HETATM   14  C   UNL     1      -9.935  17.049  66.902  1.00  0.00    -0.289 C  
HETATM   15  O   UNL     1     -10.811  17.189  68.017  1.00  0.00    -0.378 OA 
HETATM   16  H   UNL     1     -10.651  18.000  68.485  1.00  0.00     0.000 HD 
ENDBRANCH  11  14
ENDBRANCH   1  11
TORSDOF 2
ENDMDL
MODEL       32
REMARK 921   NORMALIZED FREE ENERGY PREDICTED BY IDOCK:   -4.22 KCAL/MOL
REMARK 922        TOTAL FREE ENERGY PREDICTED BY IDOCK:   -5.10 KCAL/MOL
REMARK 923 INTER-LIGAND FREE ENERGY PREDICTED BY IDOCK:   -4.72 KCAL/MOL
REMARK 924 INTRA-LIGAND FREE ENERGY PREDICTED BY IDOCK:   -0.38 KCAL/MOL
REMARK 927      BINDING AFFINITY PREDICTED BY RF-SCORE:    0.00 PKD
ROOT
HETATM    1  C   UNL     1     -10.362  11.976  64.762  1.00  0.00    -0.280 C  
HETATM    2  O   UNL     1     -11.368  11.264  64.015  1.00  0.00    -0.297 OA 
HETATM    3  H   UNL     1     -10.491  15.286  65.373  1.00  0.00     0.000 HD 
HETATM    4  C   UNL     1     -12.339  12.136  63.621  1.00  0.00    -0.568 C  
HETATM    5  O   UNL     1     -10.175  14.390  65.374  1.00  0.00    -0.341 OA 
HETATM    6  H   UNL     1     -12.508  15.490  64.186  1.00  0.00     0.000 HD 
HETATM    7  C   UNL     1     -10.857  13.374  64.761  1.00  0.00    -0.375 C  
HETATM    8  O   UNL     1     -12.726  14.619  63.877  1.00  0.00    -0.788 OA 
HETATM    9  C   UNL     1     -12.002  13.483  64.099  1.00  0.00    -0.448 C  
HETATM   10  O   UNL     1     -13.328  11.872  62.958  1.00  0.00    -0.400 OA 
ENDROOT
BRANCH   1  11
HETATM   11  C   UNL     1     -10.128  11.314  66.140  1.00  0.00    -0.236 C  
HETATM   12  H   UNL     1     -11.102  11.091  67.873  1.00  0.00     0.000 HD 
HETATM   13  O   UNL     1     -11.246  11.498  67.027  1.00  0.00    -0.288 OA 
BRANCH  11  14
HETATM   14  C   UNL     1      -9.813   9.813  66.096  1.00  0.00    -0.263 C  
HETATM   15  O   UNL     1      -9.504   9.385  64.771  1.00  0.00    -0.437 OA 
HETATM   16  H   UNL     1      -9.308   8.456  64.744  1.00  0.00     0.000 HD 
ENDBRANCH  11  14
ENDBRANCH   1  11
TORSDOF 2
ENDMDL
MODEL       33
REMARK 921   NORMALIZED FREE ENERGY PREDICTED BY IDOCK:   -4.19 KCAL/MOL
REMARK 922        TOTAL FREE ENERGY PREDICTED BY IDOCK:   -5.06 KCAL/MOL
REMARK 923 INTER-LIGAND FREE ENERGY PREDICTED BY IDOCK:   -4.66 KCAL/MOL
REMARK 924 INTRA-LIGAND FREE ENERGY PREDICTED BY IDOCK:   -0.40 KCAL/MOL
REMARK 927      BINDING AFFINITY PREDICTED BY RF-SCORE:    0.00 PKD
ROOT
HETATM    1  C   UNL     1     -11.712   7.947  71.443  1.00  0.00    -0.281 C  
HETATM    2  O   UNL     1     -11.373   7.998  72.841  1.00  0.00    -0.408 OA 
HETATM    3  H   UNL     1     -11.193   5.246  69.499  1.00  0.00     0.000 HD 
HETATM    4  C   UNL     1     -10.829   6.806  73.218  1.00  0.00    -0.272 C  
HETATM    5  O   UNL     1     -11.455   6.121  69.758  1.00  0.00    -0.433 OA 
HETATM    6  H   UNL     1     -10.257   4.055  71.294  1.00  0.00     0.000 HD 
HETATM    7  C   UNL     1     -11.303   6.580  71.038  1.00  0.00    -0.323 C  
HETATM    8  O   UNL     1     -10.286   4.637  72.045  1.00  0.00    -0.190 OA 
HETATM    9  C   UNL     1     -10.786   5.907  72.058  1.00  0.00    -0.233 C  
HETATM   10  O   UNL     1     -10.417   6.513  74.328  1.00  0.00    -0.333 OA 
ENDROOT
BRANCH   1  11
HETATM   11  C   UNL     1     -13.194   8.332  71.221  1.00  0.00    -0.129 C  
HETATM   12  H   UNL     1     -14.982   7.437  71.207  1.00  0.00     0.000 HD 
HETATM   13  O   UNL     1     -14.072   7.200  71.343  1.00  0.00    -0.381 OA 
BRANCH  11  14
HETATM   14  C   UNL     1     -13.724   9.435  72.146  1.00  0.00    -0.420 C  
HETATM   15  O   UNL     1     -14.103   8.911  73.417  1.00  0.00    -1.256 OA 
HETATM   16  H   UNL     1     -14.431   9.594  73.990  1.00  0.00     0.000 HD 
ENDBRANCH  11  14
ENDBRANCH   1  11
TORSDOF 2
ENDMDL
MODEL       34
REMARK 921   NORMALIZED FREE ENERGY PREDICTED BY IDOCK:   -4.17 KCAL/MOL
REMARK 922        TOTAL FREE ENERGY PREDICTED BY IDOCK:   -5.04 KCAL/MOL
REMARK 923 INTER-LIGAND FREE ENERGY PREDICTED BY IDOCK:   -4.76 KCAL/MOL
REMARK 924 INTRA-LIGAND FREE ENERGY PREDICTED BY IDOCK:   -0.28 KCAL/MOL
REMARK 927      BINDING AFFINITY PREDICTED BY RF-SCORE:    0.00 PKD
ROOT
HETATM    1  C   UNL     1     -13.033  10.383  70.988  1.00  0.00    -0.399 C  
HETATM    2  O   UNL     1     -13.338  11.170  72.155  1.00  0.00    -0.452 OA 
HETATM    3  H   UNL     1     -11.803  11.682  68.135  1.00  0.00     0.000 HD 
HETATM    4  C   UNL     1     -13.049  12.479  71.905  1.00  0.00    -0.368 C  
HETATM    5  O   UNL     1     -12.126  11.041  68.756  1.00  0.00    -0.518 OA 
HETATM    6  H   UNL     1     -11.830  13.851  69.036  1.00  0.00     0.000 HD 
HETATM    7  C   UNL     1     -12.528  11.385  70.018  1.00  0.00    -0.154 C  
HETATM    8  O   UNL     1     -12.162  13.768  69.923  1.00  0.00    -0.322 OA 
HETATM    9  C   UNL     1     -12.535  12.606  70.536  1.00  0.00    -0.193 C  
HETATM   10  O   UNL     1     -13.202  13.417  72.670  1.00  0.00    -0.481 OA 
ENDROOT
BRANCH   1  11
HETATM   11  C   UNL     1     -12.088   9.211  71.346  1.00  0.00    -0.337 C  
HETATM   12  H   UNL     1     -10.127   8.895  71.577  1.00  0.00     0.000 HD 
HETATM   13  O   UNL     1     -10.707   9.614  71.358  1.00  0.00    -0.327 OA 
BRANCH  11  14
HETATM   14  C   UNL     1     -12.383   8.524  72.685  1.00  0.00    -0.222 C  
HETATM   15  O   UNL     1     -13.732   8.736  73.094  1.00  0.00    -0.983 OA 
HETATM   16  H   UNL     1     -13.915   8.310  73.923  1.00  0.00     0.000 HD 
ENDBRANCH  11  14
ENDBRANCH   1  11
TORSDOF 2
ENDMDL
MODEL       35
REMARK 921   NORMALIZED FREE ENERGY PREDICTED BY IDOCK:   -4.16 KCAL/MOL
REMARK 922        TOTAL FREE ENERGY PREDICTED BY IDOCK:   -5.02 KCAL/MOL
REMARK 923 INTER-LIGAND FREE ENERGY PREDICTED BY IDOCK:   -4.62 KCAL/MOL
REMARK 924 INTRA-LIGAND FREE ENERGY PREDICTED BY IDOCK:   -0.40 KCAL/MOL
REMARK 927      BINDING AFFINITY PREDICTED BY RF-SCORE:    0.00 PKD
ROOT
HETATM    1  C   UNL     1     -11.252  11.939  66.536  1.00  0.00    -0.327 C  
HETATM    2  O   UNL     1     -12.354  12.469  65.776  1.00  0.00    -0.627 OA 
HETATM    3  H   UNL     1      -8.369  10.887  65.149  1.00  0.00     0.000 HD 
HETATM    4  C   UNL     1     -12.031  12.469  64.451  1.00  0.00    -0.404 C  
HETATM    5  O   UNL     1      -9.018  11.088  65.812  1.00  0.00    -0.189 OA 
HETATM    6  H   UNL     1      -9.147  11.395  62.992  1.00  0.00     0.000 HD 
HETATM    7  C   UNL     1     -10.237  11.626  65.500  1.00  0.00    -0.260 C  
HETATM    8  O   UNL     1     -10.023  11.747  63.100  1.00  0.00    -0.409 OA 
HETATM    9  C   UNL     1     -10.677  11.925  64.285  1.00  0.00    -0.338 C  
HETATM   10  O   UNL     1     -12.740  12.836  63.529  1.00  0.00    -0.713 OA 
ENDROOT
BRANCH   1  11
HETATM   11  C   UNL     1     -10.833  12.921  67.656  1.00  0.00    -0.232 C  
HETATM   12  H   UNL     1      -9.725  14.574  67.853  1.00  0.00     0.000 HD 
HETATM   13  O   UNL     1      -9.982  13.971  67.166  1.00  0.00    -0.245 OA 
BRANCH  11  14
HETATM   14  C   UNL     1     -11.995  13.578  68.412  1.00  0.00    -0.343 C  
HETATM   15  O   UNL     1     -12.484  14.725  67.721  1.00  0.00    -0.533 OA 
HETATM   16  H   UNL     1     -13.204  15.131  68.189  1.00  0.00     0.000 HD 
ENDBRANCH  11  14
ENDBRANCH   1  11
TORSDOF 2
ENDMDL
MODEL       36
REMARK 921   NORMALIZED FREE ENERGY PREDICTED BY IDOCK:   -4.09 KCAL/MOL
REMARK 922        TOTAL FREE ENERGY PREDICTED BY IDOCK:   -4.95 KCAL/MOL
REMARK 923 INTER-LIGAND FREE ENERGY PREDICTED BY IDOCK:   -5.00 KCAL/MOL
REMARK 924 INTRA-LIGAND FREE ENERGY PREDICTED BY IDOCK:    0.06 KCAL/MOL
REMARK 927      BINDING AFFINITY PREDICTED BY RF-SCORE:    0.00 PKD
ROOT
HETATM    1  C   UNL     1     -12.191  13.275  65.822  1.00  0.00    -0.456 C  
HETATM    2  O   UNL     1     -12.040  11.955  66.380  1.00  0.00    -0.552 OA 
HETATM    3  H   UNL     1      -9.781  15.625  65.920  1.00  0.00     0.000 HD 
HETATM    4  C   UNL     1     -10.798  11.837  66.929  1.00  0.00    -0.271 C  
HETATM    5  O   UNL     1     -10.616  15.211  65.737  1.00  0.00    -0.312 OA 
HETATM    6  H   UNL     1      -8.334  14.184  67.080  1.00  0.00     0.000 HD 
HETATM    7  C   UNL     1     -10.887  13.922  66.107  1.00  0.00    -0.290 C  
HETATM    8  O   UNL     1      -8.805  13.367  67.194  1.00  0.00    -0.209 OA 
HETATM    9  C   UNL     1     -10.070  13.100  66.753  1.00  0.00    -0.253 C  
HETATM   10  O   UNL     1     -10.345  10.859  67.500  1.00  0.00    -0.186 OA 
ENDROOT
BRANCH   1  11
HETATM   11  C   UNL     1     -12.629  13.199  64.340  1.00  0.00    -0.245 C  
HETATM   12  H   UNL     1     -12.808  14.429  62.773  1.00  0.00     0.000 HD 
HETATM   13  O   UNL     1     -12.539  14.475  63.683  1.00  0.00    -0.798 OA 
BRANCH  11  14
HETATM   14  C   UNL     1     -11.862  12.181  63.486  1.00  0.00    -0.505 C  
HETATM   15  O   UNL     1     -12.750  11.354  62.738  1.00  0.00    -0.927 OA 
HETATM   16  H   UNL     1     -12.274  10.724  62.209  1.00  0.00     0.000 HD 
ENDBRANCH  11  14
ENDBRANCH   1  11
TORSDOF 2
ENDMDL
MODEL       37
REMARK 921   NORMALIZED FREE ENERGY PREDICTED BY IDOCK:   -4.08 KCAL/MOL
REMARK 922        TOTAL FREE ENERGY PREDICTED BY IDOCK:   -4.94 KCAL/MOL
REMARK 923 INTER-LIGAND FREE ENERGY PREDICTED BY IDOCK:   -4.55 KCAL/MOL
REMARK 924 INTRA-LIGAND FREE ENERGY PREDICTED BY IDOCK:   -0.39 KCAL/MOL
REMARK 927      BINDING AFFINITY PREDICTED BY RF-SCORE:    0.00 PKD
ROOT
HETATM    1  C   UNL     1      -9.427  14.882  65.959  1.00  0.00    -0.281 C  
HETATM    2  O   UNL     1     -10.332  14.953  64.840  1.00  0.00    -0.400 OA 
HETATM    3  H   UNL     1      -8.644  17.528  67.890  1.00  0.00     0.000 HD 
HETATM    4  C   UNL     1     -10.794  16.229  64.713  1.00  0.00    -0.224 C  
HETATM    5  O   UNL     1      -8.655  16.638  67.558  1.00  0.00    -0.186 OA 
HETATM    6  H   UNL     1     -10.018  18.944  66.617  1.00  0.00     0.000 HD 
HETATM    7  C   UNL     1      -9.410  16.271  66.478  1.00  0.00    -0.271 C  
HETATM    8  O   UNL     1     -10.405  18.403  65.939  1.00  0.00    -0.545 OA 
HETATM    9  C   UNL     1     -10.197  17.065  65.763  1.00  0.00    -0.245 C  
HETATM   10  O   UNL     1     -11.563  16.643  63.862  1.00  0.00    -1.204 OA 
ENDROOT
BRANCH   1  11
HETATM   11  C   UNL     1      -9.855  13.768  66.944  1.00  0.00    -0.264 C  
HETATM   12  H   UNL     1     -11.354  13.395  68.214  1.00  0.00     0.000 HD 
HETATM   13  O   UNL     1     -11.091  14.079  67.609  1.00  0.00    -0.270 OA 
BRANCH  11  14
HETATM   14  C   UNL     1      -9.998  12.372  66.324  1.00  0.00    -0.246 C  
HETATM   15  O   UNL     1      -9.163  12.222  65.179  1.00  0.00    -0.416 OA 
HETATM   16  H   UNL     1      -9.251  11.358  64.795  1.00  0.00     0.000 HD 
ENDBRANCH  11  14
ENDBRANCH   1  11
TORSDOF 2
ENDMDL
MODEL       38
REMARK 921   NORMALIZED FREE ENERGY PREDICTED BY IDOCK:   -4.06 KCAL/MOL
REMARK 922        TOTAL FREE ENERGY PREDICTED BY IDOCK:   -4.91 KCAL/MOL
REMARK 923 INTER-LIGAND FREE ENERGY PREDICTED BY IDOCK:   -4.56 KCAL/MOL
REMARK 924 INTRA-LIGAND FREE ENERGY PREDICTED BY IDOCK:   -0.35 KCAL/MOL
REMARK 927      BINDING AFFINITY PREDICTED BY RF-SCORE:    0.00 PKD
ROOT
HETATM    1  C   UNL     1     -11.483  13.745  69.602  1.00  0.00    -0.237 C  
HETATM    2  O   UNL     1     -11.588  12.380  69.152  1.00  0.00    -0.274 OA 
HETATM    3  H   UNL     1     -11.779  16.407  67.560  1.00  0.00     0.000 HD 
HETATM    4  C   UNL     1     -11.822  12.364  67.809  1.00  0.00    -0.298 C  
HETATM    5  O   UNL     1     -11.651  15.901  68.354  1.00  0.00    -0.371 OA 
HETATM    6  H   UNL     1     -12.105  15.019  65.693  1.00  0.00     0.000 HD 
HETATM    7  C   UNL     1     -11.682  14.534  68.362  1.00  0.00    -0.333 C  
HETATM    8  O   UNL     1     -12.069  14.125  66.015  1.00  0.00    -0.400 OA 
HETATM    9  C   UNL     1     -11.877  13.745  67.312  1.00  0.00    -0.401 C  
HETATM   10  O   UNL     1     -11.948  11.378  67.104  1.00  0.00    -0.532 OA 
ENDROOT
BRANCH   1  11
HETATM   11  C   UNL     1     -12.457  14.015  70.772  1.00  0.00    -0.372 C  
HETATM   12  H   UNL     1     -13.415  12.975  72.186  1.00  0.00     0.000 HD 
HETATM   13  O   UNL     1     -12.817  12.809  71.467  1.00  0.00    -0.354 OA 
BRANCH  11  14
HETATM   14  C   UNL     1     -11.955  15.021  71.816  1.00  0.00    -0.375 C  
HETATM   15  O   UNL     1     -12.126  16.364  71.371  1.00  0.00    -0.615 OA 
HETATM   16  H   UNL     1     -11.816  16.987  72.017  1.00  0.00     0.000 HD 
ENDBRANCH  11  14
ENDBRANCH   1  11
TORSDOF 2
ENDMDL
MODEL       39
REMARK 921   NORMALIZED FREE ENERGY PREDICTED BY IDOCK:   -4.00 KCAL/MOL
REMARK 922        TOTAL FREE ENERGY PREDICTED BY IDOCK:   -4.85 KCAL/MOL
REMARK 923 INTER-LIGAND FREE ENERGY PREDICTED BY IDOCK:   -4.73 KCAL/MOL
REMARK 924 INTRA-LIGAND FREE ENERGY PREDICTED BY IDOCK:   -0.12 KCAL/MOL
REMARK 927      BINDING AFFINITY PREDICTED BY RF-SCORE:    0.00 PKD
ROOT
HETATM    1  C   UNL     1     -11.796  14.452  66.424  1.00  0.00    -0.388 C  
HETATM    2  O   UNL     1     -12.023  14.681  67.828  1.00  0.00    -0.348 OA 
HETATM    3  H   UNL     1      -9.681  16.291  64.556  1.00  0.00     0.000 HD 
HETATM    4  C   UNL     1     -11.257  15.729  68.244  1.00  0.00    -0.356 C  
HETATM    5  O   UNL     1     -10.317  15.624  64.789  1.00  0.00    -0.422 OA 
HETATM    6  H   UNL     1      -9.124  17.637  66.397  1.00  0.00     0.000 HD 
HETATM    7  C   UNL     1     -10.803  15.493  66.060  1.00  0.00    -0.300 C  
HETATM    8  O   UNL     1      -9.624  17.304  67.133  1.00  0.00    -0.246 OA 
HETATM    9  C   UNL     1     -10.484  16.244  67.107  1.00  0.00    -0.297 C  
HETATM   10  O   UNL     1     -11.216  16.200  69.369  1.00  0.00    -0.313 OA 
ENDROOT
BRANCH   1  11
HETATM   11  C   UNL     1     -11.400  12.980  66.163  1.00  0.00    -0.314 C  
HETATM   12  H   UNL     1     -11.680  11.188  67.006  1.00  0.00     0.000 HD 
HETATM   13  O   UNL     1     -11.923  12.092  67.166  1.00  0.00    -0.601 OA 
BRANCH  11  14
HETATM   14  C   UNL     1     -11.813  12.429  64.792  1.00  0.00    -0.382 C  
HETATM   15  O   UNL     1     -13.228  12.282  64.695  1.00  0.00    -0.763 OA 
HETATM   16  H   UNL     1     -13.484  11.941  63.846  1.00  0.00     0.000 HD 
ENDBRANCH  11  14
ENDBRANCH   1  11
TORSDOF 2
ENDMDL
MODEL       40
REMARK 921   NORMALIZED FREE ENERGY PREDICTED BY IDOCK:   -4.00 KCAL/MOL
REMARK 922        TOTAL FREE ENERGY PREDICTED BY IDOCK:   -4.85 KCAL/MOL
REMARK 923 INTER-LIGAND FREE ENERGY PREDICTED BY IDOCK:   -4.59 KCAL/MOL
REMARK 924 INTRA-LIGAND FREE ENERGY PREDICTED BY IDOCK:   -0.26 KCAL/MOL
REMARK 927      BINDING AFFINITY PREDICTED BY RF-SCORE:    0.00 PKD
ROOT
HETATM    1  C   UNL     1     -12.475  11.590  70.364  1.00  0.00    -0.240 C  
HETATM    2  O   UNL     1     -13.201  11.822  71.586  1.00  0.00    -0.411 OA 
HETATM    3  H   UNL     1     -11.014  14.040  68.573  1.00  0.00     0.000 HD 
HETATM    4  C   UNL     1     -13.187  13.154  71.874  1.00  0.00    -0.431 C  
HETATM    5  O   UNL     1     -11.299  13.171  68.829  1.00  0.00    -0.254 OA 
HETATM    6  H   UNL     1     -11.750  15.675  70.090  1.00  0.00     0.000 HD 
HETATM    7  C   UNL     1     -12.030  12.947  69.963  1.00  0.00    -0.309 C  
HETATM    8  O   UNL     1     -12.234  15.214  70.766  1.00  0.00    -0.289 OA 
HETATM    9  C   UNL     1     -12.439  13.866  70.829  1.00  0.00    -0.375 C  
HETATM   10  O   UNL     1     -13.719  13.699  72.827  1.00  0.00    -0.707 OA 
ENDROOT
BRANCH   1  11
HETATM   11  C   UNL     1     -11.376  10.522  70.570  1.00  0.00    -0.314 C  
HETATM   12  H   UNL     1     -11.056   8.913  71.714  1.00  0.00     0.000 HD 
HETATM   13  O   UNL     1     -11.731   9.569  71.587  1.00  0.00    -0.370 OA 
BRANCH  11  14
HETATM   14  C   UNL     1     -10.989   9.735  69.311  1.00  0.00    -0.193 C  
HETATM   15  O   UNL     1     -11.742  10.163  68.178  1.00  0.00    -0.694 OA 
HETATM   16  H   UNL     1     -11.502   9.676  67.398  1.00  0.00     0.000 HD 
ENDBRANCH  11  14
ENDBRANCH   1  11
TORSDOF 2
ENDMDL
MODEL       41
REMARK 921   NORMALIZED FREE ENERGY PREDICTED BY IDOCK:   -3.98 KCAL/MOL
REMARK 922        TOTAL FREE ENERGY PREDICTED BY IDOCK:   -4.82 KCAL/MOL
REMARK 923 INTER-LIGAND FREE ENERGY PREDICTED BY IDOCK:   -4.39 KCAL/MOL
REMARK 924 INTRA-LIGAND FREE ENERGY PREDICTED BY IDOCK:   -0.44 KCAL/MOL
REMARK 927      BINDING AFFINITY PREDICTED BY RF-SCORE:    0.00 PKD
ROOT
HETATM    1  C   UNL     1      -9.869  16.825  67.324  1.00  0.00    -0.260 C  
HETATM    2  O   UNL     1     -10.491  17.519  66.225  1.00  0.00    -0.341 OA 
HETATM    3  H   UNL     1      -9.341  13.499  67.366  1.00  0.00     0.000 HD 
HETATM    4  C   UNL     1     -10.811  16.623  65.249  1.00  0.00    -0.183 C  
HETATM    5  O   UNL     1      -9.347  14.405  67.652  1.00  0.00    -0.192 OA 
HETATM    6  H   UNL     1     -10.325  13.252  65.248  1.00  0.00     0.000 HD 
HETATM    7  C   UNL     1      -9.860  15.410  66.878  1.00  0.00    -0.244 C  
HETATM    8  O   UNL     1     -10.587  14.122  64.972  1.00  0.00    -0.368 OA 
HETATM    9  C   UNL     1     -10.407  15.278  65.677  1.00  0.00    -0.366 C  
HETATM   10  O   UNL     1     -11.364  16.867  64.189  1.00  0.00    -1.208 OA 
ENDROOT
BRANCH   1  11
HETATM   11  C   UNL     1      -8.503  17.461  67.674  1.00  0.00    -0.212 C  
HETATM   12  H   UNL     1      -7.183  17.428  69.176  1.00  0.00     0.000 HD 
HETATM   13  O   UNL     1      -8.022  17.037  68.961  1.00  0.00    -0.233 OA 
BRANCH  11  14
HETATM   14  C   UNL     1      -7.386  17.206  66.653  1.00  0.00    -0.250 C  
HETATM   15  O   UNL     1      -7.578  17.976  65.468  1.00  0.00    -0.530 OA 
HETATM   16  H   UNL     1      -6.886  17.818  64.836  1.00  0.00     0.000 HD 
ENDBRANCH  11  14
ENDBRANCH   1  11
TORSDOF 2
ENDMDL
MODEL       42
REMARK 921   NORMALIZED FREE ENERGY PREDICTED BY IDOCK:   -3.92 KCAL/MOL
REMARK 922        TOTAL FREE ENERGY PREDICTED BY IDOCK:   -4.75 KCAL/MOL
REMARK 923 INTER-LIGAND FREE ENERGY PREDICTED BY IDOCK:   -4.57 KCAL/MOL
REMARK 924 INTRA-LIGAND FREE ENERGY PREDICTED BY IDOCK:   -0.19 KCAL/MOL
REMARK 927      BINDING AFFINITY PREDICTED BY RF-SCORE:    0.00 PKD
ROOT
HETATM    1  C   UNL     1      -9.984  16.417  66.494  1.00  0.00    -0.282 C  
HETATM    2  O   UNL     1     -10.289  17.437  65.524  1.00  0.00    -0.621 OA 
HETATM    3  H   UNL     1      -9.839  16.985  69.810  1.00  0.00     0.000 HD 
HETATM    4  C   UNL     1     -10.501  18.621  66.165  1.00  0.00    -0.430 C  
HETATM    5  O   UNL     1      -9.803  16.520  68.983  1.00  0.00    -0.248 OA 
HETATM    6  H   UNL     1     -10.342  19.259  69.508  1.00  0.00     0.000 HD 
HETATM    7  C   UNL     1     -10.041  17.141  67.787  1.00  0.00    -0.306 C  
HETATM    8  O   UNL     1     -10.448  19.387  68.572  1.00  0.00    -0.355 OA 
HETATM    9  C   UNL     1     -10.337  18.423  67.611  1.00  0.00    -0.405 C  
HETATM   10  O   UNL     1     -10.764  19.693  65.647  1.00  0.00    -0.503 OA 
ENDROOT
BRANCH   1  11
HETATM   11  C   UNL     1     -10.925  15.200  66.327  1.00  0.00    -0.335 C  
HETATM   12  H   UNL     1     -12.103  14.407  64.919  1.00  0.00     0.000 HD 
HETATM   13  O   UNL     1     -11.525  15.154  65.021  1.00  0.00    -0.368 OA 
BRANCH  11  14
HETATM   14  C   UNL     1     -10.275  13.835  66.588  1.00  0.00    -0.276 C  
HETATM   15  O   UNL     1      -8.853  13.917  66.535  1.00  0.00    -0.437 OA 
HETATM   16  H   UNL     1      -8.450  13.072  66.697  1.00  0.00     0.000 HD 
ENDBRANCH  11  14
ENDBRANCH   1  11
TORSDOF 2
ENDMDL
MODEL       43
REMARK 921   NORMALIZED FREE ENERGY PREDICTED BY IDOCK:   -3.86 KCAL/MOL
REMARK 922        TOTAL FREE ENERGY PREDICTED BY IDOCK:   -4.69 KCAL/MOL
REMARK 923 INTER-LIGAND FREE ENERGY PREDICTED BY IDOCK:   -4.48 KCAL/MOL
REMARK 924 INTRA-LIGAND FREE ENERGY PREDICTED BY IDOCK:   -0.21 KCAL/MOL
REMARK 927      BINDING AFFINITY PREDICTED BY RF-SCORE:    0.00 PKD
ROOT
HETATM    1  C   UNL     1     -11.267   9.058  71.706  1.00  0.00    -0.378 C  
HETATM    2  O   UNL     1     -11.283   8.197  72.861  1.00  0.00    -0.381 OA 
HETATM    3  H   UNL     1     -10.856   7.940  68.556  1.00  0.00     0.000 HD 
HETATM    4  C   UNL     1     -11.112   6.905  72.463  1.00  0.00    -0.266 C  
HETATM    5  O   UNL     1     -10.986   8.543  69.279  1.00  0.00    -0.114 OA 
HETATM    6  H   UNL     1     -10.667   5.721  69.301  1.00  0.00     0.000 HD 
HETATM    7  C   UNL     1     -11.065   8.118  70.577  1.00  0.00    -0.253 C  
HETATM    8  O   UNL     1     -10.759   5.747  70.246  1.00  0.00    -0.276 OA 
HETATM    9  C   UNL     1     -10.970   6.864  71.002  1.00  0.00    -0.252 C  
HETATM   10  O   UNL     1     -11.059   5.922  73.184  1.00  0.00    -0.258 OA 
ENDROOT
BRANCH   1  11
HETATM   11  C   UNL     1     -12.533   9.947  71.664  1.00  0.00    -0.415 C  
HETATM   12  H   UNL     1     -13.426  11.211  70.397  1.00  0.00     0.000 HD 
HETATM   13  O   UNL     1     -12.649  10.665  70.424  1.00  0.00    -0.335 OA 
BRANCH  11  14
HETATM   14  C   UNL     1     -13.855   9.206  71.898  1.00  0.00    -0.395 C  
HETATM   15  O   UNL     1     -14.004   8.823  73.263  1.00  0.00    -1.160 OA 
HETATM   16  H   UNL     1     -14.823   8.365  73.408  1.00  0.00     0.000 HD 
ENDBRANCH  11  14
ENDBRANCH   1  11
TORSDOF 2
ENDMDL
MODEL       44
REMARK 921   NORMALIZED FREE ENERGY PREDICTED BY IDOCK:   -3.84 KCAL/MOL
REMARK 922        TOTAL FREE ENERGY PREDICTED BY IDOCK:   -4.67 KCAL/MOL
REMARK 923 INTER-LIGAND FREE ENERGY PREDICTED BY IDOCK:   -4.34 KCAL/MOL
REMARK 924 INTRA-LIGAND FREE ENERGY PREDICTED BY IDOCK:   -0.33 KCAL/MOL
REMARK 927      BINDING AFFINITY PREDICTED BY RF-SCORE:    0.00 PKD
ROOT
HETATM    1  C   UNL     1     -10.685  12.307  66.534  1.00  0.00    -0.246 C  
HETATM    2  O   UNL     1     -11.650  13.350  66.769  1.00  0.00    -0.331 OA 
HETATM    3  H   UNL     1     -10.570  10.480  63.707  1.00  0.00     0.000 HD 
HETATM    4  C   UNL     1     -12.470  13.460  65.685  1.00  0.00    -0.464 C  
HETATM    5  O   UNL     1     -10.346  10.796  64.575  1.00  0.00    -0.345 OA 
HETATM    6  H   UNL     1     -12.417  11.625  62.816  1.00  0.00     0.000 HD 
HETATM    7  C   UNL     1     -11.034  11.812  65.180  1.00  0.00    -0.294 C  
HETATM    8  O   UNL     1     -12.675  12.265  63.469  1.00  0.00    -0.729 OA 
HETATM    9  C   UNL     1     -12.071  12.470  64.676  1.00  0.00    -0.428 C  
HETATM   10  O   UNL     1     -13.406  14.231  65.556  1.00  0.00    -0.608 OA 
ENDROOT
BRANCH   1  11
HETATM   11  C   UNL     1      -9.245  12.832  66.742  1.00  0.00    -0.225 C  
HETATM   12  H   UNL     1      -8.310  14.238  67.814  1.00  0.00     0.000 HD 
HETATM   13  O   UNL     1      -9.194  13.916  67.686  1.00  0.00    -0.185 OA 
BRANCH  11  14
HETATM   14  C   UNL     1      -8.227  11.776  67.191  1.00  0.00    -0.169 C  
HETATM   15  O   UNL     1      -7.631  11.118  66.075  1.00  0.00    -0.312 OA 
HETATM   16  H   UNL     1      -7.001  10.465  66.354  1.00  0.00     0.000 HD 
ENDBRANCH  11  14
ENDBRANCH   1  11
TORSDOF 2
ENDMDL
MODEL       45
REMARK 921   NORMALIZED FREE ENERGY PREDICTED BY IDOCK:   -3.83 KCAL/MOL
REMARK 922        TOTAL FREE ENERGY PREDICTED BY IDOCK:   -4.66 KCAL/MOL
REMARK 923 INTER-LIGAND FREE ENERGY PREDICTED BY IDOCK:   -4.54 KCAL/MOL
REMARK 924 INTRA-LIGAND FREE ENERGY PREDICTED BY IDOCK:   -0.12 KCAL/MOL
REMARK 927      BINDING AFFINITY PREDICTED BY RF-SCORE:    0.00 PKD
ROOT
HETATM    1  C   UNL     1     -11.768  12.726  66.879  1.00  0.00    -0.380 C  
HETATM    2  O   UNL     1     -11.894  11.470  67.573  1.00  0.00    -0.605 OA 
HETATM    3  H   UNL     1     -11.795  15.718  68.425  1.00  0.00     0.000 HD 
HETATM    4  C   UNL     1     -12.017  11.703  68.911  1.00  0.00    -0.292 C  
HETATM    5  O   UNL     1     -11.754  15.075  67.727  1.00  0.00    -0.339 OA 
HETATM    6  H   UNL     1     -12.077  14.702  70.524  1.00  0.00     0.000 HD 
HETATM    7  C   UNL     1     -11.833  13.730  67.969  1.00  0.00    -0.373 C  
HETATM    8  O   UNL     1     -12.101  13.765  70.367  1.00  0.00    -0.322 OA 
HETATM    9  C   UNL     1     -11.981  13.151  69.153  1.00  0.00    -0.281 C  
HETATM   10  O   UNL     1     -12.159  10.866  69.785  1.00  0.00    -0.309 OA 
ENDROOT
BRANCH   1  11
HETATM   11  C   UNL     1     -10.505  12.738  65.986  1.00  0.00    -0.274 C  
HETATM   12  H   UNL     1      -9.284  11.417  65.113  1.00  0.00     0.000 HD 
HETATM   13  O   UNL     1     -10.059  11.410  65.661  1.00  0.00    -0.227 OA 
BRANCH  11  14
HETATM   14  C   UNL     1     -10.647  13.515  64.671  1.00  0.00    -0.427 C  
HETATM   15  O   UNL     1      -9.928  12.885  63.613  1.00  0.00    -0.708 OA 
HETATM   16  H   UNL     1     -10.016  13.366  62.799  1.00  0.00     0.000 HD 
ENDBRANCH  11  14
ENDBRANCH   1  11
TORSDOF 2
ENDMDL
MODEL       46
REMARK 921   NORMALIZED FREE ENERGY PREDICTED BY IDOCK:   -3.83 KCAL/MOL
REMARK 922        TOTAL FREE ENERGY PREDICTED BY IDOCK:   -4.65 KCAL/MOL
REMARK 923 INTER-LIGAND FREE ENERGY PREDICTED BY IDOCK:   -4.35 KCAL/MOL
REMARK 924 INTRA-LIGAND FREE ENERGY PREDICTED BY IDOCK:   -0.31 KCAL/MOL
REMARK 927      BINDING AFFINITY PREDICTED BY RF-SCORE:    0.00 PKD
ROOT
HETATM    1  C   UNL     1     -11.561   8.307  70.992  1.00  0.00    -0.275 C  
HETATM    2  O   UNL     1     -12.679   7.878  71.793  1.00  0.00    -0.314 OA 
HETATM    3  H   UNL     1     -10.896  11.534  70.297  1.00  0.00     0.000 HD 
HETATM    4  C   UNL     1     -13.385   8.970  72.203  1.00  0.00    -0.455 C  
HETATM    5  O   UNL     1     -10.812  10.588  70.306  1.00  0.00    -0.279 OA 
HETATM    6  H   UNL     1     -12.776  12.249  71.510  1.00  0.00     0.000 HD 
HETATM    7  C   UNL     1     -11.692   9.784  70.977  1.00  0.00    -0.370 C  
HETATM    8  O   UNL     1     -13.187  11.464  71.853  1.00  0.00    -0.484 OA 
HETATM    9  C   UNL     1     -12.749  10.183  71.673  1.00  0.00    -0.447 C  
HETATM   10  O   UNL     1     -14.398   8.969  72.881  1.00  0.00    -0.550 OA 
ENDROOT
BRANCH   1  11
HETATM   11  C   UNL     1     -10.236   7.724  71.538  1.00  0.00    -0.182 C  
HETATM   12  H   UNL     1      -8.655   8.347  72.593  1.00  0.00     0.000 HD 
HETATM   13  O   UNL     1      -9.469   8.705  72.258  1.00  0.00    -0.283 OA 
BRANCH  11  14
HETATM   14  C   UNL     1     -10.391   6.497  72.447  1.00  0.00    -0.188 C  
HETATM   15  O   UNL     1     -10.787   6.871  73.764  1.00  0.00    -0.520 OA 
HETATM   16  H   UNL     1     -10.883   6.112  74.326  1.00  0.00     0.000 HD 
ENDBRANCH  11  14
ENDBRANCH   1  11
TORSDOF 2
ENDMDL
MODEL       47
REMARK 921   NORMALIZED FREE ENERGY PREDICTED BY IDOCK:   -3.81 KCAL/MOL
REMARK 922        TOTAL FREE ENERGY PREDICTED BY IDOCK:   -4.64 KCAL/MOL
REMARK 923 INTER-LIGAND FREE ENERGY PREDICTED BY IDOCK:   -4.28 KCAL/MOL
REMARK 924 INTRA-LIGAND FREE ENERGY PREDICTED BY IDOCK:   -0.36 KCAL/MOL
REMARK 927      BINDING AFFINITY PREDICTED BY RF-SCORE:    0.00 PKD
ROOT
HETATM    1  C   UNL     1     -11.514   8.207  72.001  1.00  0.00    -0.320 C  
HETATM    2  O   UNL     1     -12.159   7.350  71.039  1.00  0.00    -0.312 OA 
HETATM    3  H   UNL     1      -8.178   8.638  72.170  1.00  0.00     0.000 HD 
HETATM    4  C   UNL     1     -11.214   6.773  70.244  1.00  0.00    -0.334 C  
HETATM    5  O   UNL     1      -9.101   8.728  72.377  1.00  0.00    -0.366 OA 
HETATM    6  H   UNL     1      -7.832   7.151  70.385  1.00  0.00     0.000 HD 
HETATM    7  C   UNL     1     -10.073   8.066  71.678  1.00  0.00    -0.184 C  
HETATM    8  O   UNL     1      -8.692   6.853  70.114  1.00  0.00    -0.139 OA 
HETATM    9  C   UNL     1      -9.884   7.234  70.662  1.00  0.00    -0.179 C  
HETATM   10  O   UNL     1     -11.410   5.981  69.338  1.00  0.00    -0.398 OA 
ENDROOT
BRANCH   1  11
HETATM   11  C   UNL     1     -12.110   9.634  71.954  1.00  0.00    -0.306 C  
HETATM   12  H   UNL     1     -12.086  11.220  70.736  1.00  0.00     0.000 HD 
HETATM   13  O   UNL     1     -11.721  10.344  70.765  1.00  0.00    -0.321 OA 
BRANCH  11  14
HETATM   14  C   UNL     1     -13.639   9.704  72.058  1.00  0.00    -0.385 C  
HETATM   15  O   UNL     1     -14.140   8.764  73.006  1.00  0.00    -1.035 OA 
HETATM   16  H   UNL     1     -15.087   8.808  73.070  1.00  0.00     0.000 HD 
ENDBRANCH  11  14
ENDBRANCH   1  11
TORSDOF 2
ENDMDL
MODEL       48
REMARK 921   NORMALIZED FREE ENERGY PREDICTED BY IDOCK:   -3.81 KCAL/MOL
REMARK 922        TOTAL FREE ENERGY PREDICTED BY IDOCK:   -4.64 KCAL/MOL
REMARK 923 INTER-LIGAND FREE ENERGY PREDICTED BY IDOCK:   -4.21 KCAL/MOL
REMARK 924 INTRA-LIGAND FREE ENERGY PREDICTED BY IDOCK:   -0.43 KCAL/MOL
REMARK 927      BINDING AFFINITY PREDICTED BY RF-SCORE:    0.00 PKD
ROOT
HETATM    1  C   UNL     1      -9.921  11.708  66.868  1.00  0.00    -0.202 C  
HETATM    2  O   UNL     1      -9.457  11.840  65.511  1.00  0.00    -0.227 OA 
HETATM    3  H   UNL     1     -13.128  12.164  67.791  1.00  0.00     0.000 HD 
HETATM    4  C   UNL     1     -10.506  12.166  64.704  1.00  0.00    -0.299 C  
HETATM    5  O   UNL     1     -12.199  11.979  67.857  1.00  0.00    -0.470 OA 
HETATM    6  H   UNL     1     -13.758  12.665  65.585  1.00  0.00     0.000 HD 
HETATM    7  C   UNL     1     -11.373  11.996  66.766  1.00  0.00    -0.339 C  
HETATM    8  O   UNL     1     -12.969  12.600  65.060  1.00  0.00    -0.812 OA 
HETATM    9  C   UNL     1     -11.726  12.267  65.516  1.00  0.00    -0.377 C  
HETATM   10  O   UNL     1     -10.465  12.369  63.503  1.00  0.00    -0.435 OA 
ENDROOT
BRANCH   1  11
HETATM   11  C   UNL     1      -9.517  10.336  67.458  1.00  0.00    -0.152 C  
HETATM   12  H   UNL     1      -9.412   9.456  69.251  1.00  0.00     0.000 HD 
HETATM   13  O   UNL     1      -9.660  10.298  68.888  1.00  0.00    -0.171 OA 
BRANCH  11  14
HETATM   14  C   UNL     1     -10.273   9.132  66.882  1.00  0.00    -0.266 C  
HETATM   15  O   UNL     1      -9.866   8.851  65.545  1.00  0.00    -0.458 OA 
HETATM   16  H   UNL     1     -10.334   8.105  65.189  1.00  0.00     0.000 HD 
ENDBRANCH  11  14
ENDBRANCH   1  11
TORSDOF 2
ENDMDL
MODEL       49
REMARK 921   NORMALIZED FREE ENERGY PREDICTED BY IDOCK:   -3.81 KCAL/MOL
REMARK 922        TOTAL FREE ENERGY PREDICTED BY IDOCK:   -4.64 KCAL/MOL
REMARK 923 INTER-LIGAND FREE ENERGY PREDICTED BY IDOCK:   -4.38 KCAL/MOL
REMARK 924 INTRA-LIGAND FREE ENERGY PREDICTED BY IDOCK:   -0.25 KCAL/MOL
REMARK 927      BINDING AFFINITY PREDICTED BY RF-SCORE:    0.00 PKD
ROOT
HETATM    1  C   UNL     1     -10.705  13.672  66.936  1.00  0.00    -0.275 C  
HETATM    2  O   UNL     1     -10.796  14.704  67.936  1.00  0.00    -0.250 OA 
HETATM    3  H   UNL     1     -11.797  10.521  67.409  1.00  0.00     0.000 HD 
HETATM    4  C   UNL     1     -11.381  14.196  69.058  1.00  0.00    -0.275 C  
HETATM    5  O   UNL     1     -11.412  11.277  66.981  1.00  0.00    -0.455 OA 
HETATM    6  H   UNL     1     -12.479  11.018  69.600  1.00  0.00     0.000 HD 
HETATM    7  C   UNL     1     -11.307  12.491  67.603  1.00  0.00    -0.306 C  
HETATM    8  O   UNL     1     -12.273  11.934  69.743  1.00  0.00    -0.251 OA 
HETATM    9  C   UNL     1     -11.701  12.780  68.836  1.00  0.00    -0.326 C  
HETATM   10  O   UNL     1     -11.597  14.792  70.100  1.00  0.00    -0.264 OA 
ENDROOT
BRANCH   1  11
HETATM   11  C   UNL     1     -11.349  14.133  65.607  1.00  0.00    -0.319 C  
HETATM   12  H   UNL     1     -11.077  13.861  63.644  1.00  0.00     0.000 HD 
HETATM   13  O   UNL     1     -10.682  13.578  64.461  1.00  0.00    -0.390 OA 
BRANCH  11  14
HETATM   14  C   UNL     1     -12.845  13.827  65.469  1.00  0.00    -0.419 C  
HETATM   15  O   UNL     1     -13.063  12.587  64.800  1.00  0.00    -0.853 OA 
HETATM   16  H   UNL     1     -13.990  12.397  64.714  1.00  0.00     0.000 HD 
ENDBRANCH  11  14
ENDBRANCH   1  11
TORSDOF 2
ENDMDL
MODEL       50
REMARK 921   NORMALIZED FREE ENERGY PREDICTED BY IDOCK:   -3.80 KCAL/MOL
REMARK 922        TOTAL FREE ENERGY PREDICTED BY IDOCK:   -4.63 KCAL/MOL
REMARK 923 INTER-LIGAND FREE ENERGY PREDICTED BY IDOCK:   -4.63 KCAL/MOL
REMARK 924 INTRA-LIGAND FREE ENERGY PREDICTED BY IDOCK:    0.01 KCAL/MOL
REMARK 927      BINDING AFFINITY PREDICTED BY RF-SCORE:    0.00 PKD
ROOT
HETATM    1  C   UNL     1     -11.232   9.413  71.311  1.00  0.00    -0.367 C  
HETATM    2  O   UNL     1     -10.506   8.964  70.151  1.00  0.00    -0.200 OA 
HETATM    3  H   UNL     1     -13.292  12.077  71.301  1.00  0.00     0.000 HD 
HETATM    4  C   UNL     1     -10.794   9.776  69.095  1.00  0.00    -0.207 C  
HETATM    5  O   UNL     1     -12.811  11.323  71.620  1.00  0.00    -0.424 OA 
HETATM    6  H   UNL     1     -12.846  12.494  69.033  1.00  0.00     0.000 HD 
HETATM    7  C   UNL     1     -11.984  10.590  70.813  1.00  0.00    -0.370 C  
HETATM    8  O   UNL     1     -12.236  11.822  68.753  1.00  0.00    -0.367 OA 
HETATM    9  C   UNL     1     -11.737  10.815  69.529  1.00  0.00    -0.312 C  
HETATM   10  O   UNL     1     -10.340   9.691  67.966  1.00  0.00    -0.193 OA 
ENDROOT
BRANCH   1  11
HETATM   11  C   UNL     1     -12.058   8.259  71.926  1.00  0.00    -0.332 C  
HETATM   12  H   UNL     1     -12.166   7.258  73.654  1.00  0.00     0.000 HD 
HETATM   13  O   UNL     1     -11.659   7.967  73.276  1.00  0.00    -0.252 OA 
BRANCH  11  14
HETATM   14  C   UNL     1     -13.577   8.474  71.925  1.00  0.00    -0.396 C  
HETATM   15  O   UNL     1     -14.046   8.877  73.210  1.00  0.00    -1.211 OA 
HETATM   16  H   UNL     1     -14.986   9.010  73.210  1.00  0.00     0.000 HD 
ENDBRANCH  11  14
ENDBRANCH   1  11
TORSDOF 2
ENDMDL
MODEL       51
REMARK 921   NORMALIZED FREE ENERGY PREDICTED BY IDOCK:   -3.77 KCAL/MOL
REMARK 922        TOTAL FREE ENERGY PREDICTED BY IDOCK:   -4.59 KCAL/MOL
REMARK 923 INTER-LIGAND FREE ENERGY PREDICTED BY IDOCK:   -4.42 KCAL/MOL
REMARK 924 INTRA-LIGAND FREE ENERGY PREDICTED BY IDOCK:   -0.17 KCAL/MOL
REMARK 927      BINDING AFFINITY PREDICTED BY RF-SCORE:    0.00 PKD
ROOT
HETATM    1  C   UNL     1     -11.390   8.497  71.442  1.00  0.00    -0.271 C  
HETATM    2  O   UNL     1     -10.528   9.082  70.448  1.00  0.00    -0.192 OA 
HETATM    3  H   UNL     1     -10.301   7.382  74.428  1.00  0.00     0.000 HD 
HETATM    4  C   UNL     1      -9.248   9.103  70.916  1.00  0.00    -0.261 C  
HETATM    5  O   UNL     1     -10.894   7.588  73.715  1.00  0.00    -0.316 OA 
HETATM    6  H   UNL     1      -8.087   7.968  73.910  1.00  0.00     0.000 HD 
HETATM    7  C   UNL     1     -10.465   8.174  72.555  1.00  0.00    -0.339 C  
HETATM    8  O   UNL     1      -8.107   8.347  73.039  1.00  0.00    -0.281 OA 
HETATM    9  C   UNL     1      -9.217   8.518  72.263  1.00  0.00    -0.272 C  
HETATM   10  O   UNL     1      -8.263   9.516  70.326  1.00  0.00    -0.159 OA 
ENDROOT
BRANCH   1  11
HETATM   11  C   UNL     1     -12.577   9.436  71.763  1.00  0.00    -0.387 C  
HETATM   12  H   UNL     1     -13.506  11.001  70.935  1.00  0.00     0.000 HD 
HETATM   13  O   UNL     1     -12.778  10.425  70.738  1.00  0.00    -0.340 OA 
BRANCH  11  14
HETATM   14  C   UNL     1     -13.919   8.731  71.999  1.00  0.00    -0.451 C  
HETATM   15  O   UNL     1     -14.306   8.791  73.369  1.00  0.00    -1.155 OA 
HETATM   16  H   UNL     1     -15.136   8.354  73.515  1.00  0.00     0.000 HD 
ENDBRANCH  11  14
ENDBRANCH   1  11
TORSDOF 2
ENDMDL
MODEL       52
REMARK 921   NORMALIZED FREE ENERGY PREDICTED BY IDOCK:   -3.76 KCAL/MOL
REMARK 922        TOTAL FREE ENERGY PREDICTED BY IDOCK:   -4.58 KCAL/MOL
REMARK 923 INTER-LIGAND FREE ENERGY PREDICTED BY IDOCK:   -4.22 KCAL/MOL
REMARK 924 INTRA-LIGAND FREE ENERGY PREDICTED BY IDOCK:   -0.36 KCAL/MOL
REMARK 927      BINDING AFFINITY PREDICTED BY RF-SCORE:    0.00 PKD
ROOT
HETATM    1  C   UNL     1      -9.974  12.127  64.967  1.00  0.00    -0.220 C  
HETATM    2  O   UNL     1     -11.185  12.165  64.187  1.00  0.00    -0.318 OA 
HETATM    3  H   UNL     1      -9.869  12.755  68.274  1.00  0.00     0.000 HD 
HETATM    4  C   UNL     1     -12.234  12.486  64.997  1.00  0.00    -0.456 C  
HETATM    5  O   UNL     1      -9.574  12.539  67.397  1.00  0.00    -0.186 OA 
HETATM    6  H   UNL     1     -12.182  13.156  68.336  1.00  0.00     0.000 HD 
HETATM    7  C   UNL     1     -10.434  12.464  66.336  1.00  0.00    -0.243 C  
HETATM    8  O   UNL     1     -12.499  13.031  67.449  1.00  0.00    -0.177 OA 
HETATM    9  C   UNL     1     -11.743  12.678  66.368  1.00  0.00    -0.405 C  
HETATM   10  O   UNL     1     -13.398  12.620  64.661  1.00  0.00    -0.767 OA 
ENDROOT
BRANCH   1  11
HETATM   11  C   UNL     1      -9.244  10.776  64.783  1.00  0.00    -0.214 C  
HETATM   12  H   UNL     1      -9.547   8.846  65.210  1.00  0.00     0.000 HD 
HETATM   13  O   UNL     1      -9.996   9.675  65.323  1.00  0.00    -0.295 OA 
BRANCH  11  14
HETATM   14  C   UNL     1      -8.881  10.425  63.334  1.00  0.00    -0.213 C  
HETATM   15  O   UNL     1     -10.037  10.397  62.500  1.00  0.00    -0.728 OA 
HETATM   16  H   UNL     1      -9.812  10.180  61.603  1.00  0.00     0.000 HD 
ENDBRANCH  11  14
ENDBRANCH   1  11
TORSDOF 2
ENDMDL
MODEL       53
REMARK 921   NORMALIZED FREE ENERGY PREDICTED BY IDOCK:   -3.76 KCAL/MOL
REMARK 922        TOTAL FREE ENERGY PREDICTED BY IDOCK:   -4.57 KCAL/MOL
REMARK 923 INTER-LIGAND FREE ENERGY PREDICTED BY IDOCK:   -4.19 KCAL/MOL
REMARK 924 INTRA-LIGAND FREE ENERGY PREDICTED BY IDOCK:   -0.39 KCAL/MOL
REMARK 927      BINDING AFFINITY PREDICTED BY RF-SCORE:    0.00 PKD
ROOT
HETATM    1  C   UNL     1     -11.418   9.679  71.493  1.00  0.00    -0.369 C  
HETATM    2  O   UNL     1     -12.744   9.236  71.148  1.00  0.00    -0.306 OA 
HETATM    3  H   UNL     1      -9.176   7.755  73.112  1.00  0.00     0.000 HD 
HETATM    4  C   UNL     1     -12.918   7.953  71.575  1.00  0.00    -0.311 C  
HETATM    5  O   UNL     1      -9.554   8.509  72.674  1.00  0.00    -0.280 OA 
HETATM    6  H   UNL     1     -10.700   5.973  73.236  1.00  0.00     0.000 HD 
HETATM    7  C   UNL     1     -10.828   8.501  72.177  1.00  0.00    -0.357 C  
HETATM    8  O   UNL     1     -11.495   6.270  72.810  1.00  0.00    -0.245 OA 
HETATM    9  C   UNL     1     -11.689   7.493  72.234  1.00  0.00    -0.304 C  
HETATM   10  O   UNL     1     -13.928   7.279  71.461  1.00  0.00    -0.404 OA 
ENDROOT
BRANCH   1  11
HETATM   11  C   UNL     1     -10.674  10.214  70.247  1.00  0.00    -0.293 C  
HETATM   12  H   UNL     1      -9.843   9.487  68.579  1.00  0.00     0.000 HD 
HETATM   13  O   UNL     1     -10.300   9.159  69.345  1.00  0.00    -0.203 OA 
BRANCH  11  14
HETATM   14  C   UNL     1     -11.438  11.269  69.438  1.00  0.00    -0.301 C  
HETATM   15  O   UNL     1     -12.320  10.665  68.495  1.00  0.00    -0.814 OA 
HETATM   16  H   UNL     1     -12.793  11.318  67.994  1.00  0.00     0.000 HD 
ENDBRANCH  11  14
ENDBRANCH   1  11
TORSDOF 2
ENDMDL
MODEL       54
REMARK 921   NORMALIZED FREE ENERGY PREDICTED BY IDOCK:   -3.74 KCAL/MOL
REMARK 922        TOTAL FREE ENERGY PREDICTED BY IDOCK:   -4.56 KCAL/MOL
REMARK 923 INTER-LIGAND FREE ENERGY PREDICTED BY IDOCK:   -4.41 KCAL/MOL
REMARK 924 INTRA-LIGAND FREE ENERGY PREDICTED BY IDOCK:   -0.14 KCAL/MOL
REMARK 927      BINDING AFFINITY PREDICTED BY RF-SCORE:    0.00 PKD
ROOT
HETATM    1  C   UNL     1     -10.422  13.393  65.318  1.00  0.00    -0.324 C  
HETATM    2  O   UNL     1     -10.366  14.802  65.611  1.00  0.00    -0.305 OA 
HETATM    3  H   UNL     1      -9.046  11.027  67.279  1.00  0.00     0.000 HD 
HETATM    4  C   UNL     1      -9.686  14.994  66.777  1.00  0.00    -0.241 C  
HETATM    5  O   UNL     1      -9.514  11.422  66.553  1.00  0.00    -0.190 OA 
HETATM    6  H   UNL     1      -8.254  12.645  68.785  1.00  0.00     0.000 HD 
HETATM    7  C   UNL     1      -9.693  12.775  66.452  1.00  0.00    -0.261 C  
HETATM    8  O   UNL     1      -8.532  13.487  68.443  1.00  0.00    -0.165 OA 
HETATM    9  C   UNL     1      -9.257  13.693  67.305  1.00  0.00    -0.232 C  
HETATM   10  O   UNL     1      -9.440  16.064  67.309  1.00  0.00    -0.213 OA 
ENDROOT
BRANCH   1  11
HETATM   11  C   UNL     1     -11.882  12.937  65.087  1.00  0.00    -0.380 C  
HETATM   12  H   UNL     1     -13.730  13.604  65.461  1.00  0.00     0.000 HD 
HETATM   13  O   UNL     1     -12.834  13.884  65.602  1.00  0.00    -0.541 OA 
BRANCH  11  14
HETATM   14  C   UNL     1     -12.252  12.655  63.625  1.00  0.00    -0.536 C  
HETATM   15  O   UNL     1     -12.365  13.861  62.874  1.00  0.00    -1.023 OA 
HETATM   16  H   UNL     1     -12.594  13.687  61.969  1.00  0.00     0.000 HD 
ENDBRANCH  11  14
ENDBRANCH   1  11
TORSDOF 2
ENDMDL
MODEL       55
REMARK 921   NORMALIZED FREE ENERGY PREDICTED BY IDOCK:   -3.73 KCAL/MOL
REMARK 922        TOTAL FREE ENERGY PREDICTED BY IDOCK:   -4.55 KCAL/MOL
REMARK 923 INTER-LIGAND FREE ENERGY PREDICTED BY IDOCK:   -4.33 KCAL/MOL
REMARK 924 INTRA-LIGAND FREE ENERGY PREDICTED BY IDOCK:   -0.22 KCAL/MOL
REMARK 927      BINDING AFFINITY PREDICTED BY RF-SCORE:    0.00 PKD
ROOT
HETATM    1  C   UNL     1     -10.879  16.268  67.479  1.00  0.00    -0.268 C  
HETATM    2  O   UNL     1     -10.392  17.018  68.609  1.00  0.00    -0.306 OA 
HETATM    3  H   UNL     1     -10.326  17.154  64.278  1.00  0.00     0.000 HD 
HETATM    4  C   UNL     1      -9.695  18.102  68.164  1.00  0.00    -0.325 C  
HETATM    5  O   UNL     1     -10.642  16.659  65.024  1.00  0.00    -0.683 OA 
HETATM    6  H   UNL     1      -9.127  19.060  64.946  1.00  0.00     0.000 HD 
HETATM    7  C   UNL     1     -10.386  17.041  66.313  1.00  0.00    -0.306 C  
HETATM    8  O   UNL     1      -9.124  19.055  65.896  1.00  0.00    -0.446 OA 
HETATM    9  C   UNL     1      -9.700  18.110  66.696  1.00  0.00    -0.334 C  
HETATM   10  O   UNL     1      -9.162  18.956  68.852  1.00  0.00    -0.330 OA 
ENDROOT
BRANCH   1  11
HETATM   11  C   UNL     1     -10.447  14.786  67.575  1.00  0.00    -0.245 C  
HETATM   12  H   UNL     1      -9.717  13.530  68.950  1.00  0.00     0.000 HD 
HETATM   13  O   UNL     1      -9.982  14.441  68.891  1.00  0.00    -0.225 OA 
BRANCH  11  14
HETATM   14  C   UNL     1     -11.525  13.768  67.181  1.00  0.00    -0.340 C  
HETATM   15  O   UNL     1     -12.605  14.393  66.492  1.00  0.00    -0.519 OA 
HETATM   16  H   UNL     1     -13.272  13.762  66.248  1.00  0.00     0.000 HD 
ENDBRANCH  11  14
ENDBRANCH   1  11
TORSDOF 2
ENDMDL
MODEL       56
REMARK 921   NORMALIZED FREE ENERGY PREDICTED BY IDOCK:   -3.73 KCAL/MOL
REMARK 922        TOTAL FREE ENERGY PREDICTED BY IDOCK:   -4.54 KCAL/MOL
REMARK 923 INTER-LIGAND FREE ENERGY PREDICTED BY IDOCK:   -4.31 KCAL/MOL
REMARK 924 INTRA-LIGAND FREE ENERGY PREDICTED BY IDOCK:   -0.23 KCAL/MOL
REMARK 927      BINDING AFFINITY PREDICTED BY RF-SCORE:    0.00 PKD
ROOT
HETATM    1  C   UNL     1     -10.813  14.330  68.270  1.00  0.00    -0.246 C  
HETATM    2  O   UNL     1     -11.132  13.088  68.925  1.00  0.00    -0.252 OA 
HETATM    3  H   UNL     1     -11.588  14.995  65.060  1.00  0.00     0.000 HD 
HETATM    4  C   UNL     1     -11.778  12.268  68.048  1.00  0.00    -0.356 C  
HETATM    5  O   UNL     1     -11.245  15.114  65.938  1.00  0.00    -0.338 OA 
HETATM    6  H   UNL     1     -12.564  12.876  64.790  1.00  0.00     0.000 HD 
HETATM    7  C   UNL     1     -11.349  14.146  66.899  1.00  0.00    -0.331 C  
HETATM    8  O   UNL     1     -12.479  12.435  65.627  1.00  0.00    -0.640 OA 
HETATM    9  C   UNL     1     -11.909  12.951  66.755  1.00  0.00    -0.385 C  
HETATM   10  O   UNL     1     -12.176  11.136  68.268  1.00  0.00    -0.613 OA 
ENDROOT
BRANCH   1  11
HETATM   11  C   UNL     1     -11.351  15.534  69.079  1.00  0.00    -0.326 C  
HETATM   12  H   UNL     1     -11.604  16.049  70.995  1.00  0.00     0.000 HD 
HETATM   13  O   UNL     1     -11.274  15.310  70.498  1.00  0.00    -0.272 OA 
BRANCH  11  14
HETATM   14  C   UNL     1     -10.667  16.875  68.782  1.00  0.00    -0.333 C  
HETATM   15  O   UNL     1      -9.534  16.705  67.934  1.00  0.00    -0.222 OA 
HETATM   16  H   UNL     1      -9.111  17.536  67.750  1.00  0.00     0.000 HD 
ENDBRANCH  11  14
ENDBRANCH   1  11
TORSDOF 2
ENDMDL
MODEL       57
REMARK 921   NORMALIZED FREE ENERGY PREDICTED BY IDOCK:   -3.72 KCAL/MOL
REMARK 922        TOTAL FREE ENERGY PREDICTED BY IDOCK:   -4.53 KCAL/MOL
REMARK 923 INTER-LIGAND FREE ENERGY PREDICTED BY IDOCK:   -4.43 KCAL/MOL
REMARK 924 INTRA-LIGAND FREE ENERGY PREDICTED BY IDOCK:   -0.10 KCAL/MOL
REMARK 927      BINDING AFFINITY PREDICTED BY RF-SCORE:    0.00 PKD
ROOT
HETATM    1  C   UNL     1     -10.109  15.142  66.920  1.00  0.00    -0.255 C  
HETATM    2  O   UNL     1      -9.848  16.555  67.028  1.00  0.00    -0.245 OA 
HETATM    3  H   UNL     1     -11.759  13.745  64.338  1.00  0.00     0.000 HD 
HETATM    4  C   UNL     1     -10.365  17.194  65.940  1.00  0.00    -0.284 C  
HETATM    5  O   UNL     1     -11.288  13.821  65.160  1.00  0.00    -0.299 OA 
HETATM    6  H   UNL     1     -12.063  15.838  63.317  1.00  0.00     0.000 HD 
HETATM    7  C   UNL     1     -10.844  15.023  65.638  1.00  0.00    -0.349 C  
HETATM    8  O   UNL     1     -11.650  16.476  63.887  1.00  0.00    -1.175 OA 
HETATM    9  C   UNL     1     -11.003  16.207  65.059  1.00  0.00    -0.344 C  
HETATM   10  O   UNL     1     -10.337  18.393  65.719  1.00  0.00    -0.588 OA 
ENDROOT
BRANCH   1  11
HETATM   11  C   UNL     1      -8.801  14.328  67.060  1.00  0.00    -0.226 C  
HETATM   12  H   UNL     1      -7.039  14.485  67.993  1.00  0.00     0.000 HD 
HETATM   13  O   UNL     1      -7.842  14.984  67.907  1.00  0.00    -0.121 OA 
BRANCH  11  14
HETATM   14  C   UNL     1      -8.979  12.896  67.581  1.00  0.00    -0.192 C  
HETATM   15  O   UNL     1      -8.546  12.777  68.934  1.00  0.00    -0.357 OA 
HETATM   16  H   UNL     1      -8.657  11.890  69.257  1.00  0.00     0.000 HD 
ENDBRANCH  11  14
ENDBRANCH   1  11
TORSDOF 2
ENDMDL
MODEL       58
REMARK 921   NORMALIZED FREE ENERGY PREDICTED BY IDOCK:   -3.71 KCAL/MOL
REMARK 922        TOTAL FREE ENERGY PREDICTED BY IDOCK:   -4.52 KCAL/MOL
REMARK 923 INTER-LIGAND FREE ENERGY PREDICTED BY IDOCK:   -4.45 KCAL/MOL
REMARK 924 INTRA-LIGAND FREE ENERGY PREDICTED BY IDOCK:   -0.07 KCAL/MOL
REMARK 927      BINDING AFFINITY PREDICTED BY RF-SCORE:    0.00 PKD
ROOT
HETATM    1  C   UNL     1     -10.795  13.728  65.187  1.00  0.00    -0.345 C  
HETATM    2  O   UNL     1      -9.797  13.068  65.989  1.00  0.00    -0.272 OA 
HETATM    3  H   UNL     1     -12.100  12.406  62.378  1.00  0.00     0.000 HD 
HETATM    4  C   UNL     1      -9.493  11.863  65.429  1.00  0.00    -0.108 C  
HETATM    5  O   UNL     1     -11.941  13.021  63.084  1.00  0.00    -0.534 OA 
HETATM    6  H   UNL     1     -10.759  10.489  62.581  1.00  0.00     0.000 HD 
HETATM    7  C   UNL     1     -11.044  12.767  64.085  1.00  0.00    -0.389 C  
HETATM    8  O   UNL     1     -10.242  10.606  63.370  1.00  0.00    -0.291 OA 
HETATM    9  C   UNL     1     -10.292  11.681  64.211  1.00  0.00    -0.322 C  
HETATM   10  O   UNL     1      -8.676  11.055  65.839  1.00  0.00    -0.178 OA 
ENDROOT
BRANCH   1  11
HETATM   11  C   UNL     1     -12.012  14.139  66.051  1.00  0.00    -0.413 C  
HETATM   12  H   UNL     1     -14.007  14.039  65.959  1.00  0.00     0.000 HD 
HETATM   13  O   UNL     1     -13.260  13.788  65.429  1.00  0.00    -0.722 OA 
BRANCH  11  14
HETATM   14  C   UNL     1     -12.023  13.564  67.473  1.00  0.00    -0.346 C  
HETATM   15  O   UNL     1     -12.102  12.141  67.460  1.00  0.00    -0.534 OA 
HETATM   16  H   UNL     1     -12.109  11.786  68.341  1.00  0.00     0.000 HD 
ENDBRANCH  11  14
ENDBRANCH   1  11
TORSDOF 2
ENDMDL
MODEL       59
REMARK 921   NORMALIZED FREE ENERGY PREDICTED BY IDOCK:   -3.71 KCAL/MOL
REMARK 922        TOTAL FREE ENERGY PREDICTED BY IDOCK:   -4.52 KCAL/MOL
REMARK 923 INTER-LIGAND FREE ENERGY PREDICTED BY IDOCK:   -4.25 KCAL/MOL
REMARK 924 INTRA-LIGAND FREE ENERGY PREDICTED BY IDOCK:   -0.27 KCAL/MOL
REMARK 927      BINDING AFFINITY PREDICTED BY RF-SCORE:    0.00 PKD
ROOT
HETATM    1  C   UNL     1     -10.648  12.504  66.372  1.00  0.00    -0.247 C  
HETATM    2  O   UNL     1     -11.016  11.832  65.152  1.00  0.00    -0.297 OA 
HETATM    3  H   UNL     1     -12.378  15.084  67.672  1.00  0.00     0.000 HD 
HETATM    4  C   UNL     1     -12.145  12.404  64.645  1.00  0.00    -0.415 C  
HETATM    5  O   UNL     1     -11.707  14.418  67.575  1.00  0.00    -0.353 OA 
HETATM    6  H   UNL     1     -13.919  15.026  65.901  1.00  0.00     0.000 HD 
HETATM    7  C   UNL     1     -11.695  13.543  66.524  1.00  0.00    -0.371 C  
HETATM    8  O   UNL     1     -13.645  14.317  65.331  1.00  0.00    -0.516 OA 
HETATM    9  C   UNL     1     -12.569  13.499  65.527  1.00  0.00    -0.481 C  
HETATM   10  O   UNL     1     -12.719  12.092  63.615  1.00  0.00    -0.647 OA 
ENDROOT
BRANCH   1  11
HETATM   11  C   UNL     1     -10.486  11.493  67.531  1.00  0.00    -0.199 C  
HETATM   12  H   UNL     1     -10.367   9.511  67.776  1.00  0.00     0.000 HD 
HETATM   13  O   UNL     1     -10.466  10.132  67.064  1.00  0.00    -0.232 OA 
BRANCH  11  14
HETATM   14  C   UNL     1      -9.246  11.702  68.409  1.00  0.00    -0.182 C  
HETATM   15  O   UNL     1      -8.876  13.077  68.469  1.00  0.00    -0.309 OA 
HETATM   16  H   UNL     1      -8.108  13.207  69.013  1.00  0.00     0.000 HD 
ENDBRANCH  11  14
ENDBRANCH   1  11
TORSDOF 2
ENDMDL
MODEL       60
REMARK 921   NORMALIZED FREE ENERGY PREDICTED BY IDOCK:   -3.70 KCAL/MOL
REMARK 922        TOTAL FREE ENERGY PREDICTED BY IDOCK:   -4.52 KCAL/MOL
REMARK 923 INTER-LIGAND FREE ENERGY PREDICTED BY IDOCK:   -4.17 KCAL/MOL
REMARK 924 INTRA-LIGAND FREE ENERGY PREDICTED BY IDOCK:   -0.35 KCAL/MOL
REMARK 927      BINDING AFFINITY PREDICTED BY RF-SCORE:    0.00 PKD
ROOT
HETATM    1  C   UNL     1     -10.843  16.101  66.391  1.00  0.00    -0.131 C  
HETATM    2  O   UNL     1     -10.546  15.461  65.135  1.00  0.00    -0.390 OA 
HETATM    3  H   UNL     1     -12.210  14.497  69.019  1.00  0.00     0.000 HD 
HETATM    4  C   UNL     1     -10.900  14.146  65.203  1.00  0.00    -0.372 C  
HETATM    5  O   UNL     1     -11.842  15.200  68.495  1.00  0.00    -0.329 OA 
HETATM    6  H   UNL     1     -12.307  12.481  67.819  1.00  0.00     0.000 HD 
HETATM    7  C   UNL     1     -11.417  15.005  67.209  1.00  0.00    -0.304 C  
HETATM    8  O   UNL     1     -11.945  12.663  66.960  1.00  0.00    -0.445 OA 
HETATM    9  C   UNL     1     -11.459  13.865  66.531  1.00  0.00    -0.348 C  
HETATM   10  O   UNL     1     -10.801  13.319  64.312  1.00  0.00    -0.384 OA 
ENDROOT
BRANCH   1  11
HETATM   11  C   UNL     1      -9.594  16.818  66.953  1.00  0.00    -0.245 C  
HETATM   12  H   UNL     1      -7.887  17.601  66.264  1.00  0.00     0.000 HD 
HETATM   13  O   UNL     1      -8.654  17.160  65.919  1.00  0.00    -0.522 OA 
BRANCH  11  14
HETATM   14  C   UNL     1      -9.883  18.092  67.759  1.00  0.00    -0.305 C  
HETATM   15  O   UNL     1     -10.501  17.789  69.007  1.00  0.00    -0.396 OA 
HETATM   16  H   UNL     1     -10.680  18.578  69.506  1.00  0.00     0.000 HD 
ENDBRANCH  11  14
ENDBRANCH   1  11
TORSDOF 2
ENDMDL
MODEL       61
REMARK 921   NORMALIZED FREE ENERGY PREDICTED BY IDOCK:   -3.70 KCAL/MOL
REMARK 922        TOTAL FREE ENERGY PREDICTED BY IDOCK:   -4.51 KCAL/MOL
REMARK 923 INTER-LIGAND FREE ENERGY PREDICTED BY IDOCK:   -4.35 KCAL/MOL
REMARK 924 INTRA-LIGAND FREE ENERGY PREDICTED BY IDOCK:   -0.16 KCAL/MOL
REMARK 927      BINDING AFFINITY PREDICTED BY RF-SCORE:    0.00 PKD
ROOT
HETATM    1  C   UNL     1     -11.639  10.276  71.306  1.00  0.00    -0.235 C  
HETATM    2  O   UNL     1     -12.823  10.325  72.124  1.00  0.00    -0.388 OA 
HETATM    3  H   UNL     1     -10.530   7.476  69.799  1.00  0.00     0.000 HD 
HETATM    4  C   UNL     1     -13.389   9.085  72.173  1.00  0.00    -0.455 C  
HETATM    5  O   UNL     1     -10.572   8.385  70.073  1.00  0.00    -0.227 OA 
HETATM    6  H   UNL     1     -12.300   6.218  70.692  1.00  0.00     0.000 HD 
HETATM    7  C   UNL     1     -11.573   8.858  70.877  1.00  0.00    -0.283 C  
HETATM    8  O   UNL     1     -12.823   6.821  71.208  1.00  0.00    -0.326 OA 
HETATM    9  C   UNL     1     -12.581   8.154  71.375  1.00  0.00    -0.283 C  
HETATM   10  O   UNL     1     -14.393   8.767  72.788  1.00  0.00    -0.569 OA 
ENDROOT
BRANCH   1  11
HETATM   11  C   UNL     1     -11.695  11.347  70.191  1.00  0.00    -0.328 C  
HETATM   12  H   UNL     1     -12.396  11.522  68.326  1.00  0.00     0.000 HD 
HETATM   13  O   UNL     1     -12.360  10.865  69.011  1.00  0.00    -0.464 OA 
BRANCH  11  14
HETATM   14  C   UNL     1     -12.362  12.669  70.593  1.00  0.00    -0.290 C  
HETATM   15  O   UNL     1     -11.510  13.782  70.332  1.00  0.00    -0.504 OA 
HETATM   16  H   UNL     1     -11.923  14.601  70.580  1.00  0.00     0.000 HD 
ENDBRANCH  11  14
ENDBRANCH   1  11
TORSDOF 2
ENDMDL
MODEL       62
REMARK 921   NORMALIZED FREE ENERGY PREDICTED BY IDOCK:   -3.70 KCAL/MOL
REMARK 922        TOTAL FREE ENERGY PREDICTED BY IDOCK:   -4.51 KCAL/MOL
REMARK 923 INTER-LIGAND FREE ENERGY PREDICTED BY IDOCK:   -4.31 KCAL/MOL
REMARK 924 INTRA-LIGAND FREE ENERGY PREDICTED BY IDOCK:   -0.20 KCAL/MOL
REMARK 927      BINDING AFFINITY PREDICTED BY RF-SCORE:    0.00 PKD
ROOT
HETATM    1  C   UNL     1     -11.366  10.536  70.428  1.00  0.00    -0.328 C  
HETATM    2  O   UNL     1     -12.741  10.508  70.858  1.00  0.00    -0.350 OA 
HETATM    3  H   UNL     1      -9.014   8.411  71.565  1.00  0.00     0.000 HD 
HETATM    4  C   UNL     1     -12.908   9.505  71.767  1.00  0.00    -0.406 C  
HETATM    5  O   UNL     1      -9.414   9.119  71.074  1.00  0.00    -0.252 OA 
HETATM    6  H   UNL     1     -10.565   7.346  72.970  1.00  0.00     0.000 HD 
HETATM    7  C   UNL     1     -10.741   9.430  71.193  1.00  0.00    -0.347 C  
HETATM    8  O   UNL     1     -11.396   7.787  72.834  1.00  0.00    -0.387 OA 
HETATM    9  C   UNL     1     -11.624   8.825  71.977  1.00  0.00    -0.366 C  
HETATM   10  O   UNL     1     -13.941   9.213  72.345  1.00  0.00    -0.471 OA 
ENDROOT
BRANCH   1  11
HETATM   11  C   UNL     1     -11.270  10.467  68.885  1.00  0.00    -0.235 C  
HETATM   12  H   UNL     1     -12.227  11.215  67.296  1.00  0.00     0.000 HD 
HETATM   13  O   UNL     1     -12.286  11.258  68.243  1.00  0.00    -0.611 OA 
BRANCH  11  14
HETATM   14  C   UNL     1      -9.916  10.885  68.299  1.00  0.00    -0.175 C  
HETATM   15  O   UNL     1      -9.192  11.719  69.200  1.00  0.00    -0.382 OA 
HETATM   16  H   UNL     1      -8.353  11.977  68.837  1.00  0.00     0.000 HD 
ENDBRANCH  11  14
ENDBRANCH   1  11
TORSDOF 2
ENDMDL
MODEL       63
REMARK 921   NORMALIZED FREE ENERGY PREDICTED BY IDOCK:   -3.68 KCAL/MOL
REMARK 922        TOTAL FREE ENERGY PREDICTED BY IDOCK:   -4.49 KCAL/MOL
REMARK 923 INTER-LIGAND FREE ENERGY PREDICTED BY IDOCK:   -4.10 KCAL/MOL
REMARK 924 INTRA-LIGAND FREE ENERGY PREDICTED BY IDOCK:   -0.40 KCAL/MOL
REMARK 927      BINDING AFFINITY PREDICTED BY RF-SCORE:    0.00 PKD
ROOT
HETATM    1  C   UNL     1     -12.064  13.821  68.172  1.00  0.00    -0.281 C  
HETATM    2  O   UNL     1     -12.169  14.241  69.546  1.00  0.00    -0.323 OA 
HETATM    3  H   UNL     1     -10.822  15.765  65.719  1.00  0.00     0.000 HD 
HETATM    4  C   UNL     1     -11.691  15.512  69.666  1.00  0.00    -0.357 C  
HETATM    5  O   UNL     1     -11.203  15.011  66.152  1.00  0.00    -0.342 OA 
HETATM    6  H   UNL     1     -10.449  17.532  67.221  1.00  0.00     0.000 HD 
HETATM    7  C   UNL     1     -11.468  14.998  67.495  1.00  0.00    -0.328 C  
HETATM    8  O   UNL     1     -10.735  17.223  68.073  1.00  0.00    -0.380 OA 
HETATM    9  C   UNL     1     -11.249  15.989  68.350  1.00  0.00    -0.364 C  
HETATM   10  O   UNL     1     -11.647  16.179  70.686  1.00  0.00    -0.376 OA 
ENDROOT
BRANCH   1  11
HETATM   11  C   UNL     1     -11.296  12.482  68.062  1.00  0.00    -0.289 C  
HETATM   12  H   UNL     1      -9.436  11.803  68.340  1.00  0.00     0.000 HD 
HETATM   13  O   UNL     1      -9.907  12.625  68.407  1.00  0.00    -0.226 OA 
BRANCH  11  14
HETATM   14  C   UNL     1     -11.869  11.334  68.903  1.00  0.00    -0.345 C  
HETATM   15  O   UNL     1     -11.521  11.472  70.279  1.00  0.00    -0.487 OA 
HETATM   16  H   UNL     1     -11.876  10.761  70.800  1.00  0.00     0.000 HD 
ENDBRANCH  11  14
ENDBRANCH   1  11
TORSDOF 2
ENDMDL
MODEL       64
REMARK 921   NORMALIZED FREE ENERGY PREDICTED BY IDOCK:   -3.68 KCAL/MOL
REMARK 922        TOTAL FREE ENERGY PREDICTED BY IDOCK:   -4.49 KCAL/MOL
REMARK 923 INTER-LIGAND FREE ENERGY PREDICTED BY IDOCK:   -4.14 KCAL/MOL
REMARK 924 INTRA-LIGAND FREE ENERGY PREDICTED BY IDOCK:   -0.35 KCAL/MOL
REMARK 927      BINDING AFFINITY PREDICTED BY RF-SCORE:    0.00 PKD
ROOT
HETATM    1  C   UNL     1     -10.015  16.312  67.201  1.00  0.00    -0.257 C  
HETATM    2  O   UNL     1     -10.100  17.736  66.999  1.00  0.00    -0.310 OA 
HETATM    3  H   UNL     1     -11.048  14.044  64.937  1.00  0.00     0.000 HD 
HETATM    4  C   UNL     1     -10.649  17.986  65.776  1.00  0.00    -0.169 C  
HETATM    5  O   UNL     1     -10.686  14.403  65.738  1.00  0.00    -0.289 OA 
HETATM    6  H   UNL     1     -11.735  15.736  63.460  1.00  0.00     0.000 HD 
HETATM    7  C   UNL     1     -10.580  15.751  65.950  1.00  0.00    -0.339 C  
HETATM    8  O   UNL     1     -11.536  16.561  63.888  1.00  0.00    -1.175 OA 
HETATM    9  C   UNL     1     -10.956  16.711  65.115  1.00  0.00    -0.151 C  
HETATM   10  O   UNL     1     -10.881  19.081  65.292  1.00  0.00    -0.540 OA 
ENDROOT
BRANCH   1  11
HETATM   11  C   UNL     1      -8.572  15.895  67.571  1.00  0.00    -0.168 C  
HETATM   12  H   UNL     1      -6.739  16.002  66.778  1.00  0.00     0.000 HD 
HETATM   13  O   UNL     1      -7.625  16.258  66.552  1.00  0.00    -0.246 OA 
BRANCH  11  14
HETATM   14  C   UNL     1      -8.056  16.450  68.905  1.00  0.00    -0.236 C  
HETATM   15  O   UNL     1      -7.516  17.760  68.750  1.00  0.00    -0.265 OA 
HETATM   16  H   UNL     1      -7.196  18.104  69.576  1.00  0.00     0.000 HD 
ENDBRANCH  11  14
ENDBRANCH   1  11
TORSDOF 2
ENDMDL
MODEL       65
REMARK 921   NORMALIZED FREE ENERGY PREDICTED BY IDOCK:   -3.68 KCAL/MOL
REMARK 922        TOTAL FREE ENERGY PREDICTED BY IDOCK:   -4.49 KCAL/MOL
REMARK 923 INTER-LIGAND FREE ENERGY PREDICTED BY IDOCK:   -4.41 KCAL/MOL
REMARK 924 INTRA-LIGAND FREE ENERGY PREDICTED BY IDOCK:   -0.08 KCAL/MOL
REMARK 927      BINDING AFFINITY PREDICTED BY RF-SCORE:    0.00 PKD
ROOT
HETATM    1  C   UNL     1     -11.769  12.865  66.814  1.00  0.00    -0.383 C  
HETATM    2  O   UNL     1     -12.093  11.534  67.260  1.00  0.00    -0.548 OA 
HETATM    3  H   UNL     1      -8.851  14.401  67.502  1.00  0.00     0.000 HD 
HETATM    4  C   UNL     1     -11.048  11.032  67.978  1.00  0.00    -0.286 C  
HETATM    5  O   UNL     1      -9.724  14.258  67.155  1.00  0.00    -0.241 OA 
HETATM    6  H   UNL     1      -8.090  12.547  68.725  1.00  0.00     0.000 HD 
HETATM    7  C   UNL     1     -10.406  13.089  67.355  1.00  0.00    -0.234 C  
HETATM    8  O   UNL     1      -8.784  11.899  68.688  1.00  0.00    -0.131 OA 
HETATM    9  C   UNL     1      -9.976  12.034  68.036  1.00  0.00    -0.197 C  
HETATM   10  O   UNL     1     -10.993   9.939  68.515  1.00  0.00    -0.225 OA 
ENDROOT
BRANCH   1  11
HETATM   11  C   UNL     1     -11.947  12.991  65.282  1.00  0.00    -0.407 C  
HETATM   12  H   UNL     1     -13.392  12.735  63.923  1.00  0.00     0.000 HD 
HETATM   13  O   UNL     1     -13.282  12.658  64.863  1.00  0.00    -0.819 OA 
BRANCH  11  14
HETATM   14  C   UNL     1     -11.607  14.368  64.699  1.00  0.00    -0.409 C  
HETATM   15  O   UNL     1     -10.258  14.421  64.239  1.00  0.00    -0.530 OA 
HETATM   16  H   UNL     1     -10.048  15.274  63.878  1.00  0.00     0.000 HD 
ENDBRANCH  11  14
ENDBRANCH   1  11
TORSDOF 2
ENDMDL
MODEL       66
REMARK 921   NORMALIZED FREE ENERGY PREDICTED BY IDOCK:   -3.67 KCAL/MOL
REMARK 922        TOTAL FREE ENERGY PREDICTED BY IDOCK:   -4.48 KCAL/MOL
REMARK 923 INTER-LIGAND FREE ENERGY PREDICTED BY IDOCK:   -4.24 KCAL/MOL
REMARK 924 INTRA-LIGAND FREE ENERGY PREDICTED BY IDOCK:   -0.24 KCAL/MOL
REMARK 927      BINDING AFFINITY PREDICTED BY RF-SCORE:    0.00 PKD
ROOT
HETATM    1  C   UNL     1     -10.352  15.015  65.967  1.00  0.00    -0.312 C  
HETATM    2  O   UNL     1     -10.808  16.241  65.365  1.00  0.00    -0.343 OA 
HETATM    3  H   UNL     1      -8.541  14.894  68.804  1.00  0.00     0.000 HD 
HETATM    4  C   UNL     1     -10.393  17.297  66.122  1.00  0.00    -0.317 C  
HETATM    5  O   UNL     1      -9.012  14.600  68.033  1.00  0.00    -0.164 OA 
HETATM    6  H   UNL     1      -8.541  17.236  68.980  1.00  0.00     0.000 HD 
HETATM    7  C   UNL     1      -9.617  15.473  67.171  1.00  0.00    -0.222 C  
HETATM    8  O   UNL     1      -9.036  17.559  68.236  1.00  0.00    -0.252 OA 
HETATM    9  C   UNL     1      -9.630  16.796  67.272  1.00  0.00    -0.234 C  
HETATM   10  O   UNL     1     -10.591  18.478  65.893  1.00  0.00    -0.488 OA 
ENDROOT
BRANCH   1  11
HETATM   11  C   UNL     1     -11.532  14.040  66.192  1.00  0.00    -0.346 C  
HETATM   12  H   UNL     1     -12.895  13.648  67.603  1.00  0.00     0.000 HD 
HETATM   13  O   UNL     1     -12.170  14.246  67.464  1.00  0.00    -0.354 OA 
BRANCH  11  14
HETATM   14  C   UNL     1     -12.622  14.078  65.113  1.00  0.00    -0.428 C  
HETATM   15  O   UNL     1     -12.105  14.539  63.867  1.00  0.00    -0.786 OA 
HETATM   16  H   UNL     1     -12.780  14.562  63.199  1.00  0.00     0.000 HD 
ENDBRANCH  11  14
ENDBRANCH   1  11
TORSDOF 2
ENDMDL
MODEL       67
REMARK 921   NORMALIZED FREE ENERGY PREDICTED BY IDOCK:   -3.65 KCAL/MOL
REMARK 922        TOTAL FREE ENERGY PREDICTED BY IDOCK:   -4.46 KCAL/MOL
REMARK 923 INTER-LIGAND FREE ENERGY PREDICTED BY IDOCK:   -4.28 KCAL/MOL
REMARK 924 INTRA-LIGAND FREE ENERGY PREDICTED BY IDOCK:   -0.18 KCAL/MOL
REMARK 927      BINDING AFFINITY PREDICTED BY RF-SCORE:    0.00 PKD
ROOT
HETATM    1  C   UNL     1     -11.271  13.241  69.195  1.00  0.00    -0.251 C  
HETATM    2  O   UNL     1     -11.921  14.503  69.440  1.00  0.00    -0.303 OA 
HETATM    3  H   UNL     1     -11.860  10.461  71.002  1.00  0.00     0.000 HD 
HETATM    4  C   UNL     1     -12.782  14.372  70.489  1.00  0.00    -0.340 C  
HETATM    5  O   UNL     1     -11.488  11.034  70.341  1.00  0.00    -0.298 OA 
HETATM    6  H   UNL     1     -13.397  11.598  72.367  1.00  0.00     0.000 HD 
HETATM    7  C   UNL     1     -11.851  12.348  70.226  1.00  0.00    -0.232 C  
HETATM    8  O   UNL     1     -13.432  12.491  72.044  1.00  0.00    -0.493 OA 
HETATM    9  C   UNL     1     -12.728  12.991  70.987  1.00  0.00    -0.262 C  
HETATM   10  O   UNL     1     -13.480  15.247  70.972  1.00  0.00    -0.465 OA 
ENDROOT
BRANCH   1  11
HETATM   11  C   UNL     1     -11.439  12.813  67.718  1.00  0.00    -0.326 C  
HETATM   12  H   UNL     1     -12.375  11.385  66.676  1.00  0.00     0.000 HD 
HETATM   13  O   UNL     1     -12.271  11.648  67.583  1.00  0.00    -0.544 OA 
BRANCH  11  14
HETATM   14  C   UNL     1     -12.000  13.895  66.787  1.00  0.00    -0.438 C  
HETATM   15  O   UNL     1     -11.230  15.093  66.856  1.00  0.00    -0.330 OA 
HETATM   16  H   UNL     1     -11.578  15.763  66.279  1.00  0.00     0.000 HD 
ENDBRANCH  11  14
ENDBRANCH   1  11
TORSDOF 2
ENDMDL
MODEL       68
REMARK 921   NORMALIZED FREE ENERGY PREDICTED BY IDOCK:   -3.64 KCAL/MOL
REMARK 922        TOTAL FREE ENERGY PREDICTED BY IDOCK:   -4.45 KCAL/MOL
REMARK 923 INTER-LIGAND FREE ENERGY PREDICTED BY IDOCK:   -4.16 KCAL/MOL
REMARK 924 INTRA-LIGAND FREE ENERGY PREDICTED BY IDOCK:   -0.29 KCAL/MOL
REMARK 927      BINDING AFFINITY PREDICTED BY RF-SCORE:    0.00 PKD
ROOT
HETATM    1  C   UNL     1     -10.814   9.435  71.226  1.00  0.00    -0.361 C  
HETATM    2  O   UNL     1     -12.132   9.921  71.545  1.00  0.00    -0.377 OA 
HETATM    3  H   UNL     1      -9.957   6.179  71.327  1.00  0.00     0.000 HD 
HETATM    4  C   UNL     1     -12.933   8.870  71.878  1.00  0.00    -0.382 C  
HETATM    5  O   UNL     1      -9.881   7.118  71.208  1.00  0.00    -0.178 OA 
HETATM    6  H   UNL     1     -12.115   5.567  72.023  1.00  0.00     0.000 HD 
HETATM    7  C   UNL     1     -10.934   7.968  71.411  1.00  0.00    -0.234 C  
HETATM    8  O   UNL     1     -12.617   6.372  72.078  1.00  0.00    -0.310 OA 
HETATM    9  C   UNL     1     -12.158   7.626  71.793  1.00  0.00    -0.305 C  
HETATM   10  O   UNL     1     -14.103   8.926  72.218  1.00  0.00    -0.449 OA 
ENDROOT
BRANCH   1  11
HETATM   11  C   UNL     1     -10.366   9.933  69.832  1.00  0.00    -0.258 C  
HETATM   12  H   UNL     1     -10.155   9.202  67.983  1.00  0.00     0.000 HD 
HETATM   13  O   UNL     1     -10.430   8.895  68.839  1.00  0.00    -0.217 OA 
BRANCH  11  14
HETATM   14  C   UNL     1     -11.142  11.142  69.293  1.00  0.00    -0.259 C  
HETATM   15  O   UNL     1     -12.359  10.743  68.668  1.00  0.00    -0.825 OA 
HETATM   16  H   UNL     1     -12.839  11.491  68.334  1.00  0.00     0.000 HD 
ENDBRANCH  11  14
ENDBRANCH   1  11
TORSDOF 2
ENDMDL
MODEL       69
REMARK 921   NORMALIZED FREE ENERGY PREDICTED BY IDOCK:   -3.64 KCAL/MOL
REMARK 922        TOTAL FREE ENERGY PREDICTED BY IDOCK:   -4.44 KCAL/MOL
REMARK 923 INTER-LIGAND FREE ENERGY PREDICTED BY IDOCK:   -4.06 KCAL/MOL
REMARK 924 INTRA-LIGAND FREE ENERGY PREDICTED BY IDOCK:   -0.38 KCAL/MOL
REMARK 927      BINDING AFFINITY PREDICTED BY RF-SCORE:    0.00 PKD
ROOT
HETATM    1  C   UNL     1     -11.584   8.906  70.883  1.00  0.00    -0.283 C  
HETATM    2  O   UNL     1     -12.520   9.541  71.776  1.00  0.00    -0.356 OA 
HETATM    3  H   UNL     1     -10.086  10.495  68.320  1.00  0.00     0.000 HD 
HETATM    4  C   UNL     1     -12.679  10.845  71.411  1.00  0.00    -0.434 C  
HETATM    5  O   UNL     1     -10.326   9.799  68.920  1.00  0.00    -0.193 OA 
HETATM    6  H   UNL     1     -11.213  12.495  68.817  1.00  0.00     0.000 HD 
HETATM    7  C   UNL     1     -11.210   9.993  69.946  1.00  0.00    -0.275 C  
HETATM    8  O   UNL     1     -11.755  12.315  69.576  1.00  0.00    -0.302 OA 
HETATM    9  C   UNL     1     -11.840  11.124  70.238  1.00  0.00    -0.366 C  
HETATM   10  O   UNL     1     -13.410  11.665  71.940  1.00  0.00    -0.445 OA 
ENDROOT
BRANCH   1  11
HETATM   11  C   UNL     1     -10.438   8.234  71.675  1.00  0.00    -0.238 C  
HETATM   12  H   UNL     1      -8.723   8.764  72.558  1.00  0.00     0.000 HD 
HETATM   13  O   UNL     1      -9.427   9.177  72.072  1.00  0.00    -0.323 OA 
BRANCH  11  14
HETATM   14  C   UNL     1     -10.877   7.467  72.929  1.00  0.00    -0.354 C  
HETATM   15  O   UNL     1     -12.014   6.648  72.668  1.00  0.00    -0.494 OA 
HETATM   16  H   UNL     1     -12.285   6.173  73.445  1.00  0.00     0.000 HD 
ENDBRANCH  11  14
ENDBRANCH   1  11
TORSDOF 2
ENDMDL
MODEL       70
REMARK 921   NORMALIZED FREE ENERGY PREDICTED BY IDOCK:   -3.62 KCAL/MOL
REMARK 922        TOTAL FREE ENERGY PREDICTED BY IDOCK:   -4.42 KCAL/MOL
REMARK 923 INTER-LIGAND FREE ENERGY PREDICTED BY IDOCK:   -4.05 KCAL/MOL
REMARK 924 INTRA-LIGAND FREE ENERGY PREDICTED BY IDOCK:   -0.37 KCAL/MOL
REMARK 927      BINDING AFFINITY PREDICTED BY RF-SCORE:    0.00 PKD
ROOT
HETATM    1  C   UNL     1     -11.783   9.308  70.321  1.00  0.00    -0.051 C  
HETATM    2  O   UNL     1     -12.652   8.577  71.207  1.00  0.00    -0.298 OA 
HETATM    3  H   UNL     1     -11.631  12.670  70.217  1.00  0.00     0.000 HD 
HETATM    4  C   UNL     1     -13.368   9.456  71.964  1.00  0.00    -0.450 C  
HETATM    5  O   UNL     1     -11.446  11.762  70.009  1.00  0.00    -0.250 OA 
HETATM    6  H   UNL     1     -13.275  12.860  71.884  1.00  0.00     0.000 HD 
HETATM    7  C   UNL     1     -12.072  10.726  70.645  1.00  0.00    -0.370 C  
HETATM    8  O   UNL     1     -13.517  11.972  72.123  1.00  0.00    -0.476 OA 
HETATM    9  C   UNL     1     -12.993  10.827  71.596  1.00  0.00    -0.476 C  
HETATM   10  O   UNL     1     -14.207   9.178  72.804  1.00  0.00    -0.552 OA 
ENDROOT
BRANCH   1  11
HETATM   11  C   UNL     1     -10.318   8.836  70.473  1.00  0.00    -0.203 C  
HETATM   12  H   UNL     1      -8.984   8.561  71.939  1.00  0.00     0.000 HD 
HETATM   13  O   UNL     1      -9.884   8.850  71.845  1.00  0.00    -0.312 OA 
BRANCH  11  14
HETATM   14  C   UNL     1     -10.021   7.441  69.907  1.00  0.00    -0.188 C  
HETATM   15  O   UNL     1     -11.191   6.846  69.349  1.00  0.00    -0.423 OA 
HETATM   16  H   UNL     1     -11.007   5.983  68.998  1.00  0.00     0.000 HD 
ENDBRANCH  11  14
ENDBRANCH   1  11
TORSDOF 2
ENDMDL
MODEL       71
REMARK 921   NORMALIZED FREE ENERGY PREDICTED BY IDOCK:   -3.60 KCAL/MOL
REMARK 922        TOTAL FREE ENERGY PREDICTED BY IDOCK:   -4.40 KCAL/MOL
REMARK 923 INTER-LIGAND FREE ENERGY PREDICTED BY IDOCK:   -4.03 KCAL/MOL
REMARK 924 INTRA-LIGAND FREE ENERGY PREDICTED BY IDOCK:   -0.37 KCAL/MOL
REMARK 927      BINDING AFFINITY PREDICTED BY RF-SCORE:    0.00 PKD
ROOT
HETATM    1  C   UNL     1     -10.260  17.247  66.713  1.00  0.00    -0.318 C  
HETATM    2  O   UNL     1     -10.967  18.136  67.598  1.00  0.00    -0.324 OA 
HETATM    3  H   UNL     1      -7.127  17.816  65.615  1.00  0.00     0.000 HD 
HETATM    4  C   UNL     1     -10.171  19.201  67.899  1.00  0.00    -0.406 C  
HETATM    5  O   UNL     1      -7.967  17.387  65.734  1.00  0.00    -0.538 OA 
HETATM    6  H   UNL     1      -7.011  19.840  66.800  1.00  0.00     0.000 HD 
HETATM    7  C   UNL     1      -8.949  17.916  66.526  1.00  0.00    -0.261 C  
HETATM    8  O   UNL     1      -7.843  19.935  67.248  1.00  0.00    -0.262 OA 
HETATM    9  C   UNL     1      -8.884  19.053  67.207  1.00  0.00    -0.281 C  
HETATM   10  O   UNL     1     -10.461  20.150  68.609  1.00  0.00    -0.370 OA 
ENDROOT
BRANCH   1  11
HETATM   11  C   UNL     1     -10.241  15.807  67.278  1.00  0.00    -0.268 C  
HETATM   12  H   UNL     1      -9.559  14.848  68.895  1.00  0.00     0.000 HD 
HETATM   13  O   UNL     1      -9.571  15.732  68.548  1.00  0.00    -0.195 OA 
BRANCH  11  14
HETATM   14  C   UNL     1     -11.620  15.155  67.441  1.00  0.00    -0.240 C  
HETATM   15  O   UNL     1     -12.245  15.555  68.658  1.00  0.00    -0.567 OA 
HETATM   16  H   UNL     1     -13.099  15.151  68.759  1.00  0.00     0.000 HD 
ENDBRANCH  11  14
ENDBRANCH   1  11
TORSDOF 2
ENDMDL
MODEL       72
REMARK 921   NORMALIZED FREE ENERGY PREDICTED BY IDOCK:   -3.58 KCAL/MOL
REMARK 922        TOTAL FREE ENERGY PREDICTED BY IDOCK:   -4.38 KCAL/MOL
REMARK 923 INTER-LIGAND FREE ENERGY PREDICTED BY IDOCK:   -4.22 KCAL/MOL
REMARK 924 INTRA-LIGAND FREE ENERGY PREDICTED BY IDOCK:   -0.16 KCAL/MOL
REMARK 927      BINDING AFFINITY PREDICTED BY RF-SCORE:    0.00 PKD
ROOT
HETATM    1  C   UNL     1     -11.513  10.837  69.984  1.00  0.00    -0.331 C  
HETATM    2  O   UNL     1     -12.232  11.961  70.524  1.00  0.00    -0.362 OA 
HETATM    3  H   UNL     1     -11.829   7.692  71.146  1.00  0.00     0.000 HD 
HETATM    4  C   UNL     1     -13.031  11.538  71.545  1.00  0.00    -0.380 C  
HETATM    5  O   UNL     1     -11.528   8.421  70.617  1.00  0.00    -0.267 OA 
HETATM    6  H   UNL     1     -13.371   8.381  72.778  1.00  0.00     0.000 HD 
HETATM    7  C   UNL     1     -11.982   9.697  70.809  1.00  0.00    -0.277 C  
HETATM    8  O   UNL     1     -13.480   9.318  72.663  1.00  0.00    -0.444 OA 
HETATM    9  C   UNL     1     -12.862  10.090  71.722  1.00  0.00    -0.446 C  
HETATM   10  O   UNL     1     -13.762  12.231  72.232  1.00  0.00    -0.400 OA 
ENDROOT
BRANCH   1  11
HETATM   11  C   UNL     1     -11.723  10.732  68.455  1.00  0.00    -0.158 C  
HETATM   12  H   UNL     1     -12.147  11.943  66.921  1.00  0.00     0.000 HD 
HETATM   13  O   UNL     1     -12.018  12.007  67.860  1.00  0.00    -0.526 OA 
BRANCH  11  14
HETATM   14  C   UNL     1     -10.551  10.116  67.678  1.00  0.00    -0.265 C  
HETATM   15  O   UNL     1     -10.905   8.857  67.112  1.00  0.00    -0.364 OA 
HETATM   16  H   UNL     1     -10.180   8.476  66.631  1.00  0.00     0.000 HD 
ENDBRANCH  11  14
ENDBRANCH   1  11
TORSDOF 2
ENDMDL
MODEL       73
REMARK 921   NORMALIZED FREE ENERGY PREDICTED BY IDOCK:   -3.58 KCAL/MOL
REMARK 922        TOTAL FREE ENERGY PREDICTED BY IDOCK:   -4.38 KCAL/MOL
REMARK 923 INTER-LIGAND FREE ENERGY PREDICTED BY IDOCK:   -4.07 KCAL/MOL
REMARK 924 INTRA-LIGAND FREE ENERGY PREDICTED BY IDOCK:   -0.31 KCAL/MOL
REMARK 927      BINDING AFFINITY PREDICTED BY RF-SCORE:    0.00 PKD
ROOT
HETATM    1  C   UNL     1     -10.066  13.184  65.276  1.00  0.00    -0.235 C  
HETATM    2  O   UNL     1      -9.257  12.863  66.423  1.00  0.00    -0.221 OA 
HETATM    3  H   UNL     1     -10.962  10.930  62.939  1.00  0.00     0.000 HD 
HETATM    4  C   UNL     1      -8.937  11.538  66.393  1.00  0.00    -0.197 C  
HETATM    5  O   UNL     1     -10.886  11.760  63.395  1.00  0.00    -0.391 OA 
HETATM    6  H   UNL     1      -9.792   9.222  64.047  1.00  0.00     0.000 HD 
HETATM    7  C   UNL     1     -10.185  11.889  64.563  1.00  0.00    -0.282 C  
HETATM    8  O   UNL     1      -9.407   9.619  64.820  1.00  0.00    -0.250 OA 
HETATM    9  C   UNL     1      -9.532  10.925  65.199  1.00  0.00    -0.227 C  
HETATM   10  O   UNL     1      -8.251  10.936  67.203  1.00  0.00    -0.121 OA 
ENDROOT
BRANCH   1  11
HETATM   11  C   UNL     1     -11.382  13.875  65.705  1.00  0.00    -0.307 C  
HETATM   12  H   UNL     1     -12.041  15.031  67.198  1.00  0.00     0.000 HD 
HETATM   13  O   UNL     1     -11.233  14.607  66.934  1.00  0.00    -0.325 OA 
BRANCH  11  14
HETATM   14  C   UNL     1     -11.985  14.828  64.666  1.00  0.00    -0.440 C  
HETATM   15  O   UNL     1     -12.513  14.116  63.550  1.00  0.00    -1.076 OA 
HETATM   16  H   UNL     1     -12.887  14.707  62.906  1.00  0.00     0.000 HD 
ENDBRANCH  11  14
ENDBRANCH   1  11
TORSDOF 2
ENDMDL
MODEL       74
REMARK 921   NORMALIZED FREE ENERGY PREDICTED BY IDOCK:   -3.56 KCAL/MOL
REMARK 922        TOTAL FREE ENERGY PREDICTED BY IDOCK:   -4.36 KCAL/MOL
REMARK 923 INTER-LIGAND FREE ENERGY PREDICTED BY IDOCK:   -4.20 KCAL/MOL
REMARK 924 INTRA-LIGAND FREE ENERGY PREDICTED BY IDOCK:   -0.16 KCAL/MOL
REMARK 927      BINDING AFFINITY PREDICTED BY RF-SCORE:    0.00 PKD
ROOT
HETATM    1  C   UNL     1     -12.107  13.258  68.288  1.00  0.00    -0.211 C  
HETATM    2  O   UNL     1     -11.570  14.497  68.788  1.00  0.00    -0.279 OA 
HETATM    3  H   UNL     1     -12.228  12.467  65.016  1.00  0.00     0.000 HD 
HETATM    4  C   UNL     1     -11.137  15.257  67.741  1.00  0.00    -0.318 C  
HETATM    5  O   UNL     1     -12.335  12.390  65.957  1.00  0.00    -0.627 OA 
HETATM    6  H   UNL     1     -11.258  14.520  64.418  1.00  0.00     0.000 HD 
HETATM    7  C   UNL     1     -11.939  13.376  66.819  1.00  0.00    -0.394 C  
HETATM    8  O   UNL     1     -11.100  14.988  65.230  1.00  0.00    -0.349 OA 
HETATM    9  C   UNL     1     -11.380  14.533  66.487  1.00  0.00    -0.352 C  
HETATM   10  O   UNL     1     -10.643  16.370  67.805  1.00  0.00    -0.305 OA 
ENDROOT
BRANCH   1  11
HETATM   11  C   UNL     1     -11.433  12.048  68.977  1.00  0.00    -0.300 C  
HETATM   12  H   UNL     1     -11.827  10.117  69.319  1.00  0.00     0.000 HD 
HETATM   13  O   UNL     1     -12.240  10.860  68.896  1.00  0.00    -0.494 OA 
BRANCH  11  14
HETATM   14  C   UNL     1     -10.035  11.697  68.453  1.00  0.00    -0.201 C  
HETATM   15  O   UNL     1      -9.227  11.115  69.474  1.00  0.00    -0.372 OA 
HETATM   16  H   UNL     1      -8.361  10.897  69.149  1.00  0.00     0.000 HD 
ENDBRANCH  11  14
ENDBRANCH   1  11
TORSDOF 2
ENDMDL
MODEL       75
REMARK 921   NORMALIZED FREE ENERGY PREDICTED BY IDOCK:   -3.54 KCAL/MOL
REMARK 922        TOTAL FREE ENERGY PREDICTED BY IDOCK:   -4.33 KCAL/MOL
REMARK 923 INTER-LIGAND FREE ENERGY PREDICTED BY IDOCK:   -4.02 KCAL/MOL
REMARK 924 INTRA-LIGAND FREE ENERGY PREDICTED BY IDOCK:   -0.31 KCAL/MOL
REMARK 927      BINDING AFFINITY PREDICTED BY RF-SCORE:    0.00 PKD
ROOT
HETATM    1  C   UNL     1      -9.285  17.539  68.459  1.00  0.00    -0.278 C  
HETATM    2  O   UNL     1      -9.118  18.964  68.586  1.00  0.00    -0.340 OA 
HETATM    3  H   UNL     1     -10.806  16.069  65.838  1.00  0.00     0.000 HD 
HETATM    4  C   UNL     1      -9.662  19.581  67.499  1.00  0.00    -0.347 C  
HETATM    5  O   UNL     1     -10.351  16.165  66.667  1.00  0.00    -0.285 OA 
HETATM    6  H   UNL     1     -11.233  18.150  64.837  1.00  0.00     0.000 HD 
HETATM    7  C   UNL     1      -9.994  17.388  67.165  1.00  0.00    -0.291 C  
HETATM    8  O   UNL     1     -10.870  18.807  65.420  1.00  0.00    -0.563 OA 
HETATM    9  C   UNL     1     -10.222  18.566  66.598  1.00  0.00    -0.399 C  
HETATM   10  O   UNL     1      -9.710  20.782  67.292  1.00  0.00    -0.479 OA 
ENDROOT
BRANCH   1  11
HETATM   11  C   UNL     1      -7.928  16.811  68.607  1.00  0.00    -0.246 C  
HETATM   12  H   UNL     1      -6.075  17.222  69.238  1.00  0.00     0.000 HD 
HETATM   13  O   UNL     1      -6.908  17.669  69.147  1.00  0.00    -0.248 OA 
BRANCH  11  14
HETATM   14  C   UNL     1      -7.964  15.537  69.460  1.00  0.00    -0.192 C  
HETATM   15  O   UNL     1      -9.155  14.788  69.230  1.00  0.00    -0.355 OA 
HETATM   16  H   UNL     1      -9.177  13.999  69.758  1.00  0.00     0.000 HD 
ENDBRANCH  11  14
ENDBRANCH   1  11
TORSDOF 2
ENDMDL
MODEL       76
REMARK 921   NORMALIZED FREE ENERGY PREDICTED BY IDOCK:   -3.54 KCAL/MOL
REMARK 922        TOTAL FREE ENERGY PREDICTED BY IDOCK:   -4.33 KCAL/MOL
REMARK 923 INTER-LIGAND FREE ENERGY PREDICTED BY IDOCK:   -3.97 KCAL/MOL
REMARK 924 INTRA-LIGAND FREE ENERGY PREDICTED BY IDOCK:   -0.36 KCAL/MOL
REMARK 927      BINDING AFFINITY PREDICTED BY RF-SCORE:    0.00 PKD
ROOT
HETATM    1  C   UNL     1     -11.475  15.326  67.913  1.00  0.00    -0.316 C  
HETATM    2  O   UNL     1     -11.465  14.079  67.192  1.00  0.00    -0.318 OA 
HETATM    3  H   UNL     1     -12.059  15.561  71.221  1.00  0.00     0.000 HD 
HETATM    4  C   UNL     1     -11.719  13.056  68.057  1.00  0.00    -0.355 C  
HETATM    5  O   UNL     1     -11.871  15.823  70.328  1.00  0.00    -0.325 OA 
HETATM    6  H   UNL     1     -12.341  13.236  71.401  1.00  0.00     0.000 HD 
HETATM    7  C   UNL     1     -11.768  14.917  69.308  1.00  0.00    -0.316 C  
HETATM    8  O   UNL     1     -12.214  12.883  70.528  1.00  0.00    -0.368 OA 
HETATM    9  C   UNL     1     -11.916  13.602  69.406  1.00  0.00    -0.342 C  
HETATM   10  O   UNL     1     -11.799  11.871  67.779  1.00  0.00    -0.518 OA 
ENDROOT
BRANCH   1  11
HETATM   11  C   UNL     1     -10.166  16.114  67.671  1.00  0.00    -0.265 C  
HETATM   12  H   UNL     1      -8.195  15.821  67.846  1.00  0.00     0.000 HD 
HETATM   13  O   UNL     1      -8.999  15.338  67.995  1.00  0.00    -0.168 OA 
BRANCH  11  14
HETATM   14  C   UNL     1      -9.985  16.651  66.245  1.00  0.00    -0.320 C  
HETATM   15  O   UNL     1     -10.890  16.030  65.335  1.00  0.00    -0.361 OA 
HETATM   16  H   UNL     1     -10.777  16.363  64.453  1.00  0.00     0.000 HD 
ENDBRANCH  11  14
ENDBRANCH   1  11
TORSDOF 2
ENDMDL
MODEL       77
REMARK 921   NORMALIZED FREE ENERGY PREDICTED BY IDOCK:   -3.52 KCAL/MOL
REMARK 922        TOTAL FREE ENERGY PREDICTED BY IDOCK:   -4.32 KCAL/MOL
REMARK 923 INTER-LIGAND FREE ENERGY PREDICTED BY IDOCK:   -4.17 KCAL/MOL
REMARK 924 INTRA-LIGAND FREE ENERGY PREDICTED BY IDOCK:   -0.14 KCAL/MOL
REMARK 927      BINDING AFFINITY PREDICTED BY RF-SCORE:    0.00 PKD
ROOT
HETATM    1  C   UNL     1     -10.764  11.651  65.403  1.00  0.00    -0.287 C  
HETATM    2  O   UNL     1     -10.556  10.699  64.342  1.00  0.00    -0.308 OA 
HETATM    3  H   UNL     1      -8.411  12.450  67.675  1.00  0.00     0.000 HD 
HETATM    4  C   UNL     1      -9.288  10.205  64.421  1.00  0.00    -0.293 C  
HETATM    5  O   UNL     1      -9.243  12.445  67.217  1.00  0.00    -0.176 OA 
HETATM    6  H   UNL     1      -6.879  10.956  66.708  1.00  0.00     0.000 HD 
HETATM    7  C   UNL     1      -9.465  11.659  66.119  1.00  0.00    -0.224 C  
HETATM    8  O   UNL     1      -7.324  10.557  65.970  1.00  0.00    -0.128 OA 
HETATM    9  C   UNL     1      -8.600  10.822  65.562  1.00  0.00    -0.176 C  
HETATM   10  O   UNL     1      -8.786   9.368  63.690  1.00  0.00    -0.213 OA 
ENDROOT
BRANCH   1  11
HETATM   11  C   UNL     1     -11.266  13.001  64.840  1.00  0.00    -0.302 C  
HETATM   12  H   UNL     1     -10.491  14.721  64.177  1.00  0.00     0.000 HD 
HETATM   13  O   UNL     1     -10.183  13.892  64.523  1.00  0.00    -0.405 OA 
BRANCH  11  14
HETATM   14  C   UNL     1     -12.161  12.896  63.599  1.00  0.00    -0.535 C  
HETATM   15  O   UNL     1     -12.491  14.184  63.084  1.00  0.00    -1.126 OA 
HETATM   16  H   UNL     1     -13.045  14.118  62.315  1.00  0.00     0.000 HD 
ENDBRANCH  11  14
ENDBRANCH   1  11
TORSDOF 2
ENDMDL
MODEL       78
REMARK 921   NORMALIZED FREE ENERGY PREDICTED BY IDOCK:   -3.51 KCAL/MOL
REMARK 922        TOTAL FREE ENERGY PREDICTED BY IDOCK:   -4.30 KCAL/MOL
REMARK 923 INTER-LIGAND FREE ENERGY PREDICTED BY IDOCK:   -3.93 KCAL/MOL
REMARK 924 INTRA-LIGAND FREE ENERGY PREDICTED BY IDOCK:   -0.37 KCAL/MOL
REMARK 927      BINDING AFFINITY PREDICTED BY RF-SCORE:    0.00 PKD
ROOT
HETATM    1  C   UNL     1     -12.287   6.775  71.617  1.00  0.00    -0.362 C  
HETATM    2  O   UNL     1     -11.957   6.911  70.222  1.00  0.00    -0.305 OA 
HETATM    3  H   UNL     1     -10.699   4.667  73.709  1.00  0.00     0.000 HD 
HETATM    4  C   UNL     1     -10.928   6.070  69.917  1.00  0.00    -0.388 C  
HETATM    5  O   UNL     1     -11.312   5.323  73.400  1.00  0.00    -0.293 OA 
HETATM    6  H   UNL     1      -9.304   3.901  71.982  1.00  0.00     0.000 HD 
HETATM    7  C   UNL     1     -11.329   5.751  72.101  1.00  0.00    -0.258 C  
HETATM    8  O   UNL     1      -9.558   4.380  71.201  1.00  0.00    -0.151 OA 
HETATM    9  C   UNL     1     -10.536   5.330  71.124  1.00  0.00    -0.205 C  
HETATM   10  O   UNL     1     -10.411   5.918  68.823  1.00  0.00    -0.198 OA 
ENDROOT
BRANCH   1  11
HETATM   11  C   UNL     1     -12.263   8.151  72.325  1.00  0.00    -0.346 C  
HETATM   12  H   UNL     1     -11.022   9.707  72.519  1.00  0.00     0.000 HD 
HETATM   13  O   UNL     1     -11.037   8.863  72.084  1.00  0.00    -0.362 OA 
BRANCH  11  14
HETATM   14  C   UNL     1     -13.423   9.087  71.965  1.00  0.00    -0.442 C  
HETATM   15  O   UNL     1     -14.246   8.529  70.943  1.00  0.00    -0.623 OA 
HETATM   16  H   UNL     1     -14.965   9.109  70.720  1.00  0.00     0.000 HD 
ENDBRANCH  11  14
ENDBRANCH   1  11
TORSDOF 2
ENDMDL
MODEL       79
REMARK 921   NORMALIZED FREE ENERGY PREDICTED BY IDOCK:   -3.51 KCAL/MOL
REMARK 922        TOTAL FREE ENERGY PREDICTED BY IDOCK:   -4.30 KCAL/MOL
REMARK 923 INTER-LIGAND FREE ENERGY PREDICTED BY IDOCK:   -4.07 KCAL/MOL
REMARK 924 INTRA-LIGAND FREE ENERGY PREDICTED BY IDOCK:   -0.22 KCAL/MOL
REMARK 927      BINDING AFFINITY PREDICTED BY RF-SCORE:    0.00 PKD
ROOT
HETATM    1  C   UNL     1     -10.346  14.790  65.356  1.00  0.00    -0.386 C  
HETATM    2  O   UNL     1     -10.836  16.130  65.156  1.00  0.00    -0.435 OA 
HETATM    3  H   UNL     1      -7.932  14.000  67.568  1.00  0.00     0.000 HD 
HETATM    4  C   UNL     1     -10.176  16.981  65.992  1.00  0.00    -0.325 C  
HETATM    5  O   UNL     1      -8.593  13.896  66.893  1.00  0.00    -0.201 OA 
HETATM    6  H   UNL     1      -7.713  16.244  68.227  1.00  0.00     0.000 HD 
HETATM    7  C   UNL     1      -9.315  14.952  66.410  1.00  0.00    -0.297 C  
HETATM    8  O   UNL     1      -8.343  16.736  67.713  1.00  0.00    -0.183 OA 
HETATM    9  C   UNL     1      -9.203  16.220  66.787  1.00  0.00    -0.230 C  
HETATM   10  O   UNL     1     -10.331  18.188  66.073  1.00  0.00    -0.478 OA 
ENDROOT
BRANCH   1  11
HETATM   11  C   UNL     1     -11.510  13.816  65.654  1.00  0.00    -0.310 C  
HETATM   12  H   UNL     1     -12.006  11.919  65.260  1.00  0.00     0.000 HD 
HETATM   13  O   UNL     1     -11.291  12.517  65.077  1.00  0.00    -0.296 OA 
BRANCH  11  14
HETATM   14  C   UNL     1     -11.826  13.617  67.142  1.00  0.00    -0.396 C  
HETATM   15  O   UNL     1     -12.424  14.780  67.708  1.00  0.00    -0.533 OA 
HETATM   16  H   UNL     1     -12.620  14.656  68.630  1.00  0.00     0.000 HD 
ENDBRANCH  11  14
ENDBRANCH   1  11
TORSDOF 2
ENDMDL
MODEL       80
REMARK 921   NORMALIZED FREE ENERGY PREDICTED BY IDOCK:   -3.49 KCAL/MOL
REMARK 922        TOTAL FREE ENERGY PREDICTED BY IDOCK:   -4.28 KCAL/MOL
REMARK 923 INTER-LIGAND FREE ENERGY PREDICTED BY IDOCK:   -3.94 KCAL/MOL
REMARK 924 INTRA-LIGAND FREE ENERGY PREDICTED BY IDOCK:   -0.34 KCAL/MOL
REMARK 927      BINDING AFFINITY PREDICTED BY RF-SCORE:    0.00 PKD
ROOT
HETATM    1  C   UNL     1     -10.406   8.995  70.724  1.00  0.00    -0.243 C  
HETATM    2  O   UNL     1     -10.611  10.093  69.814  1.00  0.00    -0.227 OA 
HETATM    3  H   UNL     1     -12.366   8.402  73.397  1.00  0.00     0.000 HD 
HETATM    4  C   UNL     1     -11.697  10.814  70.214  1.00  0.00    -0.352 C  
HETATM    5  O   UNL     1     -11.664   8.299  72.765  1.00  0.00    -0.397 OA 
HETATM    6  H   UNL     1     -13.697  10.277  72.919  1.00  0.00     0.000 HD 
HETATM    7  C   UNL     1     -11.502   9.155  71.710  1.00  0.00    -0.381 C  
HETATM    8  O   UNL     1     -13.334  10.668  72.132  1.00  0.00    -0.444 OA 
HETATM    9  C   UNL     1     -12.257  10.209  71.429  1.00  0.00    -0.397 C  
HETATM   10  O   UNL     1     -12.141  11.818  69.682  1.00  0.00    -0.294 OA 
ENDROOT
BRANCH   1  11
HETATM   11  C   UNL     1     -10.338   7.652  69.959  1.00  0.00    -0.223 C  
HETATM   12  H   UNL     1     -11.553   6.129  69.510  1.00  0.00     0.000 HD 
HETATM   13  O   UNL     1     -11.595   6.953  69.979  1.00  0.00    -0.299 OA 
BRANCH  11  14
HETATM   14  C   UNL     1      -9.888   7.759  68.496  1.00  0.00    -0.172 C  
HETATM   15  O   UNL     1     -10.959   8.174  67.651  1.00  0.00    -0.508 OA 
HETATM   16  H   UNL     1     -10.680   8.240  66.745  1.00  0.00     0.000 HD 
ENDBRANCH  11  14
ENDBRANCH   1  11
TORSDOF 2
ENDMDL
MODEL       81
REMARK 921   NORMALIZED FREE ENERGY PREDICTED BY IDOCK:   -3.48 KCAL/MOL
REMARK 922        TOTAL FREE ENERGY PREDICTED BY IDOCK:   -4.26 KCAL/MOL
REMARK 923 INTER-LIGAND FREE ENERGY PREDICTED BY IDOCK:   -3.93 KCAL/MOL
REMARK 924 INTRA-LIGAND FREE ENERGY PREDICTED BY IDOCK:   -0.33 KCAL/MOL
REMARK 927      BINDING AFFINITY PREDICTED BY RF-SCORE:    0.00 PKD
ROOT
HETATM    1  C   UNL     1     -11.434   8.477  71.646  1.00  0.00    -0.298 C  
HETATM    2  O   UNL     1     -11.477   7.799  72.916  1.00  0.00    -0.378 OA 
HETATM    3  H   UNL     1     -10.513   6.986  68.770  1.00  0.00     0.000 HD 
HETATM    4  C   UNL     1     -11.095   6.501  72.748  1.00  0.00    -0.245 C  
HETATM    5  O   UNL     1     -10.803   7.662  69.371  1.00  0.00    -0.212 OA 
HETATM    6  H   UNL     1     -10.130   4.949  69.874  1.00  0.00     0.000 HD 
HETATM    7  C   UNL     1     -10.981   7.422  70.706  1.00  0.00    -0.255 C  
HETATM    8  O   UNL     1     -10.337   5.098  70.789  1.00  0.00    -0.240 OA 
HETATM    9  C   UNL     1     -10.777   6.270  71.333  1.00  0.00    -0.248 C  
HETATM   10  O   UNL     1     -11.003   5.651  73.618  1.00  0.00    -0.263 OA 
ENDROOT
BRANCH   1  11
HETATM   11  C   UNL     1     -12.789   9.157  71.339  1.00  0.00    -0.313 C  
HETATM   12  H   UNL     1     -14.438   9.711  72.327  1.00  0.00     0.000 HD 
HETATM   13  O   UNL     1     -13.606   9.293  72.515  1.00  0.00    -0.467 OA 
BRANCH  11  14
HETATM   14  C   UNL     1     -12.688  10.540  70.681  1.00  0.00    -0.355 C  
HETATM   15  O   UNL     1     -12.327  10.437  69.306  1.00  0.00    -0.653 OA 
HETATM   16  H   UNL     1     -12.265  11.293  68.899  1.00  0.00     0.000 HD 
ENDBRANCH  11  14
ENDBRANCH   1  11
TORSDOF 2
ENDMDL
MODEL       82
REMARK 921   NORMALIZED FREE ENERGY PREDICTED BY IDOCK:   -3.46 KCAL/MOL
REMARK 922        TOTAL FREE ENERGY PREDICTED BY IDOCK:   -4.25 KCAL/MOL
REMARK 923 INTER-LIGAND FREE ENERGY PREDICTED BY IDOCK:   -4.24 KCAL/MOL
REMARK 924 INTRA-LIGAND FREE ENERGY PREDICTED BY IDOCK:   -0.00 KCAL/MOL
REMARK 927      BINDING AFFINITY PREDICTED BY RF-SCORE:    0.00 PKD
ROOT
HETATM    1  C   UNL     1      -9.969  15.954  67.048  1.00  0.00    -0.247 C  
HETATM    2  O   UNL     1     -10.648  15.977  68.318  1.00  0.00    -0.261 OA 
HETATM    3  H   UNL     1     -10.515  13.616  64.686  1.00  0.00     0.000 HD 
HETATM    4  C   UNL     1     -11.517  14.928  68.384  1.00  0.00    -0.318 C  
HETATM    5  O   UNL     1     -10.149  14.379  65.118  1.00  0.00    -0.382 OA 
HETATM    6  H   UNL     1     -12.091  12.523  66.042  1.00  0.00     0.000 HD 
HETATM    7  C   UNL     1     -10.540  14.764  66.372  1.00  0.00    -0.300 C  
HETATM    8  O   UNL     1     -12.142  13.023  66.848  1.00  0.00    -0.373 OA 
HETATM    9  C   UNL     1     -11.438  14.156  67.137  1.00  0.00    -0.353 C  
HETATM   10  O   UNL     1     -12.239  14.640  69.324  1.00  0.00    -0.288 OA 
ENDROOT
BRANCH   1  11
HETATM   11  C   UNL     1     -10.112  17.312  66.321  1.00  0.00    -0.316 C  
HETATM   12  H   UNL     1     -11.066  18.059  64.730  1.00  0.00     0.000 HD 
HETATM   13  O   UNL     1     -10.977  17.225  65.176  1.00  0.00    -0.555 OA 
BRANCH  11  14
HETATM   14  C   UNL     1     -10.614  18.468  67.197  1.00  0.00    -0.398 C  
HETATM   15  O   UNL     1     -10.643  19.695  66.473  1.00  0.00    -0.451 OA 
HETATM   16  H   UNL     1     -10.954  20.411  67.015  1.00  0.00     0.000 HD 
ENDBRANCH  11  14
ENDBRANCH   1  11
TORSDOF 2
ENDMDL
MODEL       83
REMARK 921   NORMALIZED FREE ENERGY PREDICTED BY IDOCK:   -3.46 KCAL/MOL
REMARK 922        TOTAL FREE ENERGY PREDICTED BY IDOCK:   -4.24 KCAL/MOL
REMARK 923 INTER-LIGAND FREE ENERGY PREDICTED BY IDOCK:   -4.10 KCAL/MOL
REMARK 924 INTRA-LIGAND FREE ENERGY PREDICTED BY IDOCK:   -0.14 KCAL/MOL
REMARK 927      BINDING AFFINITY PREDICTED BY RF-SCORE:    0.00 PKD
ROOT
HETATM    1  C   UNL     1     -10.805  16.705  68.330  1.00  0.00    -0.361 C  
HETATM    2  O   UNL     1     -10.268  17.957  67.861  1.00  0.00    -0.334 OA 
HETATM    3  H   UNL     1     -11.646  14.159  66.293  1.00  0.00     0.000 HD 
HETATM    4  C   UNL     1     -10.166  17.923  66.502  1.00  0.00    -0.379 C  
HETATM    5  O   UNL     1     -11.516  14.657  67.091  1.00  0.00    -0.344 OA 
HETATM    6  H   UNL     1     -11.024  15.390  64.392  1.00  0.00     0.000 HD 
HETATM    7  C   UNL     1     -11.007  15.927  67.084  1.00  0.00    -0.214 C  
HETATM    8  O   UNL     1     -10.715  16.231  64.708  1.00  0.00    -0.680 OA 
HETATM    9  C   UNL     1     -10.644  16.623  66.014  1.00  0.00    -0.233 C  
HETATM   10  O   UNL     1      -9.766  18.820  65.779  1.00  0.00    -0.450 OA 
ENDROOT
BRANCH   1  11
HETATM   11  C   UNL     1      -9.886  16.082  69.407  1.00  0.00    -0.254 C  
HETATM   12  H   UNL     1     -10.041  14.819  70.951  1.00  0.00     0.000 HD 
HETATM   13  O   UNL     1     -10.605  15.202  70.289  1.00  0.00    -0.247 OA 
BRANCH  11  14
HETATM   14  C   UNL     1      -8.678  15.309  68.863  1.00  0.00    -0.208 C  
HETATM   15  O   UNL     1      -7.839  14.844  69.918  1.00  0.00    -0.398 OA 
HETATM   16  H   UNL     1      -7.091  14.365  69.581  1.00  0.00     0.000 HD 
ENDBRANCH  11  14
ENDBRANCH   1  11
TORSDOF 2
ENDMDL
MODEL       84
REMARK 921   NORMALIZED FREE ENERGY PREDICTED BY IDOCK:   -3.45 KCAL/MOL
REMARK 922        TOTAL FREE ENERGY PREDICTED BY IDOCK:   -4.23 KCAL/MOL
REMARK 923 INTER-LIGAND FREE ENERGY PREDICTED BY IDOCK:   -4.19 KCAL/MOL
REMARK 924 INTRA-LIGAND FREE ENERGY PREDICTED BY IDOCK:   -0.04 KCAL/MOL
REMARK 927      BINDING AFFINITY PREDICTED BY RF-SCORE:    0.00 PKD
ROOT
HETATM    1  C   UNL     1     -10.698  14.541  68.335  1.00  0.00    -0.243 C  
HETATM    2  O   UNL     1     -10.497  13.516  67.343  1.00  0.00    -0.245 OA 
HETATM    3  H   UNL     1     -10.726  17.834  67.630  1.00  0.00     0.000 HD 
HETATM    4  C   UNL     1     -10.329  14.097  66.121  1.00  0.00    -0.300 C  
HETATM    5  O   UNL     1     -10.770  17.029  68.132  1.00  0.00    -0.358 OA 
HETATM    6  H   UNL     1     -10.321  17.416  65.355  1.00  0.00     0.000 HD 
HETATM    7  C   UNL     1     -10.629  15.798  67.551  1.00  0.00    -0.309 C  
HETATM    8  O   UNL     1     -10.268  16.471  65.262  1.00  0.00    -0.588 OA 
HETATM    9  C   UNL     1     -10.412  15.556  66.265  1.00  0.00    -0.307 C  
HETATM   10  O   UNL     1     -10.121  13.524  65.065  1.00  0.00    -0.316 OA 
ENDROOT
BRANCH   1  11
HETATM   11  C   UNL     1     -11.995  14.282  69.138  1.00  0.00    -0.335 C  
HETATM   12  H   UNL     1     -12.911  12.750  70.039  1.00  0.00     0.000 HD 
HETATM   13  O   UNL     1     -12.115  12.908  69.546  1.00  0.00    -0.285 OA 
BRANCH  11  14
HETATM   14  C   UNL     1     -12.171  15.155  70.387  1.00  0.00    -0.344 C  
HETATM   15  O   UNL     1     -11.036  15.071  71.245  1.00  0.00    -0.558 OA 
HETATM   16  H   UNL     1     -11.144  15.612  72.019  1.00  0.00     0.000 HD 
ENDBRANCH  11  14
ENDBRANCH   1  11
TORSDOF 2
ENDMDL
MODEL       85
REMARK 921   NORMALIZED FREE ENERGY PREDICTED BY IDOCK:   -3.44 KCAL/MOL
REMARK 922        TOTAL FREE ENERGY PREDICTED BY IDOCK:   -4.22 KCAL/MOL
REMARK 923 INTER-LIGAND FREE ENERGY PREDICTED BY IDOCK:   -4.04 KCAL/MOL
REMARK 924 INTRA-LIGAND FREE ENERGY PREDICTED BY IDOCK:   -0.18 KCAL/MOL
REMARK 927      BINDING AFFINITY PREDICTED BY RF-SCORE:    0.00 PKD
ROOT
HETATM    1  C   UNL     1     -12.251  14.436  69.264  1.00  0.00    -0.239 C  
HETATM    2  O   UNL     1     -11.815  13.064  69.199  1.00  0.00    -0.297 OA 
HETATM    3  H   UNL     1     -13.869  15.752  71.908  1.00  0.00     0.000 HD 
HETATM    4  C   UNL     1     -12.160  12.426  70.353  1.00  0.00    -0.297 C  
HETATM    5  O   UNL     1     -13.456  15.691  71.055  1.00  0.00    -0.575 OA 
HETATM    6  H   UNL     1     -13.816  13.697  73.044  1.00  0.00     0.000 HD 
HETATM    7  C   UNL     1     -12.895  14.531  70.596  1.00  0.00    -0.340 C  
HETATM    8  O   UNL     1     -13.368  13.086  72.471  1.00  0.00    -0.519 OA 
HETATM    9  C   UNL     1     -12.853  13.370  71.239  1.00  0.00    -0.323 C  
HETATM   10  O   UNL     1     -11.958  11.254  70.625  1.00  0.00    -0.345 OA 
ENDROOT
BRANCH   1  11
HETATM   11  C   UNL     1     -11.075  15.401  68.981  1.00  0.00    -0.268 C  
HETATM   12  H   UNL     1      -9.479  16.130  69.941  1.00  0.00     0.000 HD 
HETATM   13  O   UNL     1     -10.201  15.537  70.115  1.00  0.00    -0.308 OA 
BRANCH  11  14
HETATM   14  C   UNL     1     -10.210  15.033  67.768  1.00  0.00    -0.236 C  
HETATM   15  O   UNL     1     -10.435  15.925  66.679  1.00  0.00    -0.298 OA 
HETATM   16  H   UNL     1      -9.899  15.698  65.928  1.00  0.00     0.000 HD 
ENDBRANCH  11  14
ENDBRANCH   1  11
TORSDOF 2
ENDMDL
MODEL       86
REMARK 921   NORMALIZED FREE ENERGY PREDICTED BY IDOCK:   -3.44 KCAL/MOL
REMARK 922        TOTAL FREE ENERGY PREDICTED BY IDOCK:   -4.22 KCAL/MOL
REMARK 923 INTER-LIGAND FREE ENERGY PREDICTED BY IDOCK:   -3.93 KCAL/MOL
REMARK 924 INTRA-LIGAND FREE ENERGY PREDICTED BY IDOCK:   -0.28 KCAL/MOL
REMARK 927      BINDING AFFINITY PREDICTED BY RF-SCORE:    0.00 PKD
ROOT
HETATM    1  C   UNL     1     -10.416  12.224  65.134  1.00  0.00    -0.288 C  
HETATM    2  O   UNL     1     -11.081  13.419  65.586  1.00  0.00    -0.285 OA 
HETATM    3  H   UNL     1     -10.343   9.354  66.894  1.00  0.00     0.000 HD 
HETATM    4  C   UNL     1     -11.653  13.185  66.801  1.00  0.00    -0.366 C  
HETATM    5  O   UNL     1     -10.185   9.974  66.192  1.00  0.00    -0.247 OA 
HETATM    6  H   UNL     1     -11.590  10.317  68.636  1.00  0.00     0.000 HD 
HETATM    7  C   UNL     1     -10.663  11.256  66.229  1.00  0.00    -0.257 C  
HETATM    8  O   UNL     1     -11.769  11.213  68.374  1.00  0.00    -0.402 OA 
HETATM    9  C   UNL     1     -11.377  11.801  67.206  1.00  0.00    -0.315 C  
HETATM   10  O   UNL     1     -12.279  13.985  67.477  1.00  0.00    -0.366 OA 
ENDROOT
BRANCH   1  11
HETATM   11  C   UNL     1     -10.900  11.826  63.720  1.00  0.00    -0.424 C  
HETATM   12  H   UNL     1     -11.870  12.663  62.184  1.00  0.00     0.000 HD 
HETATM   13  O   UNL     1     -11.572  12.908  63.053  1.00  0.00    -0.282 OA 
BRANCH  11  14
HETATM   14  C   UNL     1      -9.804  11.309  62.779  1.00  0.00    -0.205 C  
HETATM   15  O   UNL     1      -9.544   9.924  62.992  1.00  0.00    -0.497 OA 
HETATM   16  H   UNL     1      -8.866   9.604  62.409  1.00  0.00     0.000 HD 
ENDBRANCH  11  14
ENDBRANCH   1  11
TORSDOF 2
ENDMDL
MODEL       87
REMARK 921   NORMALIZED FREE ENERGY PREDICTED BY IDOCK:   -3.43 KCAL/MOL
REMARK 922        TOTAL FREE ENERGY PREDICTED BY IDOCK:   -4.22 KCAL/MOL
REMARK 923 INTER-LIGAND FREE ENERGY PREDICTED BY IDOCK:   -4.08 KCAL/MOL
REMARK 924 INTRA-LIGAND FREE ENERGY PREDICTED BY IDOCK:   -0.14 KCAL/MOL
REMARK 927      BINDING AFFINITY PREDICTED BY RF-SCORE:    0.00 PKD
ROOT
HETATM    1  C   UNL     1     -10.266  15.351  66.805  1.00  0.00    -0.271 C  
HETATM    2  O   UNL     1      -9.236  14.543  67.406  1.00  0.00    -0.188 OA 
HETATM    3  H   UNL     1      -9.654  18.225  65.158  1.00  0.00     0.000 HD 
HETATM    4  C   UNL     1      -8.022  15.127  67.193  1.00  0.00    -0.215 C  
HETATM    5  O   UNL     1     -10.136  17.499  65.538  1.00  0.00    -0.576 OA 
HETATM    6  H   UNL     1      -7.348  18.039  65.560  1.00  0.00     0.000 HD 
HETATM    7  C   UNL     1      -9.514  16.484  66.211  1.00  0.00    -0.310 C  
HETATM    8  O   UNL     1      -7.226  17.235  66.052  1.00  0.00    -0.284 OA 
HETATM    9  C   UNL     1      -8.211  16.368  66.432  1.00  0.00    -0.331 C  
HETATM   10  O   UNL     1      -6.940  14.718  67.579  1.00  0.00    -0.175 OA 
ENDROOT
BRANCH   1  11
HETATM   11  C   UNL     1     -11.139  14.508  65.847  1.00  0.00    -0.327 C  
HETATM   12  H   UNL     1     -10.888  13.093  64.455  1.00  0.00     0.000 HD 
HETATM   13  O   UNL     1     -10.352  13.612  65.044  1.00  0.00    -0.353 OA 
BRANCH  11  14
HETATM   14  C   UNL     1     -12.237  13.680  66.528  1.00  0.00    -0.404 C  
HETATM   15  O   UNL     1     -12.254  12.339  66.043  1.00  0.00    -0.646 OA 
HETATM   16  H   UNL     1     -12.933  11.826  66.465  1.00  0.00     0.000 HD 
ENDBRANCH  11  14
ENDBRANCH   1  11
TORSDOF 2
ENDMDL
MODEL       88
REMARK 921   NORMALIZED FREE ENERGY PREDICTED BY IDOCK:   -3.42 KCAL/MOL
REMARK 922        TOTAL FREE ENERGY PREDICTED BY IDOCK:   -4.20 KCAL/MOL
REMARK 923 INTER-LIGAND FREE ENERGY PREDICTED BY IDOCK:   -4.04 KCAL/MOL
REMARK 924 INTRA-LIGAND FREE ENERGY PREDICTED BY IDOCK:   -0.15 KCAL/MOL
REMARK 927      BINDING AFFINITY PREDICTED BY RF-SCORE:    0.00 PKD
ROOT
HETATM    1  C   UNL     1     -11.523   7.943  72.376  1.00  0.00    -0.376 C  
HETATM    2  O   UNL     1     -10.335   8.294  71.641  1.00  0.00    -0.197 OA 
HETATM    3  H   UNL     1     -14.341   9.787  72.350  1.00  0.00     0.000 HD 
HETATM    4  C   UNL     1     -10.551   9.456  70.962  1.00  0.00    -0.330 C  
HETATM    5  O   UNL     1     -13.736   9.085  72.560  1.00  0.00    -0.472 OA 
HETATM    6  H   UNL     1     -13.366  11.373  70.919  1.00  0.00     0.000 HD 
HETATM    7  C   UNL     1     -12.468   9.039  72.049  1.00  0.00    -0.390 C  
HETATM    8  O   UNL     1     -12.483  11.069  70.745  1.00  0.00    -0.344 OA 
HETATM    9  C   UNL     1     -11.916   9.926  71.231  1.00  0.00    -0.402 C  
HETATM   10  O   UNL     1      -9.751  10.045  70.254  1.00  0.00    -0.212 OA 
ENDROOT
BRANCH   1  11
HETATM   11  C   UNL     1     -11.973   6.502  72.039  1.00  0.00    -0.326 C  
HETATM   12  H   UNL     1     -12.161   5.337  70.424  1.00  0.00     0.000 HD 
HETATM   13  O   UNL     1     -11.885   6.222  70.631  1.00  0.00    -0.313 OA 
BRANCH  11  14
HETATM   14  C   UNL     1     -11.215   5.394  72.782  1.00  0.00    -0.300 C  
HETATM   15  O   UNL     1     -11.142   5.659  74.181  1.00  0.00    -0.380 OA 
HETATM   16  H   UNL     1     -10.673   4.973  74.640  1.00  0.00     0.000 HD 
ENDBRANCH  11  14
ENDBRANCH   1  11
TORSDOF 2
ENDMDL
MODEL       89
REMARK 921   NORMALIZED FREE ENERGY PREDICTED BY IDOCK:   -3.39 KCAL/MOL
REMARK 922        TOTAL FREE ENERGY PREDICTED BY IDOCK:   -4.16 KCAL/MOL
REMARK 923 INTER-LIGAND FREE ENERGY PREDICTED BY IDOCK:   -3.75 KCAL/MOL
REMARK 924 INTRA-LIGAND FREE ENERGY PREDICTED BY IDOCK:   -0.41 KCAL/MOL
REMARK 927      BINDING AFFINITY PREDICTED BY RF-SCORE:    0.00 PKD
ROOT
HETATM    1  C   UNL     1     -10.903  11.644  69.532  1.00  0.00    -0.029 C  
HETATM    2  O   UNL     1     -11.813  12.356  70.393  1.00  0.00    -0.299 OA 
HETATM    3  H   UNL     1     -10.724   8.285  69.382  1.00  0.00     0.000 HD 
HETATM    4  C   UNL     1     -12.557  11.460  71.102  1.00  0.00    -0.386 C  
HETATM    5  O   UNL     1     -10.534   9.197  69.198  1.00  0.00    -0.212 OA 
HETATM    6  H   UNL     1     -12.401   8.059  71.010  1.00  0.00     0.000 HD 
HETATM    7  C   UNL     1     -11.199  10.219  69.819  1.00  0.00    -0.282 C  
HETATM    8  O   UNL     1     -12.661   8.940  71.250  1.00  0.00    -0.313 OA 
HETATM    9  C   UNL     1     -12.155  10.097  70.731  1.00  0.00    -0.343 C  
HETATM   10  O   UNL     1     -13.410  11.719  71.934  1.00  0.00    -0.448 OA 
ENDROOT
BRANCH   1  11
HETATM   11  C   UNL     1     -11.053  12.113  68.065  1.00  0.00    -0.244 C  
HETATM   12  H   UNL     1     -12.297  11.822  66.526  1.00  0.00     0.000 HD 
HETATM   13  O   UNL     1     -12.205  11.535  67.427  1.00  0.00    -0.401 OA 
BRANCH  11  14
HETATM   14  C   UNL     1     -11.129  13.633  67.873  1.00  0.00    -0.261 C  
HETATM   15  O   UNL     1     -12.415  14.139  68.223  1.00  0.00    -0.538 OA 
HETATM   16  H   UNL     1     -12.462  15.080  68.104  1.00  0.00     0.000 HD 
ENDBRANCH  11  14
ENDBRANCH   1  11
TORSDOF 2
ENDMDL
MODEL       90
REMARK 921   NORMALIZED FREE ENERGY PREDICTED BY IDOCK:   -3.37 KCAL/MOL
REMARK 922        TOTAL FREE ENERGY PREDICTED BY IDOCK:   -4.14 KCAL/MOL
REMARK 923 INTER-LIGAND FREE ENERGY PREDICTED BY IDOCK:   -3.74 KCAL/MOL
REMARK 924 INTRA-LIGAND FREE ENERGY PREDICTED BY IDOCK:   -0.40 KCAL/MOL
REMARK 927      BINDING AFFINITY PREDICTED BY RF-SCORE:    0.00 PKD
ROOT
HETATM    1  C   UNL     1     -10.790  15.580  67.154  1.00  0.00    -0.316 C  
HETATM    2  O   UNL     1     -10.166  16.206  68.292  1.00  0.00    -0.236 OA 
HETATM    3  H   UNL     1      -9.745  16.016  63.982  1.00  0.00     0.000 HD 
HETATM    4  C   UNL     1      -9.119  16.970  67.868  1.00  0.00    -0.232 C  
HETATM    5  O   UNL     1     -10.260  15.703  64.717  1.00  0.00    -0.380 OA 
HETATM    6  H   UNL     1      -8.035  17.467  64.678  1.00  0.00     0.000 HD 
HETATM    7  C   UNL     1      -9.987  16.068  66.007  1.00  0.00    -0.339 C  
HETATM    8  O   UNL     1      -8.103  17.526  65.624  1.00  0.00    -0.508 OA 
HETATM    9  C   UNL     1      -9.015  16.878  66.406  1.00  0.00    -0.283 C  
HETATM   10  O   UNL     1      -8.385  17.649  68.566  1.00  0.00    -0.281 OA 
ENDROOT
BRANCH   1  11
HETATM   11  C   UNL     1     -10.881  14.048  67.349  1.00  0.00    -0.282 C  
HETATM   12  H   UNL     1     -11.759  12.482  66.467  1.00  0.00     0.000 HD 
HETATM   13  O   UNL     1     -11.703  13.422  66.348  1.00  0.00    -0.334 OA 
BRANCH  11  14
HETATM   14  C   UNL     1      -9.534  13.314  67.369  1.00  0.00    -0.218 C  
HETATM   15  O   UNL     1      -8.871  13.477  68.621  1.00  0.00    -0.332 OA 
HETATM   16  H   UNL     1      -8.037  13.022  68.633  1.00  0.00     0.000 HD 
ENDBRANCH  11  14
ENDBRANCH   1  11
TORSDOF 2
ENDMDL
MODEL       91
REMARK 921   NORMALIZED FREE ENERGY PREDICTED BY IDOCK:   -3.36 KCAL/MOL
REMARK 922        TOTAL FREE ENERGY PREDICTED BY IDOCK:   -4.13 KCAL/MOL
REMARK 923 INTER-LIGAND FREE ENERGY PREDICTED BY IDOCK:   -4.03 KCAL/MOL
REMARK 924 INTRA-LIGAND FREE ENERGY PREDICTED BY IDOCK:   -0.10 KCAL/MOL
REMARK 927      BINDING AFFINITY PREDICTED BY RF-SCORE:    0.00 PKD
ROOT
HETATM    1  C   UNL     1      -9.130  18.200  66.442  1.00  0.00    -0.241 C  
HETATM    2  O   UNL     1      -9.117  17.119  65.490  1.00  0.00    -0.343 OA 
HETATM    3  H   UNL     1     -10.801  18.087  69.364  1.00  0.00     0.000 HD 
HETATM    4  C   UNL     1      -9.870  16.088  65.967  1.00  0.00    -0.337 C  
HETATM    5  O   UNL     1     -10.255  18.419  68.661  1.00  0.00    -0.379 OA 
HETATM    6  H   UNL     1     -11.600  15.929  68.897  1.00  0.00     0.000 HD 
HETATM    7  C   UNL     1      -9.981  17.682  67.541  1.00  0.00    -0.322 C  
HETATM    8  O   UNL     1     -11.243  15.689  68.050  1.00  0.00    -0.329 OA 
HETATM    9  C   UNL     1     -10.421  16.458  67.277  1.00  0.00    -0.303 C  
HETATM   10  O   UNL     1     -10.087  15.025  65.409  1.00  0.00    -0.345 OA 
ENDROOT
BRANCH   1  11
HETATM   11  C   UNL     1      -7.689  18.626  66.810  1.00  0.00    -0.242 C  
HETATM   12  H   UNL     1      -5.932  18.892  65.892  1.00  0.00     0.000 HD 
HETATM   13  O   UNL     1      -6.817  18.631  65.667  1.00  0.00    -0.326 OA 
BRANCH  11  14
HETATM   14  C   UNL     1      -7.570  19.996  67.491  1.00  0.00    -0.292 C  
HETATM   15  O   UNL     1      -8.415  20.962  66.870  1.00  0.00    -0.569 OA 
HETATM   16  H   UNL     1      -8.342  21.810  67.291  1.00  0.00     0.000 HD 
ENDBRANCH  11  14
ENDBRANCH   1  11
TORSDOF 2
ENDMDL
MODEL       92
REMARK 921   NORMALIZED FREE ENERGY PREDICTED BY IDOCK:   -3.32 KCAL/MOL
REMARK 922        TOTAL FREE ENERGY PREDICTED BY IDOCK:   -4.09 KCAL/MOL
REMARK 923 INTER-LIGAND FREE ENERGY PREDICTED BY IDOCK:   -3.65 KCAL/MOL
REMARK 924 INTRA-LIGAND FREE ENERGY PREDICTED BY IDOCK:   -0.44 KCAL/MOL
REMARK 927      BINDING AFFINITY PREDICTED BY RF-SCORE:    0.00 PKD
ROOT
HETATM    1  C   UNL     1     -10.626   8.310  71.728  1.00  0.00    -0.259 C  
HETATM    2  O   UNL     1      -9.750   8.876  70.734  1.00  0.00    -0.190 OA 
HETATM    3  H   UNL     1     -13.663   9.568  72.465  1.00  0.00     0.000 HD 
HETATM    4  C   UNL     1     -10.349   9.963  70.170  1.00  0.00    -0.282 C  
HETATM    5  O   UNL     1     -12.901   9.001  72.493  1.00  0.00    -0.404 OA 
HETATM    6  H   UNL     1     -13.400  11.293  70.893  1.00  0.00     0.000 HD 
HETATM    7  C   UNL     1     -11.816   9.195  71.683  1.00  0.00    -0.372 C  
HETATM    8  O   UNL     1     -12.547  11.164  70.495  1.00  0.00    -0.306 OA 
HETATM    9  C   UNL     1     -11.667  10.162  70.786  1.00  0.00    -0.357 C  
HETATM   10  O   UNL     1      -9.880  10.687  69.308  1.00  0.00    -0.218 OA 
ENDROOT
BRANCH   1  11
HETATM   11  C   UNL     1     -10.860   6.804  71.463  1.00  0.00    -0.234 C  
HETATM   12  H   UNL     1     -11.513   5.198  72.460  1.00  0.00     0.000 HD 
HETATM   13  O   UNL     1     -11.369   6.123  72.622  1.00  0.00    -0.268 OA 
BRANCH  11  14
HETATM   14  C   UNL     1     -11.795   6.488  70.289  1.00  0.00    -0.295 C  
HETATM   15  O   UNL     1     -11.186   6.799  69.038  1.00  0.00    -0.467 OA 
HETATM   16  H   UNL     1     -11.766   6.603  68.312  1.00  0.00     0.000 HD 
ENDBRANCH  11  14
ENDBRANCH   1  11
TORSDOF 2
ENDMDL
MODEL       93
REMARK 921   NORMALIZED FREE ENERGY PREDICTED BY IDOCK:   -3.32 KCAL/MOL
REMARK 922        TOTAL FREE ENERGY PREDICTED BY IDOCK:   -4.09 KCAL/MOL
REMARK 923 INTER-LIGAND FREE ENERGY PREDICTED BY IDOCK:   -3.90 KCAL/MOL
REMARK 924 INTRA-LIGAND FREE ENERGY PREDICTED BY IDOCK:   -0.19 KCAL/MOL
REMARK 927      BINDING AFFINITY PREDICTED BY RF-SCORE:    0.00 PKD
ROOT
HETATM    1  C   UNL     1     -11.085  11.244  65.235  1.00  0.00    -0.076 C  
HETATM    2  O   UNL     1     -10.084  10.212  65.330  1.00  0.00    -0.319 OA 
HETATM    3  H   UNL     1     -12.083  13.117  67.849  1.00  0.00     0.000 HD 
HETATM    4  C   UNL     1      -9.632  10.139  66.614  1.00  0.00    -0.183 C  
HETATM    5  O   UNL     1     -12.028  12.780  66.963  1.00  0.00    -0.386 OA 
HETATM    6  H   UNL     1     -10.621  11.987  69.299  1.00  0.00     0.000 HD 
HETATM    7  C   UNL     1     -11.171  11.770  66.618  1.00  0.00    -0.323 C  
HETATM    8  O   UNL     1     -10.166  11.342  68.770  1.00  0.00    -0.198 OA 
HETATM    9  C   UNL     1     -10.335  11.136  67.431  1.00  0.00    -0.196 C  
HETATM   10  O   UNL     1      -8.795   9.365  67.048  1.00  0.00    -0.126 OA 
ENDROOT
BRANCH   1  11
HETATM   11  C   UNL     1     -10.731  12.254  64.118  1.00  0.00    -0.372 C  
HETATM   12  H   UNL     1      -9.607  12.316  62.464  1.00  0.00     0.000 HD 
HETATM   13  O   UNL     1      -9.825  11.696  63.150  1.00  0.00    -0.393 OA 
BRANCH  11  14
HETATM   14  C   UNL     1     -11.932  12.826  63.354  1.00  0.00    -0.535 C  
HETATM   15  O   UNL     1     -13.124  12.095  63.634  1.00  0.00    -0.787 OA 
HETATM   16  H   UNL     1     -13.868  12.450  63.161  1.00  0.00     0.000 HD 
ENDBRANCH  11  14
ENDBRANCH   1  11
TORSDOF 2
ENDMDL
MODEL       94
REMARK 921   NORMALIZED FREE ENERGY PREDICTED BY IDOCK:   -3.30 KCAL/MOL
REMARK 922        TOTAL FREE ENERGY PREDICTED BY IDOCK:   -4.07 KCAL/MOL
REMARK 923 INTER-LIGAND FREE ENERGY PREDICTED BY IDOCK:   -3.70 KCAL/MOL
REMARK 924 INTRA-LIGAND FREE ENERGY PREDICTED BY IDOCK:   -0.37 KCAL/MOL
REMARK 927      BINDING AFFINITY PREDICTED BY RF-SCORE:    0.00 PKD
ROOT
HETATM    1  C   UNL     1     -11.698  12.514  66.538  1.00  0.00    -0.391 C  
HETATM    2  O   UNL     1     -11.398  11.935  65.253  1.00  0.00    -0.322 OA 
HETATM    3  H   UNL     1      -9.587  12.421  69.161  1.00  0.00     0.000 HD 
HETATM    4  C   UNL     1     -10.157  11.371  65.291  1.00  0.00    -0.268 C  
HETATM    5  O   UNL     1     -10.364  12.608  68.647  1.00  0.00    -0.228 OA 
HETATM    6  H   UNL     1      -7.994  11.224  67.918  1.00  0.00     0.000 HD 
HETATM    7  C   UNL     1     -10.485  12.223  67.340  1.00  0.00    -0.210 C  
HETATM    8  O   UNL     1      -8.366  11.105  67.051  1.00  0.00    -0.134 OA 
HETATM    9  C   UNL     1      -9.583  11.557  66.630  1.00  0.00    -0.197 C  
HETATM   10  O   UNL     1      -9.598  10.781  64.382  1.00  0.00    -0.231 OA 
ENDROOT
BRANCH   1  11
HETATM   11  C   UNL     1     -12.105  13.999  66.392  1.00  0.00    -0.455 C  
HETATM   12  H   UNL     1     -11.221  15.794  66.381  1.00  0.00     0.000 HD 
HETATM   13  O   UNL     1     -10.971  14.881  66.471  1.00  0.00    -0.318 OA 
BRANCH  11  14
HETATM   14  C   UNL     1     -12.871  14.340  65.107  1.00  0.00    -0.238 C  
HETATM   15  O   UNL     1     -11.982  14.654  64.038  1.00  0.00    -0.705 OA 
HETATM   16  H   UNL     1     -12.456  14.865  63.243  1.00  0.00     0.000 HD 
ENDBRANCH  11  14
ENDBRANCH   1  11
TORSDOF 2
ENDMDL
MODEL       95
REMARK 921   NORMALIZED FREE ENERGY PREDICTED BY IDOCK:   -3.27 KCAL/MOL
REMARK 922        TOTAL FREE ENERGY PREDICTED BY IDOCK:   -4.04 KCAL/MOL
REMARK 923 INTER-LIGAND FREE ENERGY PREDICTED BY IDOCK:   -3.93 KCAL/MOL
REMARK 924 INTRA-LIGAND FREE ENERGY PREDICTED BY IDOCK:   -0.11 KCAL/MOL
REMARK 927      BINDING AFFINITY PREDICTED BY RF-SCORE:    0.00 PKD
ROOT
HETATM    1  C   UNL     1     -11.350  11.478  65.725  1.00  0.00    -0.095 C  
HETATM    2  O   UNL     1     -11.787  12.094  66.951  1.00  0.00    -0.555 OA 
HETATM    3  H   UNL     1     -10.513  13.215  62.964  1.00  0.00     0.000 HD 
HETATM    4  C   UNL     1     -11.797  13.448  66.798  1.00  0.00    -0.403 C  
HETATM    5  O   UNL     1     -10.671  12.475  63.539  1.00  0.00    -0.435 OA 
HETATM    6  H   UNL     1     -10.987  15.255  64.026  1.00  0.00     0.000 HD 
HETATM    7  C   UNL     1     -11.103  12.632  64.827  1.00  0.00    -0.300 C  
HETATM    8  O   UNL     1     -11.268  15.038  64.908  1.00  0.00    -0.387 OA 
HETATM    9  C   UNL     1     -11.361  13.783  65.436  1.00  0.00    -0.308 C  
HETATM   10  O   UNL     1     -12.129  14.273  67.632  1.00  0.00    -0.376 OA 
ENDROOT
BRANCH   1  11
HETATM   11  C   UNL     1     -10.163  10.520  65.982  1.00  0.00    -0.245 C  
HETATM   12  H   UNL     1      -9.011   9.259  64.940  1.00  0.00     0.000 HD 
HETATM   13  O   UNL     1      -9.740   9.847  64.783  1.00  0.00    -0.309 OA 
BRANCH  11  14
HETATM   14  C   UNL     1      -8.925  11.173  66.610  1.00  0.00    -0.170 C  
HETATM   15  O   UNL     1      -7.949  11.496  65.623  1.00  0.00    -0.349 OA 
HETATM   16  H   UNL     1      -7.182  11.900  66.012  1.00  0.00     0.000 HD 
ENDBRANCH  11  14
ENDBRANCH   1  11
TORSDOF 2
ENDMDL
MODEL       96
REMARK 921   NORMALIZED FREE ENERGY PREDICTED BY IDOCK:   -3.23 KCAL/MOL
REMARK 922        TOTAL FREE ENERGY PREDICTED BY IDOCK:   -3.99 KCAL/MOL
REMARK 923 INTER-LIGAND FREE ENERGY PREDICTED BY IDOCK:   -3.79 KCAL/MOL
REMARK 924 INTRA-LIGAND FREE ENERGY PREDICTED BY IDOCK:   -0.20 KCAL/MOL
REMARK 927      BINDING AFFINITY PREDICTED BY RF-SCORE:    0.00 PKD
ROOT
HETATM    1  C   UNL     1     -11.739   8.528  70.743  1.00  0.00    -0.205 C  
HETATM    2  O   UNL     1     -12.785   8.082  71.628  1.00  0.00    -0.313 OA 
HETATM    3  H   UNL     1     -11.050  11.773  70.162  1.00  0.00     0.000 HD 
HETATM    4  C   UNL     1     -13.415   9.165  72.164  1.00  0.00    -0.469 C  
HETATM    5  O   UNL     1     -10.993  10.826  70.112  1.00  0.00    -0.263 OA 
HETATM    6  H   UNL     1     -12.780  12.463  71.594  1.00  0.00     0.000 HD 
HETATM    7  C   UNL     1     -11.827  10.007  70.822  1.00  0.00    -0.346 C  
HETATM    8  O   UNL     1     -13.178  11.669  71.933  1.00  0.00    -0.485 OA 
HETATM    9  C   UNL     1     -12.798  10.391  71.641  1.00  0.00    -0.474 C  
HETATM   10  O   UNL     1     -14.356   9.150  72.940  1.00  0.00    -0.519 OA 
ENDROOT
BRANCH   1  11
HETATM   11  C   UNL     1     -10.385   7.883  71.123  1.00  0.00    -0.200 C  
HETATM   12  H   UNL     1      -9.678   6.078  71.614  1.00  0.00     0.000 HD 
HETATM   13  O   UNL     1     -10.509   6.474  71.381  1.00  0.00    -0.208 OA 
BRANCH  11  14
HETATM   14  C   UNL     1      -9.264   8.070  70.091  1.00  0.00    -0.152 C  
HETATM   15  O   UNL     1      -8.358   9.096  70.486  1.00  0.00    -0.156 OA 
HETATM   16  H   UNL     1      -7.664   9.211  69.847  1.00  0.00     0.000 HD 
ENDBRANCH  11  14
ENDBRANCH   1  11
TORSDOF 2
ENDMDL
MODEL       97
REMARK 921   NORMALIZED FREE ENERGY PREDICTED BY IDOCK:   -3.23 KCAL/MOL
REMARK 922        TOTAL FREE ENERGY PREDICTED BY IDOCK:   -3.99 KCAL/MOL
REMARK 923 INTER-LIGAND FREE ENERGY PREDICTED BY IDOCK:   -3.55 KCAL/MOL
REMARK 924 INTRA-LIGAND FREE ENERGY PREDICTED BY IDOCK:   -0.44 KCAL/MOL
REMARK 927      BINDING AFFINITY PREDICTED BY RF-SCORE:    0.00 PKD
ROOT
HETATM    1  C   UNL     1     -11.651  12.048  68.117  1.00  0.00    -0.340 C  
HETATM    2  O   UNL     1     -11.747  10.949  69.043  1.00  0.00    -0.295 OA 
HETATM    3  H   UNL     1     -11.857  15.281  69.036  1.00  0.00     0.000 HD 
HETATM    4  C   UNL     1     -11.926  11.436  70.304  1.00  0.00    -0.373 C  
HETATM    5  O   UNL     1     -11.765  14.516  68.481  1.00  0.00    -0.294 OA 
HETATM    6  H   UNL     1     -12.167  14.688  71.287  1.00  0.00     0.000 HD 
HETATM    7  C   UNL     1     -11.796  13.243  68.983  1.00  0.00    -0.321 C  
HETATM    8  O   UNL     1     -12.145  13.739  71.318  1.00  0.00    -0.294 OA 
HETATM    9  C   UNL     1     -11.959  12.903  70.255  1.00  0.00    -0.283 C  
HETATM   10  O   UNL     1     -12.062  10.782  71.324  1.00  0.00    -0.330 OA 
ENDROOT
BRANCH   1  11
HETATM   11  C   UNL     1     -10.361  11.944  67.270  1.00  0.00    -0.205 C  
HETATM   12  H   UNL     1      -9.641  12.672  65.552  1.00  0.00     0.000 HD 
HETATM   13  O   UNL     1     -10.434  12.735  66.072  1.00  0.00    -0.265 OA 
BRANCH  11  14
HETATM   14  C   UNL     1      -9.069  12.328  68.004  1.00  0.00    -0.191 C  
HETATM   15  O   UNL     1      -8.735  11.372  69.007  1.00  0.00    -0.357 OA 
HETATM   16  H   UNL     1      -7.936  11.610  69.461  1.00  0.00     0.000 HD 
ENDBRANCH  11  14
ENDBRANCH   1  11
TORSDOF 2
ENDMDL
MODEL       98
REMARK 921   NORMALIZED FREE ENERGY PREDICTED BY IDOCK:   -3.23 KCAL/MOL
REMARK 922        TOTAL FREE ENERGY PREDICTED BY IDOCK:   -3.98 KCAL/MOL
REMARK 923 INTER-LIGAND FREE ENERGY PREDICTED BY IDOCK:   -3.58 KCAL/MOL
REMARK 924 INTRA-LIGAND FREE ENERGY PREDICTED BY IDOCK:   -0.40 KCAL/MOL
REMARK 927      BINDING AFFINITY PREDICTED BY RF-SCORE:    0.00 PKD
ROOT
HETATM    1  C   UNL     1      -8.014  17.560  66.540  1.00  0.00    -0.274 C  
HETATM    2  O   UNL     1      -9.205  18.132  65.965  1.00  0.00    -0.507 OA 
HETATM    3  H   UNL     1      -5.683  19.363  68.169  1.00  0.00     0.000 HD 
HETATM    4  C   UNL     1      -9.216  19.476  66.194  1.00  0.00    -0.318 C  
HETATM    5  O   UNL     1      -6.125  18.614  67.788  1.00  0.00    -0.186 OA 
HETATM    6  H   UNL     1      -6.878  21.353  67.809  1.00  0.00     0.000 HD 
HETATM    7  C   UNL     1      -7.322  18.729  67.135  1.00  0.00    -0.213 C  
HETATM    8  O   UNL     1      -7.660  21.111  67.327  1.00  0.00    -0.383 OA 
HETATM    9  C   UNL     1      -8.007  19.849  66.939  1.00  0.00    -0.306 C  
HETATM   10  O   UNL     1     -10.068  20.269  65.830  1.00  0.00    -0.417 OA 
ENDROOT
BRANCH   1  11
HETATM   11  C   UNL     1      -8.367  16.392  67.490  1.00  0.00    -0.161 C  
HETATM   12  H   UNL     1      -9.122  16.139  69.326  1.00  0.00     0.000 HD 
HETATM   13  O   UNL     1      -8.905  16.856  68.742  1.00  0.00    -0.261 OA 
BRANCH  11  14
HETATM   14  C   UNL     1      -9.348  15.361  66.917  1.00  0.00    -0.236 C  
HETATM   15  O   UNL     1     -10.668  15.891  66.828  1.00  0.00    -0.321 OA 
HETATM   16  H   UNL     1     -11.275  15.252  66.473  1.00  0.00     0.000 HD 
ENDBRANCH  11  14
ENDBRANCH   1  11
TORSDOF 2
ENDMDL
MODEL       99
REMARK 921   NORMALIZED FREE ENERGY PREDICTED BY IDOCK:   -3.21 KCAL/MOL
REMARK 922        TOTAL FREE ENERGY PREDICTED BY IDOCK:   -3.96 KCAL/MOL
REMARK 923 INTER-LIGAND FREE ENERGY PREDICTED BY IDOCK:   -3.63 KCAL/MOL
REMARK 924 INTRA-LIGAND FREE ENERGY PREDICTED BY IDOCK:   -0.34 KCAL/MOL
REMARK 927      BINDING AFFINITY PREDICTED BY RF-SCORE:    0.00 PKD
ROOT
HETATM    1  C   UNL     1     -11.506   9.788  71.204  1.00  0.00    -0.398 C  
HETATM    2  O   UNL     1     -11.497   8.401  71.591  1.00  0.00    -0.258 OA 
HETATM    3  H   UNL     1     -10.374  10.899  68.233  1.00  0.00     0.000 HD 
HETATM    4  C   UNL     1     -10.971   7.653  70.580  1.00  0.00    -0.249 C  
HETATM    5  O   UNL     1     -10.748  10.911  69.106  1.00  0.00    -0.203 OA 
HETATM    6  H   UNL     1      -9.788   8.723  67.570  1.00  0.00     0.000 HD 
HETATM    7  C   UNL     1     -10.922   9.770  69.840  1.00  0.00    -0.264 C  
HETATM    8  O   UNL     1     -10.026   8.151  68.291  1.00  0.00    -0.174 OA 
HETATM    9  C   UNL     1     -10.604   8.537  69.466  1.00  0.00    -0.211 C  
HETATM   10  O   UNL     1     -10.801   6.445  70.580  1.00  0.00    -0.243 OA 
ENDROOT
BRANCH   1  11
HETATM   11  C   UNL     1     -12.922  10.392  71.354  1.00  0.00    -0.443 C  
HETATM   12  H   UNL     1     -14.615   9.997  72.343  1.00  0.00     0.000 HD 
HETATM   13  O   UNL     1     -13.746   9.626  72.251  1.00  0.00    -0.417 OA 
BRANCH  11  14
HETATM   14  C   UNL     1     -12.959  11.853  71.823  1.00  0.00    -0.350 C  
HETATM   15  O   UNL     1     -12.265  12.708  70.918  1.00  0.00    -0.416 OA 
HETATM   16  H   UNL     1     -12.288  13.612  71.208  1.00  0.00     0.000 HD 
ENDBRANCH  11  14
ENDBRANCH   1  11
TORSDOF 2
ENDMDL
MODEL      100
REMARK 921   NORMALIZED FREE ENERGY PREDICTED BY IDOCK:   -3.20 KCAL/MOL
REMARK 922        TOTAL FREE ENERGY PREDICTED BY IDOCK:   -3.96 KCAL/MOL
REMARK 923 INTER-LIGAND FREE ENERGY PREDICTED BY IDOCK:   -3.57 KCAL/MOL
REMARK 924 INTRA-LIGAND FREE ENERGY PREDICTED BY IDOCK:   -0.39 KCAL/MOL
REMARK 927      BINDING AFFINITY PREDICTED BY RF-SCORE:    0.00 PKD
ROOT
HETATM    1  C   UNL     1      -7.222  18.556  66.502  1.00  0.00    -0.227 C  
HETATM    2  O   UNL     1      -8.071  17.544  65.928  1.00  0.00    -0.536 OA 
HETATM    3  H   UNL     1      -8.361  21.509  67.652  1.00  0.00     0.000 HD 
HETATM    4  C   UNL     1      -9.363  17.979  65.938  1.00  0.00     0.145 C  
HETATM    5  O   UNL     1      -7.755  20.813  67.428  1.00  0.00    -0.345 OA 
HETATM    6  H   UNL     1     -10.567  20.960  67.063  1.00  0.00     0.000 HD 
HETATM    7  C   UNL     1      -8.168  19.643  66.852  1.00  0.00    -0.294 C  
HETATM    8  O   UNL     1     -10.534  20.090  66.682  1.00  0.00    -0.449 OA 
HETATM    9  C   UNL     1      -9.415  19.323  66.527  1.00  0.00    -0.357 C  
HETATM   10  O   UNL     1     -10.336  17.380  65.512  1.00  0.00    -0.621 OA 
ENDROOT
BRANCH   1  11
HETATM   11  C   UNL     1      -6.366  17.971  67.650  1.00  0.00    -0.173 C  
HETATM   12  H   UNL     1      -6.620  17.365  69.539  1.00  0.00     0.000 HD 
HETATM   13  O   UNL     1      -7.145  17.724  68.834  1.00  0.00    -0.257 OA 
BRANCH  11  14
HETATM   14  C   UNL     1      -5.617  16.677  67.308  1.00  0.00    -0.152 C  
HETATM   15  O   UNL     1      -6.517  15.589  67.113  1.00  0.00    -0.302 OA 
HETATM   16  H   UNL     1      -6.053  14.788  66.901  1.00  0.00     0.000 HD 
ENDBRANCH  11  14
ENDBRANCH   1  11
TORSDOF 2
ENDMDL
MODEL      101
REMARK 921   NORMALIZED FREE ENERGY PREDICTED BY IDOCK:   -3.20 KCAL/MOL
REMARK 922        TOTAL FREE ENERGY PREDICTED BY IDOCK:   -3.95 KCAL/MOL
REMARK 923 INTER-LIGAND FREE ENERGY PREDICTED BY IDOCK:   -3.78 KCAL/MOL
REMARK 924 INTRA-LIGAND FREE ENERGY PREDICTED BY IDOCK:   -0.17 KCAL/MOL
REMARK 927      BINDING AFFINITY PREDICTED BY RF-SCORE:    0.00 PKD
ROOT
HETATM    1  C   UNL     1     -11.739   7.507  70.577  1.00  0.00    -0.158 C  
HETATM    2  O   UNL     1     -11.302   8.797  70.109  1.00  0.00    -0.209 OA 
HETATM    3  H   UNL     1      -9.701   4.839  70.852  1.00  0.00     0.000 HD 
HETATM    4  C   UNL     1      -9.972   8.744  69.814  1.00  0.00    -0.190 C  
HETATM    5  O   UNL     1     -10.491   5.366  70.888  1.00  0.00    -0.239 OA 
HETATM    6  H   UNL     1      -7.872   6.073  70.047  1.00  0.00     0.000 HD 
HETATM    7  C   UNL     1     -10.506   6.684  70.522  1.00  0.00    -0.203 C  
HETATM    8  O   UNL     1      -8.195   6.950  69.877  1.00  0.00    -0.123 OA 
HETATM    9  C   UNL     1      -9.473   7.389  70.078  1.00  0.00    -0.161 C  
HETATM   10  O   UNL     1      -9.287   9.654  69.378  1.00  0.00    -0.169 OA 
ENDROOT
BRANCH   1  11
HETATM   11  C   UNL     1     -12.443   7.627  71.949  1.00  0.00    -0.308 C  
HETATM   12  H   UNL     1     -11.961   8.069  73.839  1.00  0.00     0.000 HD 
HETATM   13  O   UNL     1     -11.529   7.995  72.997  1.00  0.00    -0.370 OA 
BRANCH  11  14
HETATM   14  C   UNL     1     -13.619   8.612  71.992  1.00  0.00    -0.412 C  
HETATM   15  O   UNL     1     -13.992   8.920  73.333  1.00  0.00    -1.236 OA 
HETATM   16  H   UNL     1     -14.720   9.530  73.359  1.00  0.00     0.000 HD 
ENDBRANCH  11  14
ENDBRANCH   1  11
TORSDOF 2
ENDMDL
MODEL      102
REMARK 921   NORMALIZED FREE ENERGY PREDICTED BY IDOCK:   -3.19 KCAL/MOL
REMARK 922        TOTAL FREE ENERGY PREDICTED BY IDOCK:   -3.95 KCAL/MOL
REMARK 923 INTER-LIGAND FREE ENERGY PREDICTED BY IDOCK:   -3.66 KCAL/MOL
REMARK 924 INTRA-LIGAND FREE ENERGY PREDICTED BY IDOCK:   -0.29 KCAL/MOL
REMARK 927      BINDING AFFINITY PREDICTED BY RF-SCORE:    0.00 PKD
ROOT
HETATM    1  C   UNL     1      -7.530  19.034  67.364  1.00  0.00    -0.229 C  
HETATM    2  O   UNL     1      -7.291  17.893  68.210  1.00  0.00    -0.231 OA 
HETATM    3  H   UNL     1     -10.591  19.966  66.314  1.00  0.00     0.000 HD 
HETATM    4  C   UNL     1      -8.479  17.288  68.498  1.00  0.00    -0.267 C  
HETATM    5  O   UNL     1      -9.648  19.969  66.428  1.00  0.00    -0.394 OA 
HETATM    6  H   UNL     1     -11.596  18.170  67.445  1.00  0.00     0.000 HD 
HETATM    7  C   UNL     1      -9.002  19.030  67.185  1.00  0.00    -0.287 C  
HETATM    8  O   UNL     1     -10.892  17.696  67.874  1.00  0.00    -0.374 OA 
HETATM    9  C   UNL     1      -9.566  18.020  67.836  1.00  0.00    -0.284 C  
HETATM   10  O   UNL     1      -8.640  16.287  69.175  1.00  0.00    -0.248 OA 
ENDROOT
BRANCH   1  11
HETATM   11  C   UNL     1      -6.898  20.309  67.968  1.00  0.00    -0.300 C  
HETATM   12  H   UNL     1      -5.452  20.787  69.266  1.00  0.00     0.000 HD 
HETATM   13  O   UNL     1      -5.841  20.004  68.895  1.00  0.00    -0.238 OA 
BRANCH  11  14
HETATM   14  C   UNL     1      -6.343  21.308  66.944  1.00  0.00    -0.321 C  
HETATM   15  O   UNL     1      -6.839  21.041  65.635  1.00  0.00    -0.489 OA 
HETATM   16  H   UNL     1      -6.496  21.660  65.001  1.00  0.00     0.000 HD 
ENDBRANCH  11  14
ENDBRANCH   1  11
TORSDOF 2
ENDMDL
MODEL      103
REMARK 921   NORMALIZED FREE ENERGY PREDICTED BY IDOCK:   -3.19 KCAL/MOL
REMARK 922        TOTAL FREE ENERGY PREDICTED BY IDOCK:   -3.94 KCAL/MOL
REMARK 923 INTER-LIGAND FREE ENERGY PREDICTED BY IDOCK:   -3.82 KCAL/MOL
REMARK 924 INTRA-LIGAND FREE ENERGY PREDICTED BY IDOCK:   -0.12 KCAL/MOL
REMARK 927      BINDING AFFINITY PREDICTED BY RF-SCORE:    0.00 PKD
ROOT
HETATM    1  C   UNL     1     -11.661  11.383  68.414  1.00  0.00    -0.303 C  
HETATM    2  O   UNL     1     -11.817  12.026  69.694  1.00  0.00    -0.308 OA 
HETATM    3  H   UNL     1     -11.563  13.055  65.492  1.00  0.00     0.000 HD 
HETATM    4  C   UNL     1     -11.910  13.374  69.514  1.00  0.00    -0.332 C  
HETATM    5  O   UNL     1     -11.554  12.330  66.106  1.00  0.00    -0.367 OA 
HETATM    6  H   UNL     1     -11.843  15.114  66.587  1.00  0.00     0.000 HD 
HETATM    7  C   UNL     1     -11.674  12.515  67.456  1.00  0.00    -0.374 C  
HETATM    8  O   UNL     1     -11.900  14.917  67.515  1.00  0.00    -0.350 OA 
HETATM    9  C   UNL     1     -11.821  13.677  68.080  1.00  0.00    -0.372 C  
HETATM   10  O   UNL     1     -12.065  14.215  70.384  1.00  0.00    -0.303 OA 
ENDROOT
BRANCH   1  11
HETATM   11  C   UNL     1     -10.414  10.468  68.405  1.00  0.00    -0.186 C  
HETATM   12  H   UNL     1      -9.281   9.478  69.723  1.00  0.00     0.000 HD 
HETATM   13  O   UNL     1     -10.047  10.040  69.728  1.00  0.00    -0.226 OA 
BRANCH  11  14
HETATM   14  C   UNL     1     -10.533   9.216  67.527  1.00  0.00    -0.270 C  
HETATM   15  O   UNL     1     -11.060   8.113  68.260  1.00  0.00    -0.427 OA 
HETATM   16  H   UNL     1     -11.134   7.338  67.716  1.00  0.00     0.000 HD 
ENDBRANCH  11  14
ENDBRANCH   1  11
TORSDOF 2
ENDMDL
MODEL      104
REMARK 921   NORMALIZED FREE ENERGY PREDICTED BY IDOCK:   -3.17 KCAL/MOL
REMARK 922        TOTAL FREE ENERGY PREDICTED BY IDOCK:   -3.92 KCAL/MOL
REMARK 923 INTER-LIGAND FREE ENERGY PREDICTED BY IDOCK:   -3.83 KCAL/MOL
REMARK 924 INTRA-LIGAND FREE ENERGY PREDICTED BY IDOCK:   -0.09 KCAL/MOL
REMARK 927      BINDING AFFINITY PREDICTED BY RF-SCORE:    0.00 PKD
ROOT
HETATM    1  C   UNL     1     -12.154   8.064  71.579  1.00  0.00    -0.298 C  
HETATM    2  O   UNL     1     -12.947   9.177  72.036  1.00  0.00    -0.360 OA 
HETATM    3  H   UNL     1      -9.713   8.339  69.274  1.00  0.00     0.000 HD 
HETATM    4  C   UNL     1     -12.544  10.311  71.396  1.00  0.00    -0.434 C  
HETATM    5  O   UNL     1     -10.302   7.946  69.908  1.00  0.00    -0.213 OA 
HETATM    6  H   UNL     1     -10.104  10.643  69.043  1.00  0.00     0.000 HD 
HETATM    7  C   UNL     1     -11.234   8.678  70.590  1.00  0.00    -0.252 C  
HETATM    8  O   UNL     1     -10.810  10.856  69.641  1.00  0.00    -0.245 OA 
HETATM    9  C   UNL     1     -11.451   9.982  70.471  1.00  0.00    -0.330 C  
HETATM   10  O   UNL     1     -13.012  11.429  71.532  1.00  0.00    -0.432 OA 
ENDROOT
BRANCH   1  11
HETATM   11  C   UNL     1     -11.510   7.320  72.772  1.00  0.00    -0.230 C  
HETATM   12  H   UNL     1     -10.991   5.451  73.259  1.00  0.00     0.000 HD 
HETATM   13  O   UNL     1     -11.387   5.908  72.527  1.00  0.00    -0.279 OA 
BRANCH  11  14
HETATM   14  C   UNL     1     -10.130   7.840  73.194  1.00  0.00    -0.327 C  
HETATM   15  O   UNL     1      -9.718   7.277  74.437  1.00  0.00    -0.430 OA 
HETATM   16  H   UNL     1      -8.864   7.600  74.699  1.00  0.00     0.000 HD 
ENDBRANCH  11  14
ENDBRANCH   1  11
TORSDOF 2
ENDMDL
MODEL      105
REMARK 921   NORMALIZED FREE ENERGY PREDICTED BY IDOCK:   -3.17 KCAL/MOL
REMARK 922        TOTAL FREE ENERGY PREDICTED BY IDOCK:   -3.92 KCAL/MOL
REMARK 923 INTER-LIGAND FREE ENERGY PREDICTED BY IDOCK:   -3.61 KCAL/MOL
REMARK 924 INTRA-LIGAND FREE ENERGY PREDICTED BY IDOCK:   -0.31 KCAL/MOL
REMARK 927      BINDING AFFINITY PREDICTED BY RF-SCORE:    0.00 PKD
ROOT
HETATM    1  C   UNL     1     -11.079   8.891  71.428  1.00  0.00    -0.306 C  
HETATM    2  O   UNL     1     -11.683   7.895  70.581  1.00  0.00    -0.256 OA 
HETATM    3  H   UNL     1      -8.220   8.396  73.138  1.00  0.00     0.000 HD 
HETATM    4  C   UNL     1     -10.918   6.766  70.595  1.00  0.00    -0.267 C  
HETATM    5  O   UNL     1      -8.998   8.830  72.807  1.00  0.00    -0.361 OA 
HETATM    6  H   UNL     1      -8.037   6.201  72.323  1.00  0.00     0.000 HD 
HETATM    7  C   UNL     1      -9.864   8.215  71.946  1.00  0.00    -0.212 C  
HETATM    8  O   UNL     1      -8.786   6.064  71.755  1.00  0.00    -0.138 OA 
HETATM    9  C   UNL     1      -9.760   6.979  71.473  1.00  0.00    -0.165 C  
HETATM   10  O   UNL     1     -11.145   5.726  70.002  1.00  0.00    -0.348 OA 
ENDROOT
BRANCH   1  11
HETATM   11  C   UNL     1     -10.871  10.217  70.658  1.00  0.00    -0.235 C  
HETATM   12  H   UNL     1      -9.724  10.918  69.177  1.00  0.00     0.000 HD 
HETATM   13  O   UNL     1      -9.852  10.104  69.650  1.00  0.00    -0.224 OA 
BRANCH  11  14
HETATM   14  C   UNL     1     -12.129  10.782  69.986  1.00  0.00    -0.345 C  
HETATM   15  O   UNL     1     -12.195  10.413  68.610  1.00  0.00    -0.750 OA 
HETATM   16  H   UNL     1     -12.974  10.762  68.194  1.00  0.00     0.000 HD 
ENDBRANCH  11  14
ENDBRANCH   1  11
TORSDOF 2
ENDMDL
MODEL      106
REMARK 921   NORMALIZED FREE ENERGY PREDICTED BY IDOCK:   -3.16 KCAL/MOL
REMARK 922        TOTAL FREE ENERGY PREDICTED BY IDOCK:   -3.91 KCAL/MOL
REMARK 923 INTER-LIGAND FREE ENERGY PREDICTED BY IDOCK:   -3.55 KCAL/MOL
REMARK 924 INTRA-LIGAND FREE ENERGY PREDICTED BY IDOCK:   -0.36 KCAL/MOL
REMARK 927      BINDING AFFINITY PREDICTED BY RF-SCORE:    0.00 PKD
ROOT
HETATM    1  C   UNL     1      -9.524  13.870  66.501  1.00  0.00    -0.274 C  
HETATM    2  O   UNL     1      -8.785  15.094  66.671  1.00  0.00    -0.262 OA 
HETATM    3  H   UNL     1     -11.656  12.645  68.802  1.00  0.00     0.000 HD 
HETATM    4  C   UNL     1      -9.095  15.644  67.880  1.00  0.00    -0.185 C  
HETATM    5  O   UNL     1     -11.154  12.715  67.999  1.00  0.00    -0.227 OA 
HETATM    6  H   UNL     1     -11.219  14.440  70.254  1.00  0.00     0.000 HD 
HETATM    7  C   UNL     1     -10.308  13.761  67.755  1.00  0.00    -0.241 C  
HETATM    8  O   UNL     1     -10.591  14.996  69.809  1.00  0.00    -0.247 OA 
HETATM    9  C   UNL     1     -10.066  14.783  68.567  1.00  0.00    -0.230 C  
HETATM   10  O   UNL     1      -8.638  16.672  68.350  1.00  0.00    -0.204 OA 
ENDROOT
BRANCH   1  11
HETATM   11  C   UNL     1     -10.318  13.886  65.174  1.00  0.00    -0.383 C  
HETATM   12  H   UNL     1     -11.449  12.636  64.097  1.00  0.00     0.000 HD 
HETATM   13  O   UNL     1     -10.961  12.626  64.911  1.00  0.00    -0.277 OA 
BRANCH  11  14
HETATM   14  C   UNL     1     -11.386  14.983  65.069  1.00  0.00    -0.394 C  
HETATM   15  O   UNL     1     -10.795  16.274  64.938  1.00  0.00    -0.625 OA 
HETATM   16  H   UNL     1     -11.456  16.953  64.873  1.00  0.00     0.000 HD 
ENDBRANCH  11  14
ENDBRANCH   1  11
TORSDOF 2
ENDMDL
MODEL      107
REMARK 921   NORMALIZED FREE ENERGY PREDICTED BY IDOCK:   -3.16 KCAL/MOL
REMARK 922        TOTAL FREE ENERGY PREDICTED BY IDOCK:   -3.91 KCAL/MOL
REMARK 923 INTER-LIGAND FREE ENERGY PREDICTED BY IDOCK:   -3.79 KCAL/MOL
REMARK 924 INTRA-LIGAND FREE ENERGY PREDICTED BY IDOCK:   -0.12 KCAL/MOL
REMARK 927      BINDING AFFINITY PREDICTED BY RF-SCORE:    0.00 PKD
ROOT
HETATM    1  C   UNL     1     -11.223  15.653  67.956  1.00  0.00    -0.339 C  
HETATM    2  O   UNL     1     -10.323  16.564  67.297  1.00  0.00    -0.287 OA 
HETATM    3  H   UNL     1     -11.971  12.590  66.770  1.00  0.00     0.000 HD 
HETATM    4  C   UNL     1      -9.848  15.985  66.158  1.00  0.00    -0.325 C  
HETATM    5  O   UNL     1     -11.971  13.351  67.339  1.00  0.00    -0.365 OA 
HETATM    6  H   UNL     1     -10.589  12.908  64.898  1.00  0.00     0.000 HD 
HETATM    7  C   UNL     1     -11.224  14.465  67.068  1.00  0.00    -0.328 C  
HETATM    8  O   UNL     1     -10.211  13.775  64.989  1.00  0.00    -0.364 OA 
HETATM    9  C   UNL     1     -10.432  14.645  66.018  1.00  0.00    -0.305 C  
HETATM   10  O   UNL     1      -9.079  16.484  65.353  1.00  0.00    -0.275 OA 
ENDROOT
BRANCH   1  11
HETATM   11  C   UNL     1     -10.802  15.430  69.428  1.00  0.00    -0.263 C  
HETATM   12  H   UNL     1      -9.300  15.947  70.644  1.00  0.00     0.000 HD 
HETATM   13  O   UNL     1      -9.559  16.083  69.740  1.00  0.00    -0.196 OA 
BRANCH  11  14
HETATM   14  C   UNL     1     -11.834  15.872  70.473  1.00  0.00    -0.350 C  
HETATM   15  O   UNL     1     -11.424  15.518  71.792  1.00  0.00    -0.390 OA 
HETATM   16  H   UNL     1     -12.064  15.792  72.439  1.00  0.00     0.000 HD 
ENDBRANCH  11  14
ENDBRANCH   1  11
TORSDOF 2
ENDMDL
MODEL      108
REMARK 921   NORMALIZED FREE ENERGY PREDICTED BY IDOCK:   -3.13 KCAL/MOL
REMARK 922        TOTAL FREE ENERGY PREDICTED BY IDOCK:   -3.88 KCAL/MOL
REMARK 923 INTER-LIGAND FREE ENERGY PREDICTED BY IDOCK:   -3.48 KCAL/MOL
REMARK 924 INTRA-LIGAND FREE ENERGY PREDICTED BY IDOCK:   -0.40 KCAL/MOL
REMARK 927      BINDING AFFINITY PREDICTED BY RF-SCORE:    0.00 PKD
ROOT
HETATM    1  C   UNL     1      -8.400  17.124  68.478  1.00  0.00    -0.262 C  
HETATM    2  O   UNL     1      -7.383  18.143  68.520  1.00  0.00    -0.259 OA 
HETATM    3  H   UNL     1     -11.623  17.739  67.719  1.00  0.00     0.000 HD 
HETATM    4  C   UNL     1      -7.939  19.348  68.206  1.00  0.00    -0.331 C  
HETATM    5  O   UNL     1     -10.839  17.260  67.959  1.00  0.00    -0.381 OA 
HETATM    6  H   UNL     1     -11.190  20.033  67.457  1.00  0.00     0.000 HD 
HETATM    7  C   UNL     1      -9.625  17.872  68.103  1.00  0.00    -0.306 C  
HETATM    8  O   UNL     1     -10.262  20.150  67.625  1.00  0.00    -0.403 OA 
HETATM    9  C   UNL     1      -9.372  19.166  67.945  1.00  0.00    -0.315 C  
HETATM   10  O   UNL     1      -7.366  20.424  68.164  1.00  0.00    -0.254 OA 
ENDROOT
BRANCH   1  11
HETATM   11  C   UNL     1      -7.976  15.960  67.552  1.00  0.00    -0.145 C  
HETATM   12  H   UNL     1      -8.049  15.498  65.608  1.00  0.00     0.000 HD 
HETATM   13  O   UNL     1      -8.309  16.213  66.176  1.00  0.00    -0.318 OA 
BRANCH  11  14
HETATM   14  C   UNL     1      -6.488  15.592  67.610  1.00  0.00    -0.165 C  
HETATM   15  O   UNL     1      -5.707  16.446  66.777  1.00  0.00    -0.340 OA 
HETATM   16  H   UNL     1      -4.786  16.219  66.813  1.00  0.00     0.000 HD 
ENDBRANCH  11  14
ENDBRANCH   1  11
TORSDOF 2
ENDMDL
MODEL      109
REMARK 921   NORMALIZED FREE ENERGY PREDICTED BY IDOCK:   -3.10 KCAL/MOL
REMARK 922        TOTAL FREE ENERGY PREDICTED BY IDOCK:   -3.84 KCAL/MOL
REMARK 923 INTER-LIGAND FREE ENERGY PREDICTED BY IDOCK:   -3.53 KCAL/MOL
REMARK 924 INTRA-LIGAND FREE ENERGY PREDICTED BY IDOCK:   -0.31 KCAL/MOL
REMARK 927      BINDING AFFINITY PREDICTED BY RF-SCORE:    0.00 PKD
ROOT
HETATM    1  C   UNL     1     -10.311  10.428  66.275  1.00  0.00    -0.203 C  
HETATM    2  O   UNL     1      -9.621   9.838  67.394  1.00  0.00    -0.149 OA 
HETATM    3  H   UNL     1     -12.610  12.870  66.584  1.00  0.00     0.000 HD 
HETATM    4  C   UNL     1     -10.048  10.424  68.548  1.00  0.00    -0.171 C  
HETATM    5  O   UNL     1     -12.042  12.226  66.179  1.00  0.00    -0.625 OA 
HETATM    6  H   UNL     1     -12.384  12.874  68.922  1.00  0.00     0.000 HD 
HETATM    7  C   UNL     1     -11.198  11.434  66.909  1.00  0.00    -0.264 C  
HETATM    8  O   UNL     1     -11.731  12.216  69.129  1.00  0.00    -0.288 OA 
HETATM    9  C   UNL     1     -11.059  11.440  68.228  1.00  0.00    -0.244 C  
HETATM   10  O   UNL     1      -9.684  10.152  69.680  1.00  0.00    -0.228 OA 
ENDROOT
BRANCH   1  11
HETATM   11  C   UNL     1      -9.306  10.943  65.218  1.00  0.00    -0.213 C  
HETATM   12  H   UNL     1      -7.350  10.797  64.823  1.00  0.00     0.000 HD 
HETATM   13  O   UNL     1      -7.968  10.481  65.472  1.00  0.00    -0.155 OA 
BRANCH  11  14
HETATM   14  C   UNL     1      -9.652  10.589  63.766  1.00  0.00    -0.311 C  
HETATM   15  O   UNL     1     -10.923  11.113  63.391  1.00  0.00    -0.682 OA 
HETATM   16  H   UNL     1     -11.138  10.894  62.492  1.00  0.00     0.000 HD 
ENDBRANCH  11  14
ENDBRANCH   1  11
TORSDOF 2
ENDMDL
MODEL      110
REMARK 921   NORMALIZED FREE ENERGY PREDICTED BY IDOCK:   -3.09 KCAL/MOL
REMARK 922        TOTAL FREE ENERGY PREDICTED BY IDOCK:   -3.83 KCAL/MOL
REMARK 923 INTER-LIGAND FREE ENERGY PREDICTED BY IDOCK:   -3.73 KCAL/MOL
REMARK 924 INTRA-LIGAND FREE ENERGY PREDICTED BY IDOCK:   -0.11 KCAL/MOL
REMARK 927      BINDING AFFINITY PREDICTED BY RF-SCORE:    0.00 PKD
ROOT
HETATM    1  C   UNL     1     -11.347  10.548  69.160  1.00  0.00    -0.257 C  
HETATM    2  O   UNL     1     -12.312  11.271  68.372  1.00  0.00    -0.545 OA 
HETATM    3  H   UNL     1      -8.025  11.067  68.971  1.00  0.00     0.000 HD 
HETATM    4  C   UNL     1     -11.664  12.166  67.573  1.00  0.00    -0.315 C  
HETATM    5  O   UNL     1      -8.856  10.699  69.247  1.00  0.00    -0.153 OA 
HETATM    6  H   UNL     1      -8.312  12.715  67.322  1.00  0.00     0.000 HD 
HETATM    7  C   UNL     1     -10.050  11.124  68.730  1.00  0.00    -0.201 C  
HETATM    8  O   UNL     1      -9.247  12.782  67.172  1.00  0.00    -0.204 OA 
HETATM    9  C   UNL     1     -10.218  12.062  67.807  1.00  0.00    -0.202 C  
HETATM   10  O   UNL     1     -12.174  12.927  66.769  1.00  0.00    -0.425 OA 
ENDROOT
BRANCH   1  11
HETATM   11  C   UNL     1     -11.691  10.634  70.666  1.00  0.00    -0.356 C  
HETATM   12  H   UNL     1     -13.314  10.840  71.816  1.00  0.00     0.000 HD 
HETATM   13  O   UNL     1     -13.103  10.788  70.891  1.00  0.00    -0.331 OA 
BRANCH  11  14
HETATM   14  C   UNL     1     -11.212   9.446  71.510  1.00  0.00    -0.386 C  
HETATM   15  O   UNL     1     -12.308   8.745  72.093  1.00  0.00    -0.352 OA 
HETATM   16  H   UNL     1     -12.011   8.010  72.616  1.00  0.00     0.000 HD 
ENDBRANCH  11  14
ENDBRANCH   1  11
TORSDOF 2
ENDMDL
MODEL      111
REMARK 921   NORMALIZED FREE ENERGY PREDICTED BY IDOCK:   -3.07 KCAL/MOL
REMARK 922        TOTAL FREE ENERGY PREDICTED BY IDOCK:   -3.81 KCAL/MOL
REMARK 923 INTER-LIGAND FREE ENERGY PREDICTED BY IDOCK:   -3.64 KCAL/MOL
REMARK 924 INTRA-LIGAND FREE ENERGY PREDICTED BY IDOCK:   -0.17 KCAL/MOL
REMARK 927      BINDING AFFINITY PREDICTED BY RF-SCORE:    0.00 PKD
ROOT
HETATM    1  C   UNL     1      -8.937  15.570  66.764  1.00  0.00    -0.266 C  
HETATM    2  O   UNL     1      -9.973  15.110  67.653  1.00  0.00    -0.227 OA 
HETATM    3  H   UNL     1      -8.646  18.766  65.740  1.00  0.00     0.000 HD 
HETATM    4  C   UNL     1     -10.777  16.159  67.991  1.00  0.00    -0.321 C  
HETATM    5  O   UNL     1      -8.461  17.839  65.834  1.00  0.00    -0.522 OA 
HETATM    6  H   UNL     1     -10.545  19.399  66.967  1.00  0.00     0.000 HD 
HETATM    7  C   UNL     1      -9.226  17.018  66.617  1.00  0.00    -0.256 C  
HETATM    8  O   UNL     1     -10.858  18.614  67.401  1.00  0.00    -0.439 OA 
HETATM    9  C   UNL     1     -10.293  17.373  67.321  1.00  0.00    -0.336 C  
HETATM   10  O   UNL     1     -11.758  16.120  68.713  1.00  0.00    -0.364 OA 
ENDROOT
BRANCH   1  11
HETATM   11  C   UNL     1      -7.539  15.183  67.300  1.00  0.00    -0.203 C  
HETATM   12  H   UNL     1      -6.212  15.862  68.634  1.00  0.00     0.000 HD 
HETATM   13  O   UNL     1      -7.071  16.100  68.304  1.00  0.00    -0.122 OA 
BRANCH  11  14
HETATM   14  C   UNL     1      -7.435  13.766  67.879  1.00  0.00    -0.152 C  
HETATM   15  O   UNL     1      -6.472  12.985  67.176  1.00  0.00    -0.429 OA 
HETATM   16  H   UNL     1      -6.408  12.108  67.535  1.00  0.00     0.000 HD 
ENDBRANCH  11  14
ENDBRANCH   1  11
TORSDOF 2
ENDMDL
MODEL      112
REMARK 921   NORMALIZED FREE ENERGY PREDICTED BY IDOCK:   -3.05 KCAL/MOL
REMARK 922        TOTAL FREE ENERGY PREDICTED BY IDOCK:   -3.78 KCAL/MOL
REMARK 923 INTER-LIGAND FREE ENERGY PREDICTED BY IDOCK:   -3.49 KCAL/MOL
REMARK 924 INTRA-LIGAND FREE ENERGY PREDICTED BY IDOCK:   -0.29 KCAL/MOL
REMARK 927      BINDING AFFINITY PREDICTED BY RF-SCORE:    0.00 PKD
ROOT
HETATM    1  C   UNL     1      -8.041  17.806  66.836  1.00  0.00    -0.228 C  
HETATM    2  O   UNL     1      -7.477  17.340  68.077  1.00  0.00    -0.184 OA 
HETATM    3  H   UNL     1     -10.829  16.513  65.457  1.00  0.00     0.000 HD 
HETATM    4  C   UNL     1      -8.245  16.327  68.570  1.00  0.00    -0.195 C  
HETATM    5  O   UNL     1     -10.064  17.064  65.573  1.00  0.00    -0.577 OA 
HETATM    6  H   UNL     1     -11.053  14.964  67.208  1.00  0.00     0.000 HD 
HETATM    7  C   UNL     1      -9.236  16.945  66.655  1.00  0.00    -0.256 C  
HETATM    8  O   UNL     1     -10.329  15.124  67.801  1.00  0.00    -0.239 OA 
HETATM    9  C   UNL     1      -9.364  16.079  67.652  1.00  0.00    -0.214 C  
HETATM   10  O   UNL     1      -8.046  15.695  69.593  1.00  0.00    -0.205 OA 
ENDROOT
BRANCH   1  11
HETATM   11  C   UNL     1      -8.276  19.334  66.877  1.00  0.00    -0.277 C  
HETATM   12  H   UNL     1      -8.393  20.861  65.590  1.00  0.00     0.000 HD 
HETATM   13  O   UNL     1      -8.249  19.922  65.565  1.00  0.00    -0.315 OA 
BRANCH  11  14
HETATM   14  C   UNL     1      -9.579  19.774  67.557  1.00  0.00    -0.353 C  
HETATM   15  O   UNL     1     -10.597  20.055  66.599  1.00  0.00    -0.450 OA 
HETATM   16  H   UNL     1     -11.404  20.328  67.020  1.00  0.00     0.000 HD 
ENDBRANCH  11  14
ENDBRANCH   1  11
TORSDOF 2
ENDMDL
MODEL      113
REMARK 921   NORMALIZED FREE ENERGY PREDICTED BY IDOCK:   -3.04 KCAL/MOL
REMARK 922        TOTAL FREE ENERGY PREDICTED BY IDOCK:   -3.77 KCAL/MOL
REMARK 923 INTER-LIGAND FREE ENERGY PREDICTED BY IDOCK:   -3.60 KCAL/MOL
REMARK 924 INTRA-LIGAND FREE ENERGY PREDICTED BY IDOCK:   -0.17 KCAL/MOL
REMARK 927      BINDING AFFINITY PREDICTED BY RF-SCORE:    0.00 PKD
ROOT
HETATM    1  C   UNL     1     -11.002  13.579  66.554  1.00  0.00    -0.291 C  
HETATM    2  O   UNL     1     -11.929  14.542  67.090  1.00  0.00    -0.406 OA 
HETATM    3  H   UNL     1      -7.908  13.085  67.790  1.00  0.00     0.000 HD 
HETATM    4  C   UNL     1     -11.353  15.186  68.144  1.00  0.00    -0.335 C  
HETATM    5  O   UNL     1      -8.674  12.987  67.236  1.00  0.00    -0.192 OA 
HETATM    6  H   UNL     1      -8.225  14.747  69.419  1.00  0.00     0.000 HD 
HETATM    7  C   UNL     1      -9.806  13.732  67.418  1.00  0.00    -0.238 C  
HETATM    8  O   UNL     1      -9.104  15.084  69.290  1.00  0.00    -0.206 OA 
HETATM    9  C   UNL     1      -9.995  14.664  68.344  1.00  0.00    -0.227 C  
HETATM   10  O   UNL     1     -11.852  16.072  68.817  1.00  0.00    -0.375 OA 
ENDROOT
BRANCH   1  11
HETATM   11  C   UNL     1     -11.645  12.174  66.485  1.00  0.00    -0.359 C  
HETATM   12  H   UNL     1     -11.394  10.467  65.474  1.00  0.00     0.000 HD 
HETATM   13  O   UNL     1     -10.999  11.330  65.516  1.00  0.00    -0.229 OA 
BRANCH  11  14
HETATM   14  C   UNL     1     -11.682  11.410  67.815  1.00  0.00    -0.203 C  
HETATM   15  O   UNL     1     -11.433  10.020  67.625  1.00  0.00    -0.546 OA 
HETATM   16  H   UNL     1     -11.456   9.547  68.449  1.00  0.00     0.000 HD 
ENDBRANCH  11  14
ENDBRANCH   1  11
TORSDOF 2
ENDMDL
MODEL      114
REMARK 921   NORMALIZED FREE ENERGY PREDICTED BY IDOCK:   -3.03 KCAL/MOL
REMARK 922        TOTAL FREE ENERGY PREDICTED BY IDOCK:   -3.77 KCAL/MOL
REMARK 923 INTER-LIGAND FREE ENERGY PREDICTED BY IDOCK:   -3.42 KCAL/MOL
REMARK 924 INTRA-LIGAND FREE ENERGY PREDICTED BY IDOCK:   -0.34 KCAL/MOL
REMARK 927      BINDING AFFINITY PREDICTED BY RF-SCORE:    0.00 PKD
ROOT
HETATM    1  C   UNL     1     -10.066   8.008  70.963  1.00  0.00    -0.186 C  
HETATM    2  O   UNL     1     -10.782   7.220  71.933  1.00  0.00    -0.213 OA 
HETATM    3  H   UNL     1      -7.291   9.776  71.683  1.00  0.00     0.000 HD 
HETATM    4  C   UNL     1     -10.158   7.315  73.142  1.00  0.00    -0.273 C  
HETATM    5  O   UNL     1      -8.010   9.410  71.182  1.00  0.00    -0.322 OA 
HETATM    6  H   UNL     1      -7.370   9.105  73.932  1.00  0.00     0.000 HD 
HETATM    7  C   UNL     1      -8.942   8.581  71.744  1.00  0.00    -0.220 C  
HETATM    8  O   UNL     1      -8.129   8.539  74.016  1.00  0.00    -0.366 OA 
HETATM    9  C   UNL     1      -8.985   8.189  73.012  1.00  0.00    -0.266 C  
HETATM   10  O   UNL     1     -10.507   6.788  74.184  1.00  0.00    -0.365 OA 
ENDROOT
BRANCH   1  11
HETATM   11  C   UNL     1      -9.700   7.157  69.725  1.00  0.00    -0.165 C  
HETATM   12  H   UNL     1      -8.658   5.501  69.308  1.00  0.00     0.000 HD 
HETATM   13  O   UNL     1      -8.882   6.024  70.068  1.00  0.00    -0.136 OA 
BRANCH  11  14
HETATM   14  C   UNL     1     -10.895   6.639  68.915  1.00  0.00    -0.277 C  
HETATM   15  O   UNL     1     -12.117   6.796  69.632  1.00  0.00    -0.635 OA 
HETATM   16  H   UNL     1     -12.858   6.475  69.131  1.00  0.00     0.000 HD 
ENDBRANCH  11  14
ENDBRANCH   1  11
TORSDOF 2
ENDMDL
MODEL      115
REMARK 921   NORMALIZED FREE ENERGY PREDICTED BY IDOCK:   -3.00 KCAL/MOL
REMARK 922        TOTAL FREE ENERGY PREDICTED BY IDOCK:   -3.73 KCAL/MOL
REMARK 923 INTER-LIGAND FREE ENERGY PREDICTED BY IDOCK:   -3.58 KCAL/MOL
REMARK 924 INTRA-LIGAND FREE ENERGY PREDICTED BY IDOCK:   -0.16 KCAL/MOL
REMARK 927      BINDING AFFINITY PREDICTED BY RF-SCORE:    0.00 PKD
ROOT
HETATM    1  C   UNL     1     -10.795   6.212  67.344  1.00  0.00    -0.343 C  
HETATM    2  O   UNL     1     -10.953   5.754  68.700  1.00  0.00    -0.258 OA 
HETATM    3  H   UNL     1     -10.137   9.411  66.522  1.00  0.00     0.000 HD 
HETATM    4  C   UNL     1     -10.791   6.806  69.553  1.00  0.00    -0.273 C  
HETATM    5  O   UNL     1     -10.312   8.483  66.423  1.00  0.00    -0.246 OA 
HETATM    6  H   UNL     1     -10.151  10.060  68.779  1.00  0.00     0.000 HD 
HETATM    7  C   UNL     1     -10.521   7.661  67.497  1.00  0.00    -0.266 C  
HETATM    8  O   UNL     1     -10.327   9.274  69.283  1.00  0.00    -0.202 OA 
HETATM    9  C   UNL     1     -10.519   8.021  68.775  1.00  0.00    -0.173 C  
HETATM   10  O   UNL     1     -10.875   6.776  70.769  1.00  0.00    -0.232 OA 
ENDROOT
BRANCH   1  11
HETATM   11  C   UNL     1      -9.732   5.370  66.598  1.00  0.00    -0.161 C  
HETATM   12  H   UNL     1      -8.214   4.148  67.048  1.00  0.00     0.000 HD 
HETATM   13  O   UNL     1      -8.866   4.665  67.505  1.00  0.00    -0.104 OA 
BRANCH  11  14
HETATM   14  C   UNL     1     -10.294   4.348  65.602  1.00  0.00    -0.225 C  
HETATM   15  O   UNL     1     -11.638   4.656  65.241  1.00  0.00    -1.093 OA 
HETATM   16  H   UNL     1     -11.986   4.023  64.624  1.00  0.00     0.000 HD 
ENDBRANCH  11  14
ENDBRANCH   1  11
TORSDOF 2
ENDMDL
MODEL      116
REMARK 921   NORMALIZED FREE ENERGY PREDICTED BY IDOCK:   -3.00 KCAL/MOL
REMARK 922        TOTAL FREE ENERGY PREDICTED BY IDOCK:   -3.73 KCAL/MOL
REMARK 923 INTER-LIGAND FREE ENERGY PREDICTED BY IDOCK:   -3.29 KCAL/MOL
REMARK 924 INTRA-LIGAND FREE ENERGY PREDICTED BY IDOCK:   -0.44 KCAL/MOL
REMARK 927      BINDING AFFINITY PREDICTED BY RF-SCORE:    0.00 PKD
ROOT
HETATM    1  C   UNL     1     -10.134   9.959  70.091  1.00  0.00    -0.255 C  
HETATM    2  O   UNL     1     -11.563   9.911  70.258  1.00  0.00    -0.254 OA 
HETATM    3  H   UNL     1      -7.958   8.541  72.236  1.00  0.00     0.000 HD 
HETATM    4  C   UNL     1     -11.862   9.214  71.392  1.00  0.00    -0.345 C  
HETATM    5  O   UNL     1      -8.285   9.022  71.485  1.00  0.00    -0.303 OA 
HETATM    6  H   UNL     1      -9.707   7.783  73.608  1.00  0.00     0.000 HD 
HETATM    7  C   UNL     1      -9.623   9.207  71.263  1.00  0.00    -0.261 C  
HETATM    8  O   UNL     1     -10.514   8.069  73.195  1.00  0.00    -0.338 OA 
HETATM    9  C   UNL     1     -10.615   8.772  72.029  1.00  0.00    -0.344 C  
HETATM   10  O   UNL     1     -12.975   8.996  71.840  1.00  0.00    -0.335 OA 
ENDROOT
BRANCH   1  11
HETATM   11  C   UNL     1      -9.725   9.443  68.691  1.00  0.00    -0.152 C  
HETATM   12  H   UNL     1      -8.129   9.502  67.487  1.00  0.00     0.000 HD 
HETATM   13  O   UNL     1      -8.380   9.820  68.346  1.00  0.00    -0.108 OA 
BRANCH  11  14
HETATM   14  C   UNL     1      -9.847   7.926  68.497  1.00  0.00    -0.177 C  
HETATM   15  O   UNL     1     -11.208   7.526  68.354  1.00  0.00    -0.419 OA 
HETATM   16  H   UNL     1     -11.283   6.587  68.233  1.00  0.00     0.000 HD 
ENDBRANCH  11  14
ENDBRANCH   1  11
TORSDOF 2
ENDMDL
MODEL      117
REMARK 921   NORMALIZED FREE ENERGY PREDICTED BY IDOCK:   -2.94 KCAL/MOL
REMARK 922        TOTAL FREE ENERGY PREDICTED BY IDOCK:   -3.67 KCAL/MOL
REMARK 923 INTER-LIGAND FREE ENERGY PREDICTED BY IDOCK:   -3.48 KCAL/MOL
REMARK 924 INTRA-LIGAND FREE ENERGY PREDICTED BY IDOCK:   -0.18 KCAL/MOL
REMARK 927      BINDING AFFINITY PREDICTED BY RF-SCORE:    0.00 PKD
ROOT
HETATM    1  C   UNL     1     -10.839   9.925  67.518  1.00  0.00    -0.243 C  
HETATM    2  O   UNL     1     -10.390   9.203  68.680  1.00  0.00    -0.200 OA 
HETATM    3  H   UNL     1     -12.601  12.792  67.674  1.00  0.00     0.000 HD 
HETATM    4  C   UNL     1     -10.788   9.863  69.804  1.00  0.00    -0.269 C  
HETATM    5  O   UNL     1     -12.144  12.044  67.306  1.00  0.00    -0.572 OA 
HETATM    6  H   UNL     1     -12.590  12.745  70.022  1.00  0.00     0.000 HD 
HETATM    7  C   UNL     1     -11.552  11.093  68.091  1.00  0.00    -0.280 C  
HETATM    8  O   UNL     1     -12.108  11.965  70.272  1.00  0.00    -0.337 OA 
HETATM    9  C   UNL     1     -11.533  11.068  69.418  1.00  0.00    -0.294 C  
HETATM   10  O   UNL     1     -10.591   9.520  70.958  1.00  0.00    -0.297 OA 
ENDROOT
BRANCH   1  11
HETATM   11  C   UNL     1      -9.659  10.221  66.563  1.00  0.00    -0.181 C  
HETATM   12  H   UNL     1      -9.381  10.741  64.652  1.00  0.00     0.000 HD 
HETATM   13  O   UNL     1     -10.105  10.559  65.238  1.00  0.00    -0.279 OA 
BRANCH  11  14
HETATM   14  C   UNL     1      -8.707  11.331  67.030  1.00  0.00    -0.152 C  
HETATM   15  O   UNL     1      -8.442  12.263  65.984  1.00  0.00    -0.377 OA 
HETATM   16  H   UNL     1      -7.853  12.950  66.273  1.00  0.00     0.000 HD 
ENDBRANCH  11  14
ENDBRANCH   1  11
TORSDOF 2
ENDMDL
MODEL      118
REMARK 921   NORMALIZED FREE ENERGY PREDICTED BY IDOCK:   -2.94 KCAL/MOL
REMARK 922        TOTAL FREE ENERGY PREDICTED BY IDOCK:   -3.66 KCAL/MOL
REMARK 923 INTER-LIGAND FREE ENERGY PREDICTED BY IDOCK:   -3.36 KCAL/MOL
REMARK 924 INTRA-LIGAND FREE ENERGY PREDICTED BY IDOCK:   -0.30 KCAL/MOL
REMARK 927      BINDING AFFINITY PREDICTED BY RF-SCORE:    0.00 PKD
ROOT
HETATM    1  C   UNL     1     -10.663   8.289  70.660  1.00  0.00    -0.220 C  
HETATM    2  O   UNL     1      -9.652   8.061  69.659  1.00  0.00    -0.167 OA 
HETATM    3  H   UNL     1     -12.305  11.207  71.018  1.00  0.00     0.000 HD 
HETATM    4  C   UNL     1      -9.491   9.192  68.914  1.00  0.00    -0.151 C  
HETATM    5  O   UNL     1     -12.038  10.309  71.173  1.00  0.00    -0.341 OA 
HETATM    6  H   UNL     1     -11.102  12.175  69.248  1.00  0.00     0.000 HD 
HETATM    7  C   UNL     1     -11.079   9.692  70.417  1.00  0.00    -0.290 C  
HETATM    8  O   UNL     1     -10.511  11.503  68.928  1.00  0.00    -0.208 OA 
HETATM    9  C   UNL     1     -10.405  10.230  69.409  1.00  0.00    -0.235 C  
HETATM   10  O   UNL     1      -8.707   9.353  67.995  1.00  0.00    -0.124 OA 
ENDROOT
BRANCH   1  11
HETATM   11  C   UNL     1     -11.764   7.205  70.586  1.00  0.00    -0.307 C  
HETATM   12  H   UNL     1     -11.988   5.353  69.866  1.00  0.00     0.000 HD 
HETATM   13  O   UNL     1     -11.312   6.018  69.911  1.00  0.00    -0.400 OA 
BRANCH  11  14
HETATM   14  C   UNL     1     -12.345   6.777  71.940  1.00  0.00    -0.326 C  
HETATM   15  O   UNL     1     -12.410   7.872  72.849  1.00  0.00    -0.595 OA 
HETATM   16  H   UNL     1     -12.771   7.607  73.687  1.00  0.00     0.000 HD 
ENDBRANCH  11  14
ENDBRANCH   1  11
TORSDOF 2
ENDMDL
MODEL      119
REMARK 921   NORMALIZED FREE ENERGY PREDICTED BY IDOCK:   -2.89 KCAL/MOL
REMARK 922        TOTAL FREE ENERGY PREDICTED BY IDOCK:   -3.60 KCAL/MOL
REMARK 923 INTER-LIGAND FREE ENERGY PREDICTED BY IDOCK:   -3.36 KCAL/MOL
REMARK 924 INTRA-LIGAND FREE ENERGY PREDICTED BY IDOCK:   -0.25 KCAL/MOL
REMARK 927      BINDING AFFINITY PREDICTED BY RF-SCORE:    0.00 PKD
ROOT
HETATM    1  C   UNL     1     -11.272   7.369  70.511  1.00  0.00    -0.274 C  
HETATM    2  O   UNL     1     -11.836   6.136  70.996  1.00  0.00    -0.236 OA 
HETATM    3  H   UNL     1      -9.451   9.462  72.420  1.00  0.00     0.000 HD 
HETATM    4  C   UNL     1     -11.510   5.977  72.311  1.00  0.00    -0.312 C  
HETATM    5  O   UNL     1      -9.898   9.109  71.660  1.00  0.00    -0.305 OA 
HETATM    6  H   UNL     1      -9.697   8.069  74.294  1.00  0.00     0.000 HD 
HETATM    7  C   UNL     1     -10.574   7.920  71.697  1.00  0.00    -0.221 C  
HETATM    8  O   UNL     1     -10.217   7.327  74.009  1.00  0.00    -0.311 OA 
HETATM    9  C   UNL     1     -10.706   7.124  72.751  1.00  0.00    -0.288 C  
HETATM   10  O   UNL     1     -11.838   5.052  73.035  1.00  0.00    -0.269 OA 
ENDROOT
BRANCH   1  11
HETATM   11  C   UNL     1     -10.420   7.124  69.244  1.00  0.00    -0.211 C  
HETATM   12  H   UNL     1     -10.328   5.809  67.739  1.00  0.00     0.000 HD 
HETATM   13  O   UNL     1     -10.851   5.959  68.518  1.00  0.00    -0.267 OA 
BRANCH  11  14
HETATM   14  C   UNL     1     -10.371   8.296  68.256  1.00  0.00    -0.198 C  
HETATM   15  O   UNL     1     -11.202   9.373  68.683  1.00  0.00    -0.464 OA 
HETATM   16  H   UNL     1     -11.172  10.099  68.071  1.00  0.00     0.000 HD 
ENDBRANCH  11  14
ENDBRANCH   1  11
TORSDOF 2
ENDMDL
MODEL      120
REMARK 921   NORMALIZED FREE ENERGY PREDICTED BY IDOCK:   -2.88 KCAL/MOL
REMARK 922        TOTAL FREE ENERGY PREDICTED BY IDOCK:   -3.60 KCAL/MOL
REMARK 923 INTER-LIGAND FREE ENERGY PREDICTED BY IDOCK:   -3.34 KCAL/MOL
REMARK 924 INTRA-LIGAND FREE ENERGY PREDICTED BY IDOCK:   -0.25 KCAL/MOL
REMARK 927      BINDING AFFINITY PREDICTED BY RF-SCORE:    0.00 PKD
ROOT
HETATM    1  C   UNL     1     -11.058   6.229  68.948  1.00  0.00    -0.362 C  
HETATM    2  O   UNL     1     -11.344   5.886  70.318  1.00  0.00    -0.322 OA 
HETATM    3  H   UNL     1     -10.279   9.343  67.932  1.00  0.00     0.000 HD 
HETATM    4  C   UNL     1     -11.243   7.003  71.093  1.00  0.00    -0.270 C  
HETATM    5  O   UNL     1     -10.459   8.412  67.894  1.00  0.00    -0.219 OA 
HETATM    6  H   UNL     1     -10.485  10.177  70.118  1.00  0.00     0.000 HD 
HETATM    7  C   UNL     1     -10.776   7.684  69.008  1.00  0.00    -0.119 C  
HETATM    8  O   UNL     1     -10.718   9.436  70.666  1.00  0.00    -0.242 OA 
HETATM    9  C   UNL     1     -10.883   8.148  70.246  1.00  0.00    -0.244 C  
HETATM   10  O   UNL     1     -11.436   7.075  72.295  1.00  0.00    -0.258 OA 
ENDROOT
BRANCH   1  11
HETATM   11  C   UNL     1      -9.946   5.320  68.374  1.00  0.00    -0.159 C  
HETATM   12  H   UNL     1      -9.130   3.535  68.761  1.00  0.00     0.000 HD 
HETATM   13  O   UNL     1      -9.812   4.094  69.114  1.00  0.00    -0.167 OA 
BRANCH  11  14
HETATM   14  C   UNL     1     -10.106   4.954  66.893  1.00  0.00    -0.222 C  
HETATM   15  O   UNL     1     -11.190   5.661  66.295  1.00  0.00    -0.759 OA 
HETATM   16  H   UNL     1     -11.289   5.435  65.378  1.00  0.00     0.000 HD 
ENDBRANCH  11  14
ENDBRANCH   1  11
TORSDOF 2
ENDMDL
MODEL      121
REMARK 921   NORMALIZED FREE ENERGY PREDICTED BY IDOCK:   -2.86 KCAL/MOL
REMARK 922        TOTAL FREE ENERGY PREDICTED BY IDOCK:   -3.57 KCAL/MOL
REMARK 923 INTER-LIGAND FREE ENERGY PREDICTED BY IDOCK:   -3.27 KCAL/MOL
REMARK 924 INTRA-LIGAND FREE ENERGY PREDICTED BY IDOCK:   -0.30 KCAL/MOL
REMARK 927      BINDING AFFINITY PREDICTED BY RF-SCORE:    0.00 PKD
ROOT
HETATM    1  C   UNL     1      -9.698  13.564  66.167  1.00  0.00    -0.252 C  
HETATM    2  O   UNL     1      -8.767  12.870  67.019  1.00  0.00    -0.206 OA 
HETATM    3  H   UNL     1     -12.922  12.658  65.804  1.00  0.00     0.000 HD 
HETATM    4  C   UNL     1      -9.402  11.827  67.627  1.00  0.00    -0.180 C  
HETATM    5  O   UNL     1     -12.113  13.144  65.691  1.00  0.00    -0.399 OA 
HETATM    6  H   UNL     1     -12.646  10.851  67.279  1.00  0.00     0.000 HD 
HETATM    7  C   UNL     1     -10.960  12.805  66.344  1.00  0.00    -0.276 C  
HETATM    8  O   UNL     1     -11.740  10.874  67.564  1.00  0.00    -0.543 OA 
HETATM    9  C   UNL     1     -10.802  11.792  67.187  1.00  0.00    -0.258 C  
HETATM   10  O   UNL     1      -8.906  11.024  68.400  1.00  0.00    -0.138 OA 
ENDROOT
BRANCH   1  11
HETATM   11  C   UNL     1      -9.732  15.073  66.502  1.00  0.00    -0.266 C  
HETATM   12  H   UNL     1     -10.647  16.727  65.847  1.00  0.00     0.000 HD 
HETATM   13  O   UNL     1     -10.626  15.800  65.641  1.00  0.00    -0.338 OA 
BRANCH  11  14
HETATM   14  C   UNL     1     -10.107  15.409  67.952  1.00  0.00    -0.226 C  
HETATM   15  O   UNL     1      -9.099  14.978  68.864  1.00  0.00    -0.188 OA 
HETATM   16  H   UNL     1      -9.332  15.186  69.761  1.00  0.00     0.000 HD 
ENDBRANCH  11  14
ENDBRANCH   1  11
TORSDOF 2
ENDMDL
MODEL      122
REMARK 921   NORMALIZED FREE ENERGY PREDICTED BY IDOCK:   -2.85 KCAL/MOL
REMARK 922        TOTAL FREE ENERGY PREDICTED BY IDOCK:   -3.56 KCAL/MOL
REMARK 923 INTER-LIGAND FREE ENERGY PREDICTED BY IDOCK:   -3.38 KCAL/MOL
REMARK 924 INTRA-LIGAND FREE ENERGY PREDICTED BY IDOCK:   -0.18 KCAL/MOL
REMARK 927      BINDING AFFINITY PREDICTED BY RF-SCORE:    0.00 PKD
ROOT
HETATM    1  C   UNL     1      -9.792  13.821  68.027  1.00  0.00    -0.239 C  
HETATM    2  O   UNL     1     -10.449  14.178  69.259  1.00  0.00    -0.180 OA 
HETATM    3  H   UNL     1     -10.615  11.119  66.193  1.00  0.00     0.000 HD 
HETATM    4  C   UNL     1     -11.424  13.264  69.532  1.00  0.00    -0.234 C  
HETATM    5  O   UNL     1     -10.165  11.911  66.463  1.00  0.00    -0.199 OA 
HETATM    6  H   UNL     1     -12.281  10.504  67.730  1.00  0.00     0.000 HD 
HETATM    7  C   UNL     1     -10.496  12.585  67.606  1.00  0.00    -0.217 C  
HETATM    8  O   UNL     1     -12.268  11.162  68.416  1.00  0.00    -0.610 OA 
HETATM    9  C   UNL     1     -11.443  12.248  68.472  1.00  0.00    -0.303 C  
HETATM   10  O   UNL     1     -12.160  13.255  70.504  1.00  0.00    -0.352 OA 
ENDROOT
BRANCH   1  11
HETATM   11  C   UNL     1      -9.799  15.008  67.035  1.00  0.00    -0.238 C  
HETATM   12  H   UNL     1     -11.108  15.964  65.863  1.00  0.00     0.000 HD 
HETATM   13  O   UNL     1     -11.103  15.235  66.472  1.00  0.00    -0.325 OA 
BRANCH  11  14
HETATM   14  C   UNL     1      -9.303  16.340  67.611  1.00  0.00    -0.218 C  
HETATM   15  O   UNL     1      -9.830  17.449  66.888  1.00  0.00    -0.267 OA 
HETATM   16  H   UNL     1      -9.523  18.274  67.245  1.00  0.00     0.000 HD 
ENDBRANCH  11  14
ENDBRANCH   1  11
TORSDOF 2
ENDMDL
MODEL      123
REMARK 921   NORMALIZED FREE ENERGY PREDICTED BY IDOCK:   -2.84 KCAL/MOL
REMARK 922        TOTAL FREE ENERGY PREDICTED BY IDOCK:   -3.55 KCAL/MOL
REMARK 923 INTER-LIGAND FREE ENERGY PREDICTED BY IDOCK:   -3.15 KCAL/MOL
REMARK 924 INTRA-LIGAND FREE ENERGY PREDICTED BY IDOCK:   -0.40 KCAL/MOL
REMARK 927      BINDING AFFINITY PREDICTED BY RF-SCORE:    0.00 PKD
ROOT
HETATM    1  C   UNL     1     -10.517  12.000  67.231  1.00  0.00    -0.218 C  
HETATM    2  O   UNL     1      -9.088  11.880  67.373  1.00  0.00    -0.170 OA 
HETATM    3  H   UNL     1     -12.726  10.283  69.106  1.00  0.00     0.000 HD 
HETATM    4  C   UNL     1      -8.807  10.985  68.363  1.00  0.00    -0.151 C  
HETATM    5  O   UNL     1     -12.387  10.880  68.450  1.00  0.00    -0.477 OA 
HETATM    6  H   UNL     1     -10.995   9.204  70.271  1.00  0.00     0.000 HD 
HETATM    7  C   UNL     1     -11.046  11.068  68.257  1.00  0.00    -0.257 C  
HETATM    8  O   UNL     1     -10.182   9.538  69.911  1.00  0.00    -0.200 OA 
HETATM    9  C   UNL     1     -10.064  10.470  68.920  1.00  0.00    -0.202 C  
HETATM   10  O   UNL     1      -7.699  10.635  68.734  1.00  0.00    -0.100 OA 
ENDROOT
BRANCH   1  11
HETATM   11  C   UNL     1     -10.957  13.480  67.331  1.00  0.00    -0.272 C  
HETATM   12  H   UNL     1     -12.463  14.633  66.696  1.00  0.00     0.000 HD 
HETATM   13  O   UNL     1     -12.192  13.725  66.635  1.00  0.00    -0.426 OA 
BRANCH  11  14
HETATM   14  C   UNL     1     -11.114  14.017  68.759  1.00  0.00    -0.264 C  
HETATM   15  O   UNL     1      -9.850  14.165  69.402  1.00  0.00    -0.410 OA 
HETATM   16  H   UNL     1      -9.947  14.498  70.286  1.00  0.00     0.000 HD 
ENDBRANCH  11  14
ENDBRANCH   1  11
TORSDOF 2
ENDMDL
MODEL      124
REMARK 921   NORMALIZED FREE ENERGY PREDICTED BY IDOCK:   -2.82 KCAL/MOL
REMARK 922        TOTAL FREE ENERGY PREDICTED BY IDOCK:   -3.53 KCAL/MOL
REMARK 923 INTER-LIGAND FREE ENERGY PREDICTED BY IDOCK:   -3.26 KCAL/MOL
REMARK 924 INTRA-LIGAND FREE ENERGY PREDICTED BY IDOCK:   -0.27 KCAL/MOL
REMARK 927      BINDING AFFINITY PREDICTED BY RF-SCORE:    0.00 PKD
ROOT
HETATM    1  C   UNL     1      -9.386  11.939  66.760  1.00  0.00    -0.201 C  
HETATM    2  O   UNL     1     -10.268  12.947  66.228  1.00  0.00    -0.265 OA 
HETATM    3  H   UNL     1     -10.207   9.910  69.319  1.00  0.00     0.000 HD 
HETATM    4  C   UNL     1     -11.443  12.928  66.918  1.00  0.00    -0.341 C  
HETATM    5  O   UNL     1      -9.697  10.305  68.622  1.00  0.00    -0.155 OA 
HETATM    6  H   UNL     1     -12.318  10.920  69.526  1.00  0.00     0.000 HD 
HETATM    7  C   UNL     1     -10.183  11.322  67.848  1.00  0.00    -0.181 C  
HETATM    8  O   UNL     1     -12.359  11.592  68.856  1.00  0.00    -0.400 OA 
HETATM    9  C   UNL     1     -11.379  11.889  67.953  1.00  0.00    -0.291 C  
HETATM   10  O   UNL     1     -12.403  13.659  66.740  1.00  0.00    -0.387 OA 
ENDROOT
BRANCH   1  11
HETATM   11  C   UNL     1      -8.882  11.001  65.638  1.00  0.00    -0.178 C  
HETATM   12  H   UNL     1      -7.399   9.692  65.343  1.00  0.00     0.000 HD 
HETATM   13  O   UNL     1      -7.708  10.268  66.031  1.00  0.00    -0.118 OA 
BRANCH  11  14
HETATM   14  C   UNL     1      -9.913   9.987  65.127  1.00  0.00    -0.280 C  
HETATM   15  O   UNL     1      -9.821   8.750  65.830  1.00  0.00    -0.462 OA 
HETATM   16  H   UNL     1     -10.459   8.122  65.513  1.00  0.00     0.000 HD 
ENDBRANCH  11  14
ENDBRANCH   1  11
TORSDOF 2
ENDMDL
MODEL      125
REMARK 921   NORMALIZED FREE ENERGY PREDICTED BY IDOCK:   -2.81 KCAL/MOL
REMARK 922        TOTAL FREE ENERGY PREDICTED BY IDOCK:   -3.52 KCAL/MOL
REMARK 923 INTER-LIGAND FREE ENERGY PREDICTED BY IDOCK:   -3.38 KCAL/MOL
REMARK 924 INTRA-LIGAND FREE ENERGY PREDICTED BY IDOCK:   -0.14 KCAL/MOL
REMARK 927      BINDING AFFINITY PREDICTED BY RF-SCORE:    0.00 PKD
ROOT
HETATM    1  C   UNL     1     -10.394   7.339  70.927  1.00  0.00    -0.201 C  
HETATM    2  O   UNL     1     -10.854   6.278  70.068  1.00  0.00    -0.260 OA 
HETATM    3  H   UNL     1      -9.435  10.365  69.799  1.00  0.00     0.000 HD 
HETATM    4  C   UNL     1     -10.834   6.705  68.774  1.00  0.00    -0.267 C  
HETATM    5  O   UNL     1      -9.624   9.657  70.404  1.00  0.00    -0.251 OA 
HETATM    6  H   UNL     1      -9.853   9.738  67.574  1.00  0.00     0.000 HD 
HETATM    7  C   UNL     1     -10.099   8.445  69.983  1.00  0.00    -0.192 C  
HETATM    8  O   UNL     1     -10.168   8.842  67.603  1.00  0.00    -0.208 OA 
HETATM    9  C   UNL     1     -10.347   8.089  68.729  1.00  0.00    -0.206 C  
HETATM   10  O   UNL     1     -11.145   6.056  67.789  1.00  0.00    -0.300 OA 
ENDROOT
BRANCH   1  11
HETATM   11  C   UNL     1     -11.421   7.626  72.047  1.00  0.00    -0.283 C  
HETATM   12  H   UNL     1     -12.398   9.197  72.808  1.00  0.00     0.000 HD 
HETATM   13  O   UNL     1     -11.767   9.021  72.121  1.00  0.00    -0.356 OA 
BRANCH  11  14
HETATM   14  C   UNL     1     -12.728   6.828  71.951  1.00  0.00    -0.255 C  
HETATM   15  O   UNL     1     -13.536   7.280  70.868  1.00  0.00    -0.597 OA 
HETATM   16  H   UNL     1     -14.345   6.785  70.808  1.00  0.00     0.000 HD 
ENDBRANCH  11  14
ENDBRANCH   1  11
TORSDOF 2
ENDMDL
MODEL      126
REMARK 921   NORMALIZED FREE ENERGY PREDICTED BY IDOCK:   -2.81 KCAL/MOL
REMARK 922        TOTAL FREE ENERGY PREDICTED BY IDOCK:   -3.52 KCAL/MOL
REMARK 923 INTER-LIGAND FREE ENERGY PREDICTED BY IDOCK:   -3.10 KCAL/MOL
REMARK 924 INTRA-LIGAND FREE ENERGY PREDICTED BY IDOCK:   -0.42 KCAL/MOL
REMARK 927      BINDING AFFINITY PREDICTED BY RF-SCORE:    0.00 PKD
ROOT
HETATM    1  C   UNL     1     -10.429   7.094  70.390  1.00  0.00    -0.218 C  
HETATM    2  O   UNL     1     -11.227   8.254  70.086  1.00  0.00    -0.231 OA 
HETATM    3  H   UNL     1      -7.139   7.230  71.099  1.00  0.00     0.000 HD 
HETATM    4  C   UNL     1     -10.442   9.368  70.137  1.00  0.00    -0.240 C  
HETATM    5  O   UNL     1      -8.005   6.870  70.947  1.00  0.00    -0.097 OA 
HETATM    6  H   UNL     1      -7.111   9.562  70.822  1.00  0.00     0.000 HD 
HETATM    7  C   UNL     1      -9.077   7.657  70.627  1.00  0.00    -0.158 C  
HETATM    8  O   UNL     1      -8.000   9.816  70.600  1.00  0.00    -0.272 OA 
HETATM    9  C   UNL     1      -9.069   8.976  70.481  1.00  0.00    -0.221 C  
HETATM   10  O   UNL     1     -10.792  10.515  69.917  1.00  0.00    -0.269 OA 
ENDROOT
BRANCH   1  11
HETATM   11  C   UNL     1     -11.063   6.276  71.540  1.00  0.00    -0.281 C  
HETATM   12  H   UNL     1     -10.849   4.475  72.383  1.00  0.00     0.000 HD 
HETATM   13  O   UNL     1     -10.461   4.977  71.676  1.00  0.00    -0.207 OA 
BRANCH  11  14
HETATM   14  C   UNL     1     -11.025   6.953  72.917  1.00  0.00    -0.281 C  
HETATM   15  O   UNL     1     -12.011   7.977  73.021  1.00  0.00    -0.626 OA 
HETATM   16  H   UNL     1     -11.988   8.395  73.873  1.00  0.00     0.000 HD 
ENDBRANCH  11  14
ENDBRANCH   1  11
TORSDOF 2
ENDMDL
MODEL      127
REMARK 921   NORMALIZED FREE ENERGY PREDICTED BY IDOCK:   -2.78 KCAL/MOL
REMARK 922        TOTAL FREE ENERGY PREDICTED BY IDOCK:   -3.48 KCAL/MOL
REMARK 923 INTER-LIGAND FREE ENERGY PREDICTED BY IDOCK:   -3.38 KCAL/MOL
REMARK 924 INTRA-LIGAND FREE ENERGY PREDICTED BY IDOCK:   -0.10 KCAL/MOL
REMARK 927      BINDING AFFINITY PREDICTED BY RF-SCORE:    0.00 PKD
ROOT
HETATM    1  C   UNL     1      -9.610  14.415  66.709  1.00  0.00    -0.268 C  
HETATM    2  O   UNL     1      -9.228  13.117  67.200  1.00  0.00    -0.211 OA 
HETATM    3  H   UNL     1      -7.617  17.126  66.861  1.00  0.00     0.000 HD 
HETATM    4  C   UNL     1      -7.966  13.181  67.712  1.00  0.00    -0.162 C  
HETATM    5  O   UNL     1      -8.378  16.587  66.679  1.00  0.00    -0.204 OA 
HETATM    6  H   UNL     1      -5.917  15.895  67.916  1.00  0.00     0.000 HD 
HETATM    7  C   UNL     1      -8.422  15.256  66.993  1.00  0.00    -0.228 C  
HETATM    8  O   UNL     1      -6.244  15.007  68.002  1.00  0.00    -0.125 OA 
HETATM    9  C   UNL     1      -7.461  14.554  67.579  1.00  0.00    -0.194 C  
HETATM   10  O   UNL     1      -7.340  12.269  68.225  1.00  0.00    -0.092 OA 
ENDROOT
BRANCH   1  11
HETATM   11  C   UNL     1     -10.077  14.332  65.236  1.00  0.00    -0.349 C  
HETATM   12  H   UNL     1     -10.975  13.014  64.029  1.00  0.00     0.000 HD 
HETATM   13  O   UNL     1     -10.688  13.066  64.933  1.00  0.00    -0.302 OA 
BRANCH  11  14
HETATM   14  C   UNL     1     -11.050  15.434  64.799  1.00  0.00    -0.403 C  
HETATM   15  O   UNL     1     -11.982  14.954  63.834  1.00  0.00    -0.847 OA 
HETATM   16  H   UNL     1     -12.585  15.636  63.563  1.00  0.00     0.000 HD 
ENDBRANCH  11  14
ENDBRANCH   1  11
TORSDOF 2
ENDMDL
MODEL      128
REMARK 921   NORMALIZED FREE ENERGY PREDICTED BY IDOCK:   -2.78 KCAL/MOL
REMARK 922        TOTAL FREE ENERGY PREDICTED BY IDOCK:   -3.48 KCAL/MOL
REMARK 923 INTER-LIGAND FREE ENERGY PREDICTED BY IDOCK:   -3.15 KCAL/MOL
REMARK 924 INTRA-LIGAND FREE ENERGY PREDICTED BY IDOCK:   -0.33 KCAL/MOL
REMARK 927      BINDING AFFINITY PREDICTED BY RF-SCORE:    0.00 PKD
ROOT
HETATM    1  C   UNL     1     -11.096   6.447  69.129  1.00  0.00    -0.365 C  
HETATM    2  O   UNL     1     -10.249   5.284  69.058  1.00  0.00    -0.203 OA 
HETATM    3  H   UNL     1     -12.461   7.585  71.990  1.00  0.00     0.000 HD 
HETATM    4  C   UNL     1     -10.105   4.754  70.306  1.00  0.00    -0.234 C  
HETATM    5  O   UNL     1     -12.243   7.526  71.067  1.00  0.00    -0.309 OA 
HETATM    6  H   UNL     1     -11.480   5.845  73.225  1.00  0.00     0.000 HD 
HETATM    7  C   UNL     1     -11.436   6.540  70.570  1.00  0.00    -0.387 C  
HETATM    8  O   UNL     1     -10.985   5.323  72.604  1.00  0.00    -0.238 OA 
HETATM    9  C   UNL     1     -10.870   5.561  71.265  1.00  0.00    -0.180 C  
HETATM   10  O   UNL     1      -9.468   3.758  70.604  1.00  0.00    -0.142 OA 
ENDROOT
BRANCH   1  11
HETATM   11  C   UNL     1     -10.402   7.674  68.490  1.00  0.00    -0.198 C  
HETATM   12  H   UNL     1      -8.560   8.441  68.350  1.00  0.00     0.000 HD 
HETATM   13  O   UNL     1      -8.986   7.688  68.743  1.00  0.00    -0.134 OA 
BRANCH  11  14
HETATM   14  C   UNL     1     -10.606   7.820  66.976  1.00  0.00    -0.326 C  
HETATM   15  O   UNL     1     -10.392   6.583  66.300  1.00  0.00    -0.436 OA 
HETATM   16  H   UNL     1     -10.518   6.674  65.363  1.00  0.00     0.000 HD 
ENDBRANCH  11  14
ENDBRANCH   1  11
TORSDOF 2
ENDMDL
MODEL      129
REMARK 921   NORMALIZED FREE ENERGY PREDICTED BY IDOCK:   -2.75 KCAL/MOL
REMARK 922        TOTAL FREE ENERGY PREDICTED BY IDOCK:   -3.45 KCAL/MOL
REMARK 923 INTER-LIGAND FREE ENERGY PREDICTED BY IDOCK:   -3.10 KCAL/MOL
REMARK 924 INTRA-LIGAND FREE ENERGY PREDICTED BY IDOCK:   -0.35 KCAL/MOL
REMARK 927      BINDING AFFINITY PREDICTED BY RF-SCORE:    0.00 PKD
ROOT
HETATM    1  C   UNL     1     -11.112   5.873  70.787  1.00  0.00    -0.254 C  
HETATM    2  O   UNL     1     -11.686   6.533  69.643  1.00  0.00    -0.357 OA 
HETATM    3  H   UNL     1      -8.537   3.711  70.591  1.00  0.00     0.000 HD 
HETATM    4  C   UNL     1     -11.025   6.142  68.517  1.00  0.00    -0.320 C  
HETATM    5  O   UNL     1      -9.229   4.242  70.967  1.00  0.00    -0.122 OA 
HETATM    6  H   UNL     1      -8.436   3.944  68.257  1.00  0.00     0.000 HD 
HETATM    7  C   UNL     1     -10.031   5.044  70.201  1.00  0.00    -0.258 C  
HETATM    8  O   UNL     1      -9.118   4.562  68.020  1.00  0.00    -0.112 OA 
HETATM    9  C   UNL     1      -9.971   5.188  68.883  1.00  0.00    -0.175 C  
HETATM   10  O   UNL     1     -11.262   6.495  67.374  1.00  0.00    -0.359 OA 
ENDROOT
BRANCH   1  11
HETATM   11  C   UNL     1     -10.703   6.901  71.868  1.00  0.00    -0.218 C  
HETATM   12  H   UNL     1      -9.496   8.488  72.037  1.00  0.00     0.000 HD 
HETATM   13  O   UNL     1      -9.748   7.856  71.374  1.00  0.00    -0.161 OA 
BRANCH  11  14
HETATM   14  C   UNL     1     -11.864   7.686  72.492  1.00  0.00    -0.263 C  
HETATM   15  O   UNL     1     -13.090   6.964  72.400  1.00  0.00    -0.501 OA 
HETATM   16  H   UNL     1     -13.809   7.449  72.786  1.00  0.00     0.000 HD 
ENDBRANCH  11  14
ENDBRANCH   1  11
TORSDOF 2
ENDMDL
MODEL      130
REMARK 921   NORMALIZED FREE ENERGY PREDICTED BY IDOCK:   -2.73 KCAL/MOL
REMARK 922        TOTAL FREE ENERGY PREDICTED BY IDOCK:   -3.43 KCAL/MOL
REMARK 923 INTER-LIGAND FREE ENERGY PREDICTED BY IDOCK:   -3.08 KCAL/MOL
REMARK 924 INTRA-LIGAND FREE ENERGY PREDICTED BY IDOCK:   -0.35 KCAL/MOL
REMARK 927      BINDING AFFINITY PREDICTED BY RF-SCORE:    0.00 PKD
ROOT
HETATM    1  C   UNL     1     -10.375  12.461  66.345  1.00  0.00    -0.234 C  
HETATM    2  O   UNL     1      -9.850  13.779  66.598  1.00  0.00    -0.267 OA 
HETATM    3  H   UNL     1      -9.091   9.655  67.695  1.00  0.00     0.000 HD 
HETATM    4  C   UNL     1      -8.788  13.686  67.447  1.00  0.00    -0.221 C  
HETATM    5  O   UNL     1      -9.655  10.220  67.180  1.00  0.00    -0.162 OA 
HETATM    6  H   UNL     1      -7.433  10.880  68.820  1.00  0.00     0.000 HD 
HETATM    7  C   UNL     1      -9.494  11.578  67.148  1.00  0.00    -0.177 C  
HETATM    8  O   UNL     1      -7.577  11.792  68.598  1.00  0.00    -0.121 OA 
HETATM    9  C   UNL     1      -8.566  12.276  67.791  1.00  0.00    -0.170 C  
HETATM   10  O   UNL     1      -8.101  14.607  67.856  1.00  0.00    -0.126 OA 
ENDROOT
BRANCH   1  11
HETATM   11  C   UNL     1     -11.891  12.404  66.647  1.00  0.00    -0.325 C  
HETATM   12  H   UNL     1     -13.094  11.843  68.143  1.00  0.00     0.000 HD 
HETATM   13  O   UNL     1     -12.163  11.878  67.957  1.00  0.00    -0.491 OA 
BRANCH  11  14
HETATM   14  C   UNL     1     -12.629  13.743  66.521  1.00  0.00    -0.194 C  
HETATM   15  O   UNL     1     -12.429  14.559  67.673  1.00  0.00    -0.595 OA 
HETATM   16  H   UNL     1     -12.886  15.388  67.595  1.00  0.00     0.000 HD 
ENDBRANCH  11  14
ENDBRANCH   1  11
TORSDOF 2
ENDMDL
MODEL      131
REMARK 921   NORMALIZED FREE ENERGY PREDICTED BY IDOCK:   -2.73 KCAL/MOL
REMARK 922        TOTAL FREE ENERGY PREDICTED BY IDOCK:   -3.43 KCAL/MOL
REMARK 923 INTER-LIGAND FREE ENERGY PREDICTED BY IDOCK:   -3.04 KCAL/MOL
REMARK 924 INTRA-LIGAND FREE ENERGY PREDICTED BY IDOCK:   -0.39 KCAL/MOL
REMARK 927      BINDING AFFINITY PREDICTED BY RF-SCORE:    0.00 PKD
ROOT
HETATM    1  C   UNL     1     -10.071   9.785  66.066  1.00  0.00    -0.251 C  
HETATM    2  O   UNL     1     -10.764  10.484  67.118  1.00  0.00    -0.256 OA 
HETATM    3  H   UNL     1      -9.884  10.905  62.895  1.00  0.00     0.000 HD 
HETATM    4  C   UNL     1     -11.304  11.632  66.618  1.00  0.00    -0.270 C  
HETATM    5  O   UNL     1      -9.758  10.345  63.653  1.00  0.00    -0.296 OA 
HETATM    6  H   UNL     1     -11.169  12.799  63.421  1.00  0.00     0.000 HD 
HETATM    7  C   UNL     1     -10.267  10.658  64.884  1.00  0.00    -0.324 C  
HETATM    8  O   UNL     1     -11.376  12.734  64.347  1.00  0.00    -0.313 OA 
HETATM    9  C   UNL     1     -10.984  11.733  65.189  1.00  0.00    -0.294 C  
HETATM   10  O   UNL     1     -11.968  12.450  67.231  1.00  0.00    -0.516 OA 
ENDROOT
BRANCH   1  11
HETATM   11  C   UNL     1      -8.612   9.476  66.478  1.00  0.00    -0.134 C  
HETATM   12  H   UNL     1      -6.952  10.483  66.957  1.00  0.00     0.000 HD 
HETATM   13  O   UNL     1      -7.848  10.673  66.703  1.00  0.00    -0.123 OA 
BRANCH  11  14
HETATM   14  C   UNL     1      -8.462   8.587  67.720  1.00  0.00    -0.130 C  
HETATM   15  O   UNL     1      -8.896   9.262  68.899  1.00  0.00    -0.132 OA 
HETATM   16  H   UNL     1      -8.803   8.712  69.667  1.00  0.00     0.000 HD 
ENDBRANCH  11  14
ENDBRANCH   1  11
TORSDOF 2
ENDMDL
MODEL      132
REMARK 921   NORMALIZED FREE ENERGY PREDICTED BY IDOCK:   -2.71 KCAL/MOL
REMARK 922        TOTAL FREE ENERGY PREDICTED BY IDOCK:   -3.40 KCAL/MOL
REMARK 923 INTER-LIGAND FREE ENERGY PREDICTED BY IDOCK:   -3.27 KCAL/MOL
REMARK 924 INTRA-LIGAND FREE ENERGY PREDICTED BY IDOCK:   -0.13 KCAL/MOL
REMARK 927      BINDING AFFINITY PREDICTED BY RF-SCORE:    0.00 PKD
ROOT
HETATM    1  C   UNL     1     -10.352  11.278  68.513  1.00  0.00    -0.203 C  
HETATM    2  O   UNL     1     -10.105  11.039  67.114  1.00  0.00    -0.184 OA 
HETATM    3  H   UNL     1     -12.295  13.778  69.660  1.00  0.00     0.000 HD 
HETATM    4  C   UNL     1     -10.775  11.966  66.372  1.00  0.00    -0.266 C  
HETATM    5  O   UNL     1     -11.721  13.021  69.663  1.00  0.00    -0.296 OA 
HETATM    6  H   UNL     1     -12.730  14.527  67.477  1.00  0.00     0.000 HD 
HETATM    7  C   UNL     1     -11.248  12.460  68.508  1.00  0.00    -0.279 C  
HETATM    8  O   UNL     1     -12.261  13.941  66.895  1.00  0.00    -0.424 OA 
HETATM    9  C   UNL     1     -11.499  12.872  67.272  1.00  0.00    -0.336 C  
HETATM   10  O   UNL     1     -10.773  12.065  65.157  1.00  0.00    -0.270 OA 
ENDROOT
BRANCH   1  11
HETATM   11  C   UNL     1     -10.877   9.999  69.206  1.00  0.00    -0.230 C  
HETATM   12  H   UNL     1     -11.139   8.065  68.768  1.00  0.00     0.000 HD 
HETATM   13  O   UNL     1     -10.817   8.851  68.342  1.00  0.00    -0.125 OA 
BRANCH  11  14
HETATM   14  C   UNL     1     -10.169   9.632  70.517  1.00  0.00    -0.287 C  
HETATM   15  O   UNL     1     -11.098   9.492  71.589  1.00  0.00    -0.371 OA 
HETATM   16  H   UNL     1     -10.659   9.265  72.401  1.00  0.00     0.000 HD 
ENDBRANCH  11  14
ENDBRANCH   1  11
TORSDOF 2
ENDMDL
MODEL      133
REMARK 921   NORMALIZED FREE ENERGY PREDICTED BY IDOCK:   -2.69 KCAL/MOL
REMARK 922        TOTAL FREE ENERGY PREDICTED BY IDOCK:   -3.38 KCAL/MOL
REMARK 923 INTER-LIGAND FREE ENERGY PREDICTED BY IDOCK:   -3.11 KCAL/MOL
REMARK 924 INTRA-LIGAND FREE ENERGY PREDICTED BY IDOCK:   -0.27 KCAL/MOL
REMARK 927      BINDING AFFINITY PREDICTED BY RF-SCORE:    0.00 PKD
ROOT
HETATM    1  C   UNL     1     -10.966  10.312  69.151  1.00  0.00    -0.238 C  
HETATM    2  O   UNL     1     -10.852   8.918  69.496  1.00  0.00    -0.225 OA 
HETATM    3  H   UNL     1     -12.696  12.547  70.984  1.00  0.00     0.000 HD 
HETATM    4  C   UNL     1     -11.539   8.680  70.649  1.00  0.00    -0.200 C  
HETATM    5  O   UNL     1     -12.159  12.190  70.286  1.00  0.00    -0.339 OA 
HETATM    6  H   UNL     1     -13.323  10.892  72.527  1.00  0.00     0.000 HD 
HETATM    7  C   UNL     1     -11.805  10.870  70.241  1.00  0.00    -0.361 C  
HETATM    8  O   UNL     1     -12.930  10.082  72.225  1.00  0.00    -0.389 OA 
HETATM    9  C   UNL     1     -12.147   9.933  71.116  1.00  0.00    -0.374 C  
HETATM   10  O   UNL     1     -11.664   7.607  71.214  1.00  0.00    -0.273 OA 
ENDROOT
BRANCH   1  11
HETATM   11  C   UNL     1      -9.570  10.945  68.944  1.00  0.00    -0.181 C  
HETATM   12  H   UNL     1      -7.731  10.360  68.417  1.00  0.00     0.000 HD 
HETATM   13  O   UNL     1      -8.589   9.972  68.545  1.00  0.00    -0.113 OA 
BRANCH  11  14
HETATM   14  C   UNL     1      -9.522  12.097  67.932  1.00  0.00    -0.195 C  
HETATM   15  O   UNL     1     -10.826  12.435  67.465  1.00  0.00    -0.225 OA 
HETATM   16  H   UNL     1     -10.796  13.148  66.838  1.00  0.00     0.000 HD 
ENDBRANCH  11  14
ENDBRANCH   1  11
TORSDOF 2
ENDMDL
MODEL      134
REMARK 921   NORMALIZED FREE ENERGY PREDICTED BY IDOCK:   -2.68 KCAL/MOL
REMARK 922        TOTAL FREE ENERGY PREDICTED BY IDOCK:   -3.37 KCAL/MOL
REMARK 923 INTER-LIGAND FREE ENERGY PREDICTED BY IDOCK:   -3.02 KCAL/MOL
REMARK 924 INTRA-LIGAND FREE ENERGY PREDICTED BY IDOCK:   -0.35 KCAL/MOL
REMARK 927      BINDING AFFINITY PREDICTED BY RF-SCORE:    0.00 PKD
ROOT
HETATM    1  C   UNL     1     -10.673   9.821  69.125  1.00  0.00    -0.221 C  
HETATM    2  O   UNL     1     -10.929  11.208  69.418  1.00  0.00    -0.238 OA 
HETATM    3  H   UNL     1     -10.290   8.619  66.002  1.00  0.00     0.000 HD 
HETATM    4  C   UNL     1     -10.982  11.914  68.253  1.00  0.00    -0.230 C  
HETATM    5  O   UNL     1     -10.348   8.637  66.950  1.00  0.00    -0.280 OA 
HETATM    6  H   UNL     1     -10.629  10.749  65.072  1.00  0.00     0.000 HD 
HETATM    7  C   UNL     1     -10.582   9.792  67.644  1.00  0.00    -0.276 C  
HETATM    8  O   UNL     1     -10.770  11.340  65.802  1.00  0.00    -0.263 OA 
HETATM    9  C   UNL     1     -10.763  11.000  67.125  1.00  0.00    -0.265 C  
HETATM   10  O   UNL     1     -11.198  13.108  68.135  1.00  0.00    -0.244 OA 
ENDROOT
BRANCH   1  11
HETATM   11  C   UNL     1      -9.446   9.308  69.915  1.00  0.00    -0.197 C  
HETATM   12  H   UNL     1      -7.586   9.910  70.337  1.00  0.00     0.000 HD 
HETATM   13  O   UNL     1      -8.339  10.225  69.852  1.00  0.00    -0.143 OA 
BRANCH  11  14
HETATM   14  C   UNL     1      -9.709   8.998  71.394  1.00  0.00    -0.299 C  
HETATM   15  O   UNL     1     -11.056   9.289  71.756  1.00  0.00    -0.364 OA 
HETATM   16  H   UNL     1     -11.219   9.097  72.672  1.00  0.00     0.000 HD 
ENDBRANCH  11  14
ENDBRANCH   1  11
TORSDOF 2
ENDMDL
MODEL      135
REMARK 921   NORMALIZED FREE ENERGY PREDICTED BY IDOCK:   -2.66 KCAL/MOL
REMARK 922        TOTAL FREE ENERGY PREDICTED BY IDOCK:   -3.35 KCAL/MOL
REMARK 923 INTER-LIGAND FREE ENERGY PREDICTED BY IDOCK:   -2.97 KCAL/MOL
REMARK 924 INTRA-LIGAND FREE ENERGY PREDICTED BY IDOCK:   -0.38 KCAL/MOL
REMARK 927      BINDING AFFINITY PREDICTED BY RF-SCORE:    0.00 PKD
ROOT
HETATM    1  C   UNL     1     -11.005   6.175  67.969  1.00  0.00    -0.305 C  
HETATM    2  O   UNL     1     -10.858   7.574  67.661  1.00  0.00    -0.208 OA 
HETATM    3  H   UNL     1      -9.216   3.743  66.476  1.00  0.00     0.000 HD 
HETATM    4  C   UNL     1      -9.903   7.728  66.700  1.00  0.00    -0.225 C  
HETATM    5  O   UNL     1      -9.846   4.163  67.050  1.00  0.00    -0.212 OA 
HETATM    6  H   UNL     1      -8.084   5.308  65.140  1.00  0.00     0.000 HD 
HETATM    7  C   UNL     1     -10.022   5.519  67.073  1.00  0.00    -0.174 C  
HETATM    8  O   UNL     1      -8.425   6.161  65.381  1.00  0.00    -0.148 OA 
HETATM    9  C   UNL     1      -9.377   6.408  66.328  1.00  0.00    -0.118 C  
HETATM   10  O   UNL     1      -9.540   8.777  66.197  1.00  0.00    -0.237 OA 
ENDROOT
BRANCH   1  11
HETATM   11  C   UNL     1     -10.849   5.925  69.487  1.00  0.00    -0.372 C  
HETATM   12  H   UNL     1      -9.430   6.088  70.888  1.00  0.00     0.000 HD 
HETATM   13  O   UNL     1      -9.526   6.241  69.955  1.00  0.00    -0.153 OA 
BRANCH  11  14
HETATM   14  C   UNL     1     -11.848   6.678  70.376  1.00  0.00    -0.346 C  
HETATM   15  O   UNL     1     -11.682   8.089  70.268  1.00  0.00    -0.475 OA 
HETATM   16  H   UNL     1     -12.300   8.555  70.818  1.00  0.00     0.000 HD 
ENDBRANCH  11  14
ENDBRANCH   1  11
TORSDOF 2
ENDMDL
MODEL      136
REMARK 921   NORMALIZED FREE ENERGY PREDICTED BY IDOCK:   -2.65 KCAL/MOL
REMARK 922        TOTAL FREE ENERGY PREDICTED BY IDOCK:   -3.34 KCAL/MOL
REMARK 923 INTER-LIGAND FREE ENERGY PREDICTED BY IDOCK:   -3.15 KCAL/MOL
REMARK 924 INTRA-LIGAND FREE ENERGY PREDICTED BY IDOCK:   -0.19 KCAL/MOL
REMARK 927      BINDING AFFINITY PREDICTED BY RF-SCORE:    0.00 PKD
ROOT
HETATM    1  C   UNL     1     -10.881  11.229  67.535  1.00  0.00    -0.245 C  
HETATM    2  O   UNL     1     -11.296  11.599  68.863  1.00  0.00    -0.219 OA 
HETATM    3  H   UNL     1     -11.333  13.184  64.830  1.00  0.00     0.000 HD 
HETATM    4  C   UNL     1     -11.877  12.832  68.827  1.00  0.00    -0.307 C  
HETATM    5  O   UNL     1     -11.072  12.439  65.358  1.00  0.00    -0.288 OA 
HETATM    6  H   UNL     1     -12.383  14.839  66.122  1.00  0.00     0.000 HD 
HETATM    7  C   UNL     1     -11.287  12.392  66.709  1.00  0.00    -0.335 C  
HETATM    8  O   UNL     1     -12.387  14.518  67.017  1.00  0.00    -0.299 OA 
HETATM    9  C   UNL     1     -11.870  13.329  67.446  1.00  0.00    -0.366 C  
HETATM   10  O   UNL     1     -12.354  13.440  69.771  1.00  0.00    -0.261 OA 
ENDROOT
BRANCH   1  11
HETATM   11  C   UNL     1      -9.384  10.840  67.514  1.00  0.00    -0.147 C  
HETATM   12  H   UNL     1      -8.095   9.936  66.280  1.00  0.00     0.000 HD 
HETATM   13  O   UNL     1      -9.014  10.174  66.294  1.00  0.00    -0.145 OA 
BRANCH  11  14
HETATM   14  C   UNL     1      -8.406  12.004  67.723  1.00  0.00    -0.156 C  
HETATM   15  O   UNL     1      -7.879  12.471  66.483  1.00  0.00    -0.383 OA 
HETATM   16  H   UNL     1      -7.274  13.192  66.613  1.00  0.00     0.000 HD 
ENDBRANCH  11  14
ENDBRANCH   1  11
TORSDOF 2
ENDMDL
MODEL      137
REMARK 921   NORMALIZED FREE ENERGY PREDICTED BY IDOCK:   -2.65 KCAL/MOL
REMARK 922        TOTAL FREE ENERGY PREDICTED BY IDOCK:   -3.34 KCAL/MOL
REMARK 923 INTER-LIGAND FREE ENERGY PREDICTED BY IDOCK:   -3.01 KCAL/MOL
REMARK 924 INTRA-LIGAND FREE ENERGY PREDICTED BY IDOCK:   -0.32 KCAL/MOL
REMARK 927      BINDING AFFINITY PREDICTED BY RF-SCORE:    0.00 PKD
ROOT
HETATM    1  C   UNL     1     -11.577  13.152  67.073  1.00  0.00    -0.359 C  
HETATM    2  O   UNL     1     -10.496  13.136  66.121  1.00  0.00    -0.272 OA 
HETATM    3  H   UNL     1     -12.036  10.770  69.409  1.00  0.00     0.000 HD 
HETATM    4  C   UNL     1      -9.725  12.032  66.332  1.00  0.00    -0.225 C  
HETATM    5  O   UNL     1     -12.180  11.558  68.898  1.00  0.00    -0.415 OA 
HETATM    6  H   UNL     1     -10.155   9.581  68.658  1.00  0.00     0.000 HD 
HETATM    7  C   UNL     1     -11.352  11.922  67.871  1.00  0.00    -0.291 C  
HETATM    8  O   UNL     1      -9.794  10.080  67.934  1.00  0.00    -0.142 OA 
HETATM    9  C   UNL     1     -10.282  11.260  67.450  1.00  0.00    -0.188 C  
HETATM   10  O   UNL     1      -8.739  11.701  65.696  1.00  0.00    -0.045 OA 
ENDROOT
BRANCH   1  11
HETATM   11  C   UNL     1     -11.614  14.493  67.842  1.00  0.00    -0.344 C  
HETATM   12  H   UNL     1     -11.057  15.205  69.626  1.00  0.00     0.000 HD 
HETATM   13  O   UNL     1     -11.034  14.382  69.154  1.00  0.00    -0.253 OA 
BRANCH  11  14
HETATM   14  C   UNL     1     -10.934  15.670  67.131  1.00  0.00    -0.270 C  
HETATM   15  O   UNL     1      -9.513  15.580  67.217  1.00  0.00    -0.209 OA 
HETATM   16  H   UNL     1      -9.092  16.308  66.777  1.00  0.00     0.000 HD 
ENDBRANCH  11  14
ENDBRANCH   1  11
TORSDOF 2
ENDMDL
MODEL      138
REMARK 921   NORMALIZED FREE ENERGY PREDICTED BY IDOCK:   -2.64 KCAL/MOL
REMARK 922        TOTAL FREE ENERGY PREDICTED BY IDOCK:   -3.32 KCAL/MOL
REMARK 923 INTER-LIGAND FREE ENERGY PREDICTED BY IDOCK:   -3.03 KCAL/MOL
REMARK 924 INTRA-LIGAND FREE ENERGY PREDICTED BY IDOCK:   -0.29 KCAL/MOL
REMARK 927      BINDING AFFINITY PREDICTED BY RF-SCORE:    0.00 PKD
ROOT
HETATM    1  C   UNL     1     -10.414  10.186  69.709  1.00  0.00    -0.263 C  
HETATM    2  O   UNL     1     -11.509   9.399  70.215  1.00  0.00    -0.244 OA 
HETATM    3  H   UNL     1      -7.391   8.904  68.960  1.00  0.00     0.000 HD 
HETATM    4  C   UNL     1     -11.117   8.098  70.328  1.00  0.00    -0.221 C  
HETATM    5  O   UNL     1      -8.087   9.540  69.070  1.00  0.00    -0.094 OA 
HETATM    6  H   UNL     1      -8.071   6.752  69.612  1.00  0.00     0.000 HD 
HETATM    7  C   UNL     1      -9.326   9.192  69.537  1.00  0.00    -0.163 C  
HETATM    8  O   UNL     1      -8.976   6.831  69.891  1.00  0.00    -0.144 OA 
HETATM    9  C   UNL     1      -9.719   7.977  69.895  1.00  0.00    -0.180 C  
HETATM   10  O   UNL     1     -11.790   7.168  70.739  1.00  0.00    -0.325 OA 
ENDROOT
BRANCH   1  11
HETATM   11  C   UNL     1     -10.842  10.985  68.456  1.00  0.00    -0.213 C  
HETATM   12  H   UNL     1     -12.531  11.650  67.616  1.00  0.00     0.000 HD 
HETATM   13  O   UNL     1     -12.268  11.159  68.386  1.00  0.00    -0.610 OA 
BRANCH  11  14
HETATM   14  C   UNL     1     -10.197  12.369  68.315  1.00  0.00    -0.229 C  
HETATM   15  O   UNL     1      -8.808  12.332  68.634  1.00  0.00    -0.345 OA 
HETATM   16  H   UNL     1      -8.408  13.189  68.547  1.00  0.00     0.000 HD 
ENDBRANCH  11  14
ENDBRANCH   1  11
TORSDOF 2
ENDMDL
MODEL      139
REMARK 921   NORMALIZED FREE ENERGY PREDICTED BY IDOCK:   -2.63 KCAL/MOL
REMARK 922        TOTAL FREE ENERGY PREDICTED BY IDOCK:   -3.32 KCAL/MOL
REMARK 923 INTER-LIGAND FREE ENERGY PREDICTED BY IDOCK:   -2.89 KCAL/MOL
REMARK 924 INTRA-LIGAND FREE ENERGY PREDICTED BY IDOCK:   -0.43 KCAL/MOL
REMARK 927      BINDING AFFINITY PREDICTED BY RF-SCORE:    0.00 PKD
ROOT
HETATM    1  C   UNL     1     -10.645   9.559  68.710  1.00  0.00    -0.214 C  
HETATM    2  O   UNL     1     -10.994   8.739  69.842  1.00  0.00    -0.239 OA 
HETATM    3  H   UNL     1     -11.356  12.845  68.502  1.00  0.00     0.000 HD 
HETATM    4  C   UNL     1     -11.633   9.503  70.773  1.00  0.00    -0.308 C  
HETATM    5  O   UNL     1     -11.029  11.986  68.262  1.00  0.00    -0.208 OA 
HETATM    6  H   UNL     1     -12.401  12.817  70.605  1.00  0.00     0.000 HD 
HETATM    7  C   UNL     1     -11.157  10.900  69.085  1.00  0.00    -0.245 C  
HETATM    8  O   UNL     1     -12.334  11.925  70.925  1.00  0.00    -0.373 OA 
HETATM    9  C   UNL     1     -11.736  10.882  70.279  1.00  0.00    -0.347 C  
HETATM   10  O   UNL     1     -12.079   9.124  71.843  1.00  0.00    -0.349 OA 
ENDROOT
BRANCH   1  11
HETATM   11  C   UNL     1      -9.136   9.446  68.392  1.00  0.00    -0.128 C  
HETATM   12  H   UNL     1      -7.892   9.883  66.888  1.00  0.00     0.000 HD 
HETATM   13  O   UNL     1      -8.819   9.953  67.084  1.00  0.00    -0.137 OA 
BRANCH  11  14
HETATM   14  C   UNL     1      -8.206  10.137  69.397  1.00  0.00    -0.166 C  
HETATM   15  O   UNL     1      -8.182   9.447  70.644  1.00  0.00    -0.176 OA 
HETATM   16  H   UNL     1      -7.605   9.875  71.267  1.00  0.00     0.000 HD 
ENDBRANCH  11  14
ENDBRANCH   1  11
TORSDOF 2
ENDMDL
MODEL      140
REMARK 921   NORMALIZED FREE ENERGY PREDICTED BY IDOCK:   -2.63 KCAL/MOL
REMARK 922        TOTAL FREE ENERGY PREDICTED BY IDOCK:   -3.32 KCAL/MOL
REMARK 923 INTER-LIGAND FREE ENERGY PREDICTED BY IDOCK:   -2.92 KCAL/MOL
REMARK 924 INTRA-LIGAND FREE ENERGY PREDICTED BY IDOCK:   -0.40 KCAL/MOL
REMARK 927      BINDING AFFINITY PREDICTED BY RF-SCORE:    0.00 PKD
ROOT
HETATM    1  C   UNL     1      -9.495   6.177  70.536  1.00  0.00    -0.164 C  
HETATM    2  O   UNL     1      -8.956   7.478  70.235  1.00  0.00    -0.146 OA 
HETATM    3  H   UNL     1      -9.942   5.024  73.669  1.00  0.00     0.000 HD 
HETATM    4  C   UNL     1      -8.674   8.130  71.399  1.00  0.00    -0.145 C  
HETATM    5  O   UNL     1      -9.940   5.049  72.719  1.00  0.00    -0.156 OA 
HETATM    6  H   UNL     1      -9.080   7.006  74.589  1.00  0.00     0.000 HD 
HETATM    7  C   UNL     1      -9.498   6.138  72.019  1.00  0.00    -0.152 C  
HETATM    8  O   UNL     1      -8.856   7.566  73.855  1.00  0.00    -0.201 OA 
HETATM    9  C   UNL     1      -9.021   7.264  72.533  1.00  0.00    -0.127 C  
HETATM   10  O   UNL     1      -8.191   9.244  71.511  1.00  0.00    -0.327 OA 
ENDROOT
BRANCH   1  11
HETATM   11  C   UNL     1     -10.852   5.965  69.824  1.00  0.00    -0.377 C  
HETATM   12  H   UNL     1     -12.758   6.528  70.049  1.00  0.00     0.000 HD 
HETATM   13  O   UNL     1     -11.925   6.657  70.486  1.00  0.00    -0.400 OA 
BRANCH  11  14
HETATM   14  C   UNL     1     -10.881   6.371  68.345  1.00  0.00    -0.311 C  
HETATM   15  O   UNL     1     -10.807   7.786  68.191  1.00  0.00    -0.417 OA 
HETATM   16  H   UNL     1     -10.824   8.037  67.275  1.00  0.00     0.000 HD 
ENDBRANCH  11  14
ENDBRANCH   1  11
TORSDOF 2
ENDMDL
MODEL      141
REMARK 921   NORMALIZED FREE ENERGY PREDICTED BY IDOCK:   -2.56 KCAL/MOL
REMARK 922        TOTAL FREE ENERGY PREDICTED BY IDOCK:   -3.24 KCAL/MOL
REMARK 923 INTER-LIGAND FREE ENERGY PREDICTED BY IDOCK:   -2.82 KCAL/MOL
REMARK 924 INTRA-LIGAND FREE ENERGY PREDICTED BY IDOCK:   -0.42 KCAL/MOL
REMARK 927      BINDING AFFINITY PREDICTED BY RF-SCORE:    0.00 PKD
ROOT
HETATM    1  C   UNL     1      -9.252   6.759  70.025  1.00  0.00    -0.158 C  
HETATM    2  O   UNL     1      -9.168   7.055  71.433  1.00  0.00    -0.151 OA 
HETATM    3  H   UNL     1     -12.160   6.332  68.382  1.00  0.00     0.000 HD 
HETATM    4  C   UNL     1     -10.426   7.131  71.953  1.00  0.00    -0.197 C  
HETATM    5  O   UNL     1     -11.225   6.391  68.540  1.00  0.00    -0.328 OA 
HETATM    6  H   UNL     1     -13.396   6.683  70.347  1.00  0.00     0.000 HD 
HETATM    7  C   UNL     1     -10.711   6.668  69.777  1.00  0.00    -0.257 C  
HETATM    8  O   UNL     1     -12.762   6.847  71.036  1.00  0.00    -0.356 OA 
HETATM    9  C   UNL     1     -11.405   6.878  70.889  1.00  0.00    -0.304 C  
HETATM   10  O   UNL     1     -10.720   7.349  73.117  1.00  0.00    -0.323 OA 
ENDROOT
BRANCH   1  11
HETATM   11  C   UNL     1      -8.461   7.798  69.196  1.00  0.00    -0.138 C  
HETATM   12  H   UNL     1      -7.786   8.011  67.325  1.00  0.00     0.000 HD 
HETATM   13  O   UNL     1      -8.271   7.373  67.835  1.00  0.00    -0.118 OA 
BRANCH  11  14
HETATM   14  C   UNL     1      -9.072   9.205  69.163  1.00  0.00    -0.144 C  
HETATM   15  O   UNL     1      -8.918   9.869  70.415  1.00  0.00    -0.342 OA 
HETATM   16  H   UNL     1      -9.296  10.740  70.395  1.00  0.00     0.000 HD 
ENDBRANCH  11  14
ENDBRANCH   1  11
TORSDOF 2
ENDMDL
MODEL      142
REMARK 921   NORMALIZED FREE ENERGY PREDICTED BY IDOCK:   -2.55 KCAL/MOL
REMARK 922        TOTAL FREE ENERGY PREDICTED BY IDOCK:   -3.23 KCAL/MOL
REMARK 923 INTER-LIGAND FREE ENERGY PREDICTED BY IDOCK:   -2.85 KCAL/MOL
REMARK 924 INTRA-LIGAND FREE ENERGY PREDICTED BY IDOCK:   -0.38 KCAL/MOL
REMARK 927      BINDING AFFINITY PREDICTED BY RF-SCORE:    0.00 PKD
ROOT
HETATM    1  C   UNL     1     -10.779   7.173  69.501  1.00  0.00    -0.239 C  
HETATM    2  O   UNL     1     -11.832   6.356  70.048  1.00  0.00    -0.404 OA 
HETATM    3  H   UNL     1     -10.072  10.279  70.595  1.00  0.00     0.000 HD 
HETATM    4  C   UNL     1     -12.459   7.039  71.048  1.00  0.00    -0.326 C  
HETATM    5  O   UNL     1     -10.019   9.479  70.085  1.00  0.00    -0.209 OA 
HETATM    6  H   UNL     1     -11.805  10.185  72.177  1.00  0.00     0.000 HD 
HETATM    7  C   UNL     1     -10.861   8.422  70.297  1.00  0.00    -0.239 C  
HETATM    8  O   UNL     1     -12.209   9.331  72.080  1.00  0.00    -0.359 OA 
HETATM    9  C   UNL     1     -11.834   8.360  71.197  1.00  0.00    -0.282 C  
HETATM   10  O   UNL     1     -13.405   6.650  71.713  1.00  0.00    -0.241 OA 
ENDROOT
BRANCH   1  11
HETATM   11  C   UNL     1      -9.430   6.416  69.516  1.00  0.00    -0.145 C  
HETATM   12  H   UNL     1      -7.567   6.674  68.834  1.00  0.00     0.000 HD 
HETATM   13  O   UNL     1      -8.396   7.138  68.825  1.00  0.00    -0.124 OA 
BRANCH  11  14
HETATM   14  C   UNL     1      -8.898   6.064  70.911  1.00  0.00    -0.135 C  
HETATM   15  O   UNL     1      -9.573   4.932  71.456  1.00  0.00    -0.148 OA 
HETATM   16  H   UNL     1      -9.243   4.714  72.319  1.00  0.00     0.000 HD 
ENDBRANCH  11  14
ENDBRANCH   1  11
TORSDOF 2
ENDMDL
MODEL      143
REMARK 921   NORMALIZED FREE ENERGY PREDICTED BY IDOCK:   -2.55 KCAL/MOL
REMARK 922        TOTAL FREE ENERGY PREDICTED BY IDOCK:   -3.23 KCAL/MOL
REMARK 923 INTER-LIGAND FREE ENERGY PREDICTED BY IDOCK:   -2.93 KCAL/MOL
REMARK 924 INTRA-LIGAND FREE ENERGY PREDICTED BY IDOCK:   -0.30 KCAL/MOL
REMARK 927      BINDING AFFINITY PREDICTED BY RF-SCORE:    0.00 PKD
ROOT
HETATM    1  C   UNL     1      -9.930   7.043  71.204  1.00  0.00    -0.184 C  
HETATM    2  O   UNL     1      -8.768   6.797  70.390  1.00  0.00    -0.148 OA 
HETATM    3  H   UNL     1     -13.088   6.831  70.053  1.00  0.00     0.000 HD 
HETATM    4  C   UNL     1      -9.162   6.474  69.126  1.00  0.00    -0.135 C  
HETATM    5  O   UNL     1     -12.365   6.969  70.653  1.00  0.00    -0.319 OA 
HETATM    6  H   UNL     1     -12.334   6.270  67.901  1.00  0.00     0.000 HD 
HETATM    7  C   UNL     1     -11.060   6.827  70.267  1.00  0.00    -0.310 C  
HETATM    8  O   UNL     1     -11.385   6.253  67.946  1.00  0.00    -0.257 OA 
HETATM    9  C   UNL     1     -10.629   6.500  69.056  1.00  0.00    -0.245 C  
HETATM   10  O   UNL     1      -8.436   6.221  68.179  1.00  0.00    -0.114 OA 
ENDROOT
BRANCH   1  11
HETATM   11  C   UNL     1      -9.902   6.174  72.483  1.00  0.00    -0.167 C  
HETATM   12  H   UNL     1      -8.596   5.035  73.484  1.00  0.00     0.000 HD 
HETATM   13  O   UNL     1      -8.614   5.569  72.698  1.00  0.00    -0.123 OA 
BRANCH  11  14
HETATM   14  C   UNL     1     -10.294   6.904  73.774  1.00  0.00    -0.376 C  
HETATM   15  O   UNL     1     -11.351   7.833  73.547  1.00  0.00    -0.547 OA 
HETATM   16  H   UNL     1     -11.594   8.285  74.346  1.00  0.00     0.000 HD 
ENDBRANCH  11  14
ENDBRANCH   1  11
TORSDOF 2
ENDMDL
MODEL      144
REMARK 921   NORMALIZED FREE ENERGY PREDICTED BY IDOCK:   -2.54 KCAL/MOL
REMARK 922        TOTAL FREE ENERGY PREDICTED BY IDOCK:   -3.21 KCAL/MOL
REMARK 923 INTER-LIGAND FREE ENERGY PREDICTED BY IDOCK:   -2.88 KCAL/MOL
REMARK 924 INTRA-LIGAND FREE ENERGY PREDICTED BY IDOCK:   -0.34 KCAL/MOL
REMARK 927      BINDING AFFINITY PREDICTED BY RF-SCORE:    0.00 PKD
ROOT
HETATM    1  C   UNL     1     -10.298   6.409  70.941  1.00  0.00    -0.204 C  
HETATM    2  O   UNL     1      -9.920   5.020  70.914  1.00  0.00    -0.190 OA 
HETATM    3  H   UNL     1     -10.878   8.234  68.170  1.00  0.00     0.000 HD 
HETATM    4  C   UNL     1      -9.845   4.597  69.620  1.00  0.00    -0.223 C  
HETATM    5  O   UNL     1     -10.789   8.012  69.090  1.00  0.00    -0.152 OA 
HETATM    6  H   UNL     1     -10.395   6.401  66.784  1.00  0.00     0.000 HD 
HETATM    7  C   UNL     1     -10.438   6.757  69.506  1.00  0.00    -0.220 C  
HETATM    8  O   UNL     1     -10.182   5.678  67.362  1.00  0.00    -0.166 OA 
HETATM    9  C   UNL     1     -10.175   5.715  68.727  1.00  0.00    -0.204 C  
HETATM   10  O   UNL     1      -9.536   3.481  69.236  1.00  0.00    -0.180 OA 
ENDROOT
BRANCH   1  11
HETATM   11  C   UNL     1     -11.537   6.626  71.841  1.00  0.00    -0.303 C  
HETATM   12  H   UNL     1     -12.533   5.642  73.269  1.00  0.00     0.000 HD 
HETATM   13  O   UNL     1     -11.772   5.509  72.716  1.00  0.00    -0.297 OA 
BRANCH  11  14
HETATM   14  C   UNL     1     -11.500   7.893  72.705  1.00  0.00    -0.395 C  
HETATM   15  O   UNL     1     -11.698   9.066  71.918  1.00  0.00    -0.346 OA 
HETATM   16  H   UNL     1     -11.675   9.850  72.453  1.00  0.00     0.000 HD 
ENDBRANCH  11  14
ENDBRANCH   1  11
TORSDOF 2
ENDMDL
MODEL      145
REMARK 921   NORMALIZED FREE ENERGY PREDICTED BY IDOCK:   -2.51 KCAL/MOL
REMARK 922        TOTAL FREE ENERGY PREDICTED BY IDOCK:   -3.19 KCAL/MOL
REMARK 923 INTER-LIGAND FREE ENERGY PREDICTED BY IDOCK:   -2.83 KCAL/MOL
REMARK 924 INTRA-LIGAND FREE ENERGY PREDICTED BY IDOCK:   -0.35 KCAL/MOL
REMARK 927      BINDING AFFINITY PREDICTED BY RF-SCORE:    0.00 PKD
ROOT
HETATM    1  C   UNL     1     -10.651   6.543  71.107  1.00  0.00    -0.229 C  
HETATM    2  O   UNL     1     -11.510   6.395  69.959  1.00  0.00    -0.401 OA 
HETATM    3  H   UNL     1      -7.296   6.755  70.907  1.00  0.00     0.000 HD 
HETATM    4  C   UNL     1     -10.749   6.362  68.828  1.00  0.00    -0.287 C  
HETATM    5  O   UNL     1      -8.167   6.724  71.285  1.00  0.00    -0.117 OA 
HETATM    6  H   UNL     1      -7.358   6.546  68.569  1.00  0.00     0.000 HD 
HETATM    7  C   UNL     1      -9.291   6.592  70.517  1.00  0.00    -0.162 C  
HETATM    8  O   UNL     1      -8.275   6.467  68.332  1.00  0.00    -0.112 OA 
HETATM    9  C   UNL     1      -9.333   6.484  69.195  1.00  0.00    -0.133 C  
HETATM   10  O   UNL     1     -11.151   6.230  67.684  1.00  0.00    -0.341 OA 
ENDROOT
BRANCH   1  11
HETATM   11  C   UNL     1     -11.088   7.750  71.969  1.00  0.00    -0.269 C  
HETATM   12  H   UNL     1     -12.732   8.849  72.275  1.00  0.00     0.000 HD 
HETATM   13  O   UNL     1     -12.463   8.107  71.745  1.00  0.00    -0.305 OA 
BRANCH  11  14
HETATM   14  C   UNL     1     -10.894   7.573  73.481  1.00  0.00    -0.158 C  
HETATM   15  O   UNL     1      -9.514   7.598  73.836  1.00  0.00    -0.319 OA 
HETATM   16  H   UNL     1      -9.394   7.489  74.772  1.00  0.00     0.000 HD 
ENDBRANCH  11  14
ENDBRANCH   1  11
TORSDOF 2
ENDMDL
MODEL      146
REMARK 921   NORMALIZED FREE ENERGY PREDICTED BY IDOCK:   -2.49 KCAL/MOL
REMARK 922        TOTAL FREE ENERGY PREDICTED BY IDOCK:   -3.16 KCAL/MOL
REMARK 923 INTER-LIGAND FREE ENERGY PREDICTED BY IDOCK:   -2.82 KCAL/MOL
REMARK 924 INTRA-LIGAND FREE ENERGY PREDICTED BY IDOCK:   -0.34 KCAL/MOL
REMARK 927      BINDING AFFINITY PREDICTED BY RF-SCORE:    0.00 PKD
ROOT
HETATM    1  C   UNL     1     -10.781   6.165  71.336  1.00  0.00    -0.255 C  
HETATM    2  O   UNL     1      -9.513   6.801  71.585  1.00  0.00    -0.156 OA 
HETATM    3  H   UNL     1     -13.741   7.751  71.591  1.00  0.00     0.000 HD 
HETATM    4  C   UNL     1      -9.720   8.105  71.925  1.00  0.00    -0.205 C  
HETATM    5  O   UNL     1     -13.112   7.056  71.440  1.00  0.00    -0.376 OA 
HETATM    6  H   UNL     1     -12.687   9.752  72.224  1.00  0.00     0.000 HD 
HETATM    7  C   UNL     1     -11.764   7.251  71.570  1.00  0.00    -0.289 C  
HETATM    8  O   UNL     1     -11.754   9.572  72.229  1.00  0.00    -0.108 OA 
HETATM    9  C   UNL     1     -11.162   8.382  71.917  1.00  0.00    -0.311 C  
HETATM   10  O   UNL     1      -8.867   8.926  72.217  1.00  0.00    -0.397 OA 
ENDROOT
BRANCH   1  11
HETATM   11  C   UNL     1     -10.795   5.492  69.943  1.00  0.00    -0.228 C  
HETATM   12  H   UNL     1     -10.579   6.024  68.027  1.00  0.00     0.000 HD 
HETATM   13  O   UNL     1     -10.570   6.437  68.882  1.00  0.00    -0.200 OA 
BRANCH  11  14
HETATM   14  C   UNL     1      -9.792   4.345  69.765  1.00  0.00    -0.214 C  
HETATM   15  O   UNL     1      -8.514   4.830  69.360  1.00  0.00    -0.082 OA 
HETATM   16  H   UNL     1      -7.892   4.120  69.250  1.00  0.00     0.000 HD 
ENDBRANCH  11  14
ENDBRANCH   1  11
TORSDOF 2
ENDMDL
MODEL      147
REMARK 921   NORMALIZED FREE ENERGY PREDICTED BY IDOCK:   -2.49 KCAL/MOL
REMARK 922        TOTAL FREE ENERGY PREDICTED BY IDOCK:   -3.16 KCAL/MOL
REMARK 923 INTER-LIGAND FREE ENERGY PREDICTED BY IDOCK:   -3.05 KCAL/MOL
REMARK 924 INTRA-LIGAND FREE ENERGY PREDICTED BY IDOCK:   -0.11 KCAL/MOL
REMARK 927      BINDING AFFINITY PREDICTED BY RF-SCORE:    0.00 PKD
ROOT
HETATM    1  C   UNL     1     -10.838   7.534  73.078  1.00  0.00    -0.392 C  
HETATM    2  O   UNL     1      -9.668   8.363  72.934  1.00  0.00    -0.263 OA 
HETATM    3  H   UNL     1     -12.801   6.619  70.499  1.00  0.00     0.000 HD 
HETATM    4  C   UNL     1      -9.507   8.691  71.621  1.00  0.00    -0.269 C  
HETATM    5  O   UNL     1     -12.474   6.696  71.388  1.00  0.00    -0.342 OA 
HETATM    6  H   UNL     1     -11.472   7.818  68.979  1.00  0.00     0.000 HD 
HETATM    7  C   UNL     1     -11.349   7.413  71.691  1.00  0.00    -0.256 C  
HETATM    8  O   UNL     1     -10.772   8.211  69.488  1.00  0.00    -0.227 OA 
HETATM    9  C   UNL     1     -10.588   8.083  70.835  1.00  0.00    -0.213 C  
HETATM   10  O   UNL     1      -8.629   9.394  71.149  1.00  0.00    -0.297 OA 
ENDROOT
BRANCH   1  11
HETATM   11  C   UNL     1     -10.494   6.220  73.818  1.00  0.00    -0.290 C  
HETATM   12  H   UNL     1     -10.793   4.256  73.587  1.00  0.00     0.000 HD 
HETATM   13  O   UNL     1     -11.004   5.063  73.133  1.00  0.00    -0.257 OA 
BRANCH  11  14
HETATM   14  C   UNL     1      -8.999   5.989  74.072  1.00  0.00    -0.127 C  
HETATM   15  O   UNL     1      -8.291   5.772  72.854  1.00  0.00    -0.118 OA 
HETATM   16  H   UNL     1      -7.366   5.629  73.011  1.00  0.00     0.000 HD 
ENDBRANCH  11  14
ENDBRANCH   1  11
TORSDOF 2
ENDMDL
MODEL      148
REMARK 921   NORMALIZED FREE ENERGY PREDICTED BY IDOCK:   -2.48 KCAL/MOL
REMARK 922        TOTAL FREE ENERGY PREDICTED BY IDOCK:   -3.15 KCAL/MOL
REMARK 923 INTER-LIGAND FREE ENERGY PREDICTED BY IDOCK:   -2.79 KCAL/MOL
REMARK 924 INTRA-LIGAND FREE ENERGY PREDICTED BY IDOCK:   -0.36 KCAL/MOL
REMARK 927      BINDING AFFINITY PREDICTED BY RF-SCORE:    0.00 PKD
ROOT
HETATM    1  C   UNL     1      -9.979   8.009  71.017  1.00  0.00    -0.182 C  
HETATM    2  O   UNL     1      -9.408   8.894  72.000  1.00  0.00    -0.324 OA 
HETATM    3  H   UNL     1      -8.626   5.042  70.174  1.00  0.00     0.000 HD 
HETATM    4  C   UNL     1      -8.272   8.334  72.506  1.00  0.00    -0.164 C  
HETATM    5  O   UNL     1      -9.226   5.779  70.183  1.00  0.00    -0.147 OA 
HETATM    6  H   UNL     1      -6.846   5.355  71.674  1.00  0.00     0.000 HD 
HETATM    7  C   UNL     1      -9.042   6.858  71.003  1.00  0.00    -0.155 C  
HETATM    8  O   UNL     1      -6.993   6.196  72.092  1.00  0.00    -0.075 OA 
HETATM    9  C   UNL     1      -8.045   7.035  71.860  1.00  0.00    -0.098 C  
HETATM   10  O   UNL     1      -7.532   8.821  73.344  1.00  0.00    -0.376 OA 
ENDROOT
BRANCH   1  11
HETATM   11  C   UNL     1     -11.460   7.706  71.343  1.00  0.00    -0.264 C  
HETATM   12  H   UNL     1     -12.507   6.450  72.495  1.00  0.00     0.000 HD 
HETATM   13  O   UNL     1     -11.598   6.636  72.294  1.00  0.00    -0.272 OA 
BRANCH  11  14
HETATM   14  C   UNL     1     -12.268   8.900  71.867  1.00  0.00    -0.374 C  
HETATM   15  O   UNL     1     -11.733  10.136  71.400  1.00  0.00    -0.360 OA 
HETATM   16  H   UNL     1     -12.233  10.876  71.724  1.00  0.00     0.000 HD 
ENDBRANCH  11  14
ENDBRANCH   1  11
TORSDOF 2
ENDMDL
MODEL      149
REMARK 921   NORMALIZED FREE ENERGY PREDICTED BY IDOCK:   -2.44 KCAL/MOL
REMARK 922        TOTAL FREE ENERGY PREDICTED BY IDOCK:   -3.11 KCAL/MOL
REMARK 923 INTER-LIGAND FREE ENERGY PREDICTED BY IDOCK:   -3.04 KCAL/MOL
REMARK 924 INTRA-LIGAND FREE ENERGY PREDICTED BY IDOCK:   -0.07 KCAL/MOL
REMARK 927      BINDING AFFINITY PREDICTED BY RF-SCORE:    0.00 PKD
ROOT
HETATM    1  C   UNL     1      -8.665  17.198  66.876  1.00  0.00    -0.232 C  
HETATM    2  O   UNL     1      -9.591  16.292  67.505  1.00  0.00    -0.227 OA 
HETATM    3  H   UNL     1      -8.592  20.509  67.491  1.00  0.00     0.000 HD 
HETATM    4  C   UNL     1     -10.395  16.987  68.359  1.00  0.00    -0.351 C  
HETATM    5  O   UNL     1      -8.365  19.666  67.117  1.00  0.00    -0.279 OA 
HETATM    6  H   UNL     1     -10.383  20.332  69.001  1.00  0.00     0.000 HD 
HETATM    7  C   UNL     1      -9.019  18.515  67.461  1.00  0.00    -0.276 C  
HETATM    8  O   UNL     1     -10.623  19.413  69.025  1.00  0.00     0.024 OA 
HETATM    9  C   UNL     1     -10.024  18.408  68.322  1.00  0.00    -0.369 C  
HETATM   10  O   UNL     1     -11.298  16.533  69.041  1.00  0.00    -0.282 OA 
ENDROOT
BRANCH   1  11
HETATM   11  C   UNL     1      -7.208  16.715  67.063  1.00  0.00    -0.201 C  
HETATM   12  H   UNL     1      -6.182  15.000  66.968  1.00  0.00     0.000 HD 
HETATM   13  O   UNL     1      -7.077  15.298  66.854  1.00  0.00    -0.175 OA 
BRANCH  11  14
HETATM   14  C   UNL     1      -6.172  17.413  66.172  1.00  0.00    -0.169 C  
HETATM   15  O   UNL     1      -6.795  18.293  65.240  1.00  0.00    -0.505 OA 
HETATM   16  H   UNL     1      -6.154  18.726  64.689  1.00  0.00     0.000 HD 
ENDBRANCH  11  14
ENDBRANCH   1  11
TORSDOF 2
ENDMDL
MODEL      150
REMARK 921   NORMALIZED FREE ENERGY PREDICTED BY IDOCK:   -2.39 KCAL/MOL
REMARK 922        TOTAL FREE ENERGY PREDICTED BY IDOCK:   -3.05 KCAL/MOL
REMARK 923 INTER-LIGAND FREE ENERGY PREDICTED BY IDOCK:   -2.88 KCAL/MOL
REMARK 924 INTRA-LIGAND FREE ENERGY PREDICTED BY IDOCK:   -0.18 KCAL/MOL
REMARK 927      BINDING AFFINITY PREDICTED BY RF-SCORE:    0.00 PKD
ROOT
HETATM    1  C   UNL     1      -9.837   7.364  71.740  1.00  0.00    -0.167 C  
HETATM    2  O   UNL     1      -9.786   6.712  70.457  1.00  0.00    -0.175 OA 
HETATM    3  H   UNL     1     -12.707   8.177  73.304  1.00  0.00     0.000 HD 
HETATM    4  C   UNL     1     -11.056   6.491  70.012  1.00  0.00    -0.363 C  
HETATM    5  O   UNL     1     -11.776   8.088  73.137  1.00  0.00    -0.268 OA 
HETATM    6  H   UNL     1     -13.989   7.312  71.536  1.00  0.00     0.000 HD 
HETATM    7  C   UNL     1     -11.290   7.503  72.000  1.00  0.00    -0.273 C  
HETATM    8  O   UNL     1     -13.371   6.981  70.895  1.00  0.00    -0.166 OA 
HETATM    9  C   UNL     1     -12.010   7.003  71.004  1.00  0.00    -0.361 C  
HETATM   10  O   UNL     1     -11.377   5.973  68.956  1.00  0.00    -0.340 OA 
ENDROOT
BRANCH   1  11
HETATM   11  C   UNL     1      -9.006   6.586  72.787  1.00  0.00    -0.123 C  
HETATM   12  H   UNL     1      -7.822   4.975  72.854  1.00  0.00     0.000 HD 
HETATM   13  O   UNL     1      -8.333   5.453  72.211  1.00  0.00    -0.120 OA 
BRANCH  11  14
HETATM   14  C   UNL     1      -7.957   7.419  73.535  1.00  0.00    -0.115 C  
HETATM   15  O   UNL     1      -7.963   8.777  73.100  1.00  0.00    -0.405 OA 
HETATM   16  H   UNL     1      -7.314   9.293  73.563  1.00  0.00     0.000 HD 
ENDBRANCH  11  14
ENDBRANCH   1  11
TORSDOF 2
ENDMDL
MODEL      151
REMARK 921   NORMALIZED FREE ENERGY PREDICTED BY IDOCK:   -2.39 KCAL/MOL
REMARK 922        TOTAL FREE ENERGY PREDICTED BY IDOCK:   -3.05 KCAL/MOL
REMARK 923 INTER-LIGAND FREE ENERGY PREDICTED BY IDOCK:   -2.77 KCAL/MOL
REMARK 924 INTRA-LIGAND FREE ENERGY PREDICTED BY IDOCK:   -0.28 KCAL/MOL
REMARK 927      BINDING AFFINITY PREDICTED BY RF-SCORE:    0.00 PKD
ROOT
HETATM    1  C   UNL     1      -8.561  15.562  67.481  1.00  0.00    -0.170 C  
HETATM    2  O   UNL     1      -8.934  16.952  67.430  1.00  0.00    -0.206 OA 
HETATM    3  H   UNL     1      -5.980  14.392  69.301  1.00  0.00     0.000 HD 
HETATM    4  C   UNL     1      -8.090  17.675  68.220  1.00  0.00    -0.278 C  
HETATM    5  O   UNL     1      -6.727  14.399  68.715  1.00  0.00    -0.083 OA 
HETATM    6  H   UNL     1      -5.452  16.551  70.058  1.00  0.00     0.000 HD 
HETATM    7  C   UNL     1      -7.394  15.550  68.397  1.00  0.00    -0.115 C  
HETATM    8  O   UNL     1      -6.088  17.136  69.663  1.00  0.00    -0.226 OA 
HETATM    9  C   UNL     1      -7.107  16.771  68.831  1.00  0.00    -0.215 C  
HETATM   10  O   UNL     1      -8.110  18.882  68.393  1.00  0.00    -0.315 OA 
ENDROOT
BRANCH   1  11
HETATM   11  C   UNL     1      -9.771  14.681  67.873  1.00  0.00    -0.216 C  
HETATM   12  H   UNL     1     -11.767  14.756  67.766  1.00  0.00     0.000 HD 
HETATM   13  O   UNL     1     -11.024  15.297  67.526  1.00  0.00    -0.301 OA 
BRANCH  11  14
HETATM   14  C   UNL     1      -9.767  13.268  67.277  1.00  0.00    -0.231 C  
HETATM   15  O   UNL     1      -8.526  12.975  66.638  1.00  0.00    -0.416 OA 
HETATM   16  H   UNL     1      -8.523  12.100  66.269  1.00  0.00     0.000 HD 
ENDBRANCH  11  14
ENDBRANCH   1  11
TORSDOF 2
ENDMDL
MODEL      152
REMARK 921   NORMALIZED FREE ENERGY PREDICTED BY IDOCK:   -2.37 KCAL/MOL
REMARK 922        TOTAL FREE ENERGY PREDICTED BY IDOCK:   -3.02 KCAL/MOL
REMARK 923 INTER-LIGAND FREE ENERGY PREDICTED BY IDOCK:   -2.91 KCAL/MOL
REMARK 924 INTRA-LIGAND FREE ENERGY PREDICTED BY IDOCK:   -0.12 KCAL/MOL
REMARK 927      BINDING AFFINITY PREDICTED BY RF-SCORE:    0.00 PKD
ROOT
HETATM    1  C   UNL     1      -9.618   9.887  68.599  1.00  0.00    -0.156 C  
HETATM    2  O   UNL     1     -10.975  10.343  68.760  1.00  0.00    -0.218 OA 
HETATM    3  H   UNL     1      -7.858   8.383  71.045  1.00  0.00     0.000 HD 
HETATM    4  C   UNL     1     -11.398  10.064  70.025  1.00  0.00    -0.275 C  
HETATM    5  O   UNL     1      -8.068   8.755  70.196  1.00  0.00    -0.100 OA 
HETATM    6  H   UNL     1      -9.656   8.571  72.543  1.00  0.00     0.000 HD 
HETATM    7  C   UNL     1      -9.290   9.305  69.923  1.00  0.00    -0.198 C  
HETATM    8  O   UNL     1     -10.358   8.998  72.065  1.00  0.00    -0.339 OA 
HETATM    9  C   UNL     1     -10.313   9.404  70.763  1.00  0.00    -0.298 C  
HETATM   10  O   UNL     1     -12.489  10.329  70.503  1.00  0.00    -0.292 OA 
ENDROOT
BRANCH   1  11
HETATM   11  C   UNL     1      -9.492   8.955  67.371  1.00  0.00    -0.145 C  
HETATM   12  H   UNL     1     -10.627   7.651  66.365  1.00  0.00     0.000 HD 
HETATM   13  O   UNL     1     -10.704   8.223  67.119  1.00  0.00    -0.302 OA 
BRANCH  11  14
HETATM   14  C   UNL     1      -9.090   9.652  66.064  1.00  0.00    -0.171 C  
HETATM   15  O   UNL     1      -9.464   8.881  64.926  1.00  0.00    -0.414 OA 
HETATM   16  H   UNL     1      -9.216   9.313  64.117  1.00  0.00     0.000 HD 
ENDBRANCH  11  14
ENDBRANCH   1  11
TORSDOF 2
ENDMDL
MODEL      153
REMARK 921   NORMALIZED FREE ENERGY PREDICTED BY IDOCK:   -2.36 KCAL/MOL
REMARK 922        TOTAL FREE ENERGY PREDICTED BY IDOCK:   -3.02 KCAL/MOL
REMARK 923 INTER-LIGAND FREE ENERGY PREDICTED BY IDOCK:   -3.20 KCAL/MOL
REMARK 924 INTRA-LIGAND FREE ENERGY PREDICTED BY IDOCK:    0.18 KCAL/MOL
REMARK 927      BINDING AFFINITY PREDICTED BY RF-SCORE:    0.00 PKD
ROOT
HETATM    1  C   UNL     1      -9.686   9.383  68.998  1.00  0.00    -0.166 C  
HETATM    2  O   UNL     1      -9.877   9.823  70.356  1.00  0.00    -0.259 OA 
HETATM    3  H   UNL     1     -10.976   6.526  67.767  1.00  0.00     0.000 HD 
HETATM    4  C   UNL     1     -10.644   8.913  71.022  1.00  0.00    -0.247 C  
HETATM    5  O   UNL     1     -10.498   7.346  67.803  1.00  0.00    -0.211 OA 
HETATM    6  H   UNL     1     -11.951   6.000  69.838  1.00  0.00     0.000 HD 
HETATM    7  C   UNL     1     -10.432   8.102  68.941  1.00  0.00    -0.185 C  
HETATM    8  O   UNL     1     -11.727   6.710  70.427  1.00  0.00    -0.379 OA 
HETATM    9  C   UNL     1     -10.991   7.815  70.110  1.00  0.00    -0.241 C  
HETATM   10  O   UNL     1     -10.984   8.965  72.191  1.00  0.00    -0.362 OA 
ENDROOT
BRANCH   1  11
HETATM   11  C   UNL     1     -10.105  10.486  67.997  1.00  0.00    -0.165 C  
HETATM   12  H   UNL     1     -11.011  10.621  66.219  1.00  0.00     0.000 HD 
HETATM   13  O   UNL     1     -10.754   9.944  66.834  1.00  0.00    -0.203 OA 
BRANCH  11  14
HETATM   14  C   UNL     1     -11.019  11.575  68.575  1.00  0.00    -0.223 C  
HETATM   15  O   UNL     1     -12.228  11.690  67.828  1.00  0.00    -0.560 OA 
HETATM   16  H   UNL     1     -12.794  12.364  68.185  1.00  0.00     0.000 HD 
ENDBRANCH  11  14
ENDBRANCH   1  11
TORSDOF 2
ENDMDL
MODEL      154
REMARK 921   NORMALIZED FREE ENERGY PREDICTED BY IDOCK:   -2.35 KCAL/MOL
REMARK 922        TOTAL FREE ENERGY PREDICTED BY IDOCK:   -3.01 KCAL/MOL
REMARK 923 INTER-LIGAND FREE ENERGY PREDICTED BY IDOCK:   -2.89 KCAL/MOL
REMARK 924 INTRA-LIGAND FREE ENERGY PREDICTED BY IDOCK:   -0.12 KCAL/MOL
REMARK 927      BINDING AFFINITY PREDICTED BY RF-SCORE:    0.00 PKD
ROOT
HETATM    1  C   UNL     1      -9.734   8.325  68.939  1.00  0.00    -0.164 C  
HETATM    2  O   UNL     1      -9.015   8.094  70.165  1.00  0.00    -0.144 OA 
HETATM    3  H   UNL     1     -11.401   5.919  67.275  1.00  0.00     0.000 HD 
HETATM    4  C   UNL     1      -9.130   6.781  70.515  1.00  0.00    -0.156 C  
HETATM    5  O   UNL     1     -11.047   6.774  67.488  1.00  0.00    -0.301 OA 
HETATM    6  H   UNL     1     -10.778   4.302  68.860  1.00  0.00     0.000 HD 
HETATM    7  C   UNL     1     -10.287   6.990  68.605  1.00  0.00    -0.186 C  
HETATM    8  O   UNL     1     -10.252   4.753  69.510  1.00  0.00    -0.221 OA 
HETATM    9  C   UNL     1      -9.942   6.083  69.510  1.00  0.00    -0.178 C  
HETATM   10  O   UNL     1      -8.631   6.240  71.488  1.00  0.00    -0.130 OA 
ENDROOT
BRANCH   1  11
HETATM   11  C   UNL     1     -10.744   9.485  69.104  1.00  0.00    -0.210 C  
HETATM   12  H   UNL     1     -11.197  10.888  70.455  1.00  0.00     0.000 HD 
HETATM   13  O   UNL     1     -10.576  10.176  70.354  1.00  0.00    -0.290 OA 
BRANCH  11  14
HETATM   14  C   UNL     1     -10.718  10.534  67.985  1.00  0.00    -0.245 C  
HETATM   15  O   UNL     1     -12.011  11.089  67.760  1.00  0.00    -0.661 OA 
HETATM   16  H   UNL     1     -11.995  11.739  67.067  1.00  0.00     0.000 HD 
ENDBRANCH  11  14
ENDBRANCH   1  11
TORSDOF 2
ENDMDL
MODEL      155
REMARK 921   NORMALIZED FREE ENERGY PREDICTED BY IDOCK:   -2.32 KCAL/MOL
REMARK 922        TOTAL FREE ENERGY PREDICTED BY IDOCK:   -2.97 KCAL/MOL
REMARK 923 INTER-LIGAND FREE ENERGY PREDICTED BY IDOCK:   -2.69 KCAL/MOL
REMARK 924 INTRA-LIGAND FREE ENERGY PREDICTED BY IDOCK:   -0.28 KCAL/MOL
REMARK 927      BINDING AFFINITY PREDICTED BY RF-SCORE:    0.00 PKD
ROOT
HETATM    1  C   UNL     1      -9.167   9.966  67.789  1.00  0.00    -0.130 C  
HETATM    2  O   UNL     1     -10.593   9.974  67.586  1.00  0.00    -0.232 OA 
HETATM    3  H   UNL     1      -7.395  12.691  68.670  1.00  0.00     0.000 HD 
HETATM    4  C   UNL     1     -11.073  11.231  67.810  1.00  0.00    -0.271 C  
HETATM    5  O   UNL     1      -7.590  11.791  68.434  1.00  0.00    -0.109 OA 
HETATM    6  H   UNL     1      -9.328  14.024  68.676  1.00  0.00     0.000 HD 
HETATM    7  C   UNL     1      -8.862  11.369  68.158  1.00  0.00    -0.162 C  
HETATM    8  O   UNL     1     -10.049  13.451  68.442  1.00  0.00    -0.241 OA 
HETATM    9  C   UNL     1      -9.959  12.116  68.171  1.00  0.00    -0.201 C  
HETATM   10  O   UNL     1     -12.233  11.595  67.711  1.00  0.00    -0.560 OA 
ENDROOT
BRANCH   1  11
HETATM   11  C   UNL     1      -8.761   8.868  68.800  1.00  0.00    -0.137 C  
HETATM   12  H   UNL     1      -7.121   7.840  69.308  1.00  0.00     0.000 HD 
HETATM   13  O   UNL     1      -7.371   8.514  68.687  1.00  0.00    -0.084 OA 
BRANCH  11  14
HETATM   14  C   UNL     1      -9.036   9.205  70.271  1.00  0.00    -0.218 C  
HETATM   15  O   UNL     1      -7.890   9.775  70.899  1.00  0.00    -0.350 OA 
HETATM   16  H   UNL     1      -8.061   9.983  71.809  1.00  0.00     0.000 HD 
ENDBRANCH  11  14
ENDBRANCH   1  11
TORSDOF 2
ENDMDL
MODEL      156
REMARK 921   NORMALIZED FREE ENERGY PREDICTED BY IDOCK:   -2.31 KCAL/MOL
REMARK 922        TOTAL FREE ENERGY PREDICTED BY IDOCK:   -2.96 KCAL/MOL
REMARK 923 INTER-LIGAND FREE ENERGY PREDICTED BY IDOCK:   -2.52 KCAL/MOL
REMARK 924 INTRA-LIGAND FREE ENERGY PREDICTED BY IDOCK:   -0.44 KCAL/MOL
REMARK 927      BINDING AFFINITY PREDICTED BY RF-SCORE:    0.00 PKD
ROOT
HETATM    1  C   UNL     1     -10.474   7.879  71.298  1.00  0.00    -0.203 C  
HETATM    2  O   UNL     1      -9.735   9.096  71.081  1.00  0.00    -0.269 OA 
HETATM    3  H   UNL     1     -11.857   6.072  68.815  1.00  0.00     0.000 HD 
HETATM    4  C   UNL     1      -9.697   9.369  69.745  1.00  0.00    -0.199 C  
HETATM    5  O   UNL     1     -11.604   6.336  69.691  1.00  0.00    -0.430 OA 
HETATM    6  H   UNL     1     -11.096   7.595  67.197  1.00  0.00     0.000 HD 
HETATM    7  C   UNL     1     -10.869   7.465  69.929  1.00  0.00    -0.246 C  
HETATM    8  O   UNL     1     -10.624   8.271  67.668  1.00  0.00    -0.241 OA 
HETATM    9  C   UNL     1     -10.427   8.323  69.018  1.00  0.00    -0.197 C  
HETATM   10  O   UNL     1      -9.168  10.330  69.214  1.00  0.00    -0.189 OA 
ENDROOT
BRANCH   1  11
HETATM   11  C   UNL     1      -9.644   6.870  72.125  1.00  0.00    -0.144 C  
HETATM   12  H   UNL     1      -9.955   5.229  73.225  1.00  0.00     0.000 HD 
HETATM   13  O   UNL     1     -10.465   5.848  72.717  1.00  0.00    -0.192 OA 
BRANCH  11  14
HETATM   14  C   UNL     1      -8.515   6.171  71.356  1.00  0.00    -0.128 C  
HETATM   15  O   UNL     1      -7.443   7.067  71.076  1.00  0.00    -0.079 OA 
HETATM   16  H   UNL     1      -6.744   6.635  70.600  1.00  0.00     0.000 HD 
ENDBRANCH  11  14
ENDBRANCH   1  11
TORSDOF 2
ENDMDL
MODEL      157
REMARK 921   NORMALIZED FREE ENERGY PREDICTED BY IDOCK:   -2.31 KCAL/MOL
REMARK 922        TOTAL FREE ENERGY PREDICTED BY IDOCK:   -2.96 KCAL/MOL
REMARK 923 INTER-LIGAND FREE ENERGY PREDICTED BY IDOCK:   -2.59 KCAL/MOL
REMARK 924 INTRA-LIGAND FREE ENERGY PREDICTED BY IDOCK:   -0.36 KCAL/MOL
REMARK 927      BINDING AFFINITY PREDICTED BY RF-SCORE:    0.00 PKD
ROOT
HETATM    1  C   UNL     1      -9.507   6.138  70.853  1.00  0.00    -0.172 C  
HETATM    2  O   UNL     1      -9.563   6.601  72.216  1.00  0.00    -0.148 OA 
HETATM    3  H   UNL     1     -12.166   6.108  68.786  1.00  0.00     0.000 HD 
HETATM    4  C   UNL     1     -10.832   7.009  72.503  1.00  0.00    -0.252 C  
HETATM    5  O   UNL     1     -11.276   5.990  69.096  1.00  0.00    -0.378 OA 
HETATM    6  H   UNL     1     -13.561   6.977  70.464  1.00  0.00     0.000 HD 
HETATM    7  C   UNL     1     -10.897   6.321  70.369  1.00  0.00    -0.299 C  
HETATM    8  O   UNL     1     -13.013   7.097  71.231  1.00  0.00    -0.383 OA 
HETATM    9  C   UNL     1     -11.678   6.823  71.317  1.00  0.00    -0.336 C  
HETATM   10  O   UNL     1     -11.234   7.442  73.570  1.00  0.00    -0.234 OA 
ENDROOT
BRANCH   1  11
HETATM   11  C   UNL     1      -8.388   6.864  70.071  1.00  0.00    -0.139 C  
HETATM   12  H   UNL     1      -7.839   8.741  69.650  1.00  0.00     0.000 HD 
HETATM   13  O   UNL     1      -8.526   8.295  70.130  1.00  0.00    -0.121 OA 
BRANCH  11  14
HETATM   14  C   UNL     1      -6.959   6.517  70.507  1.00  0.00    -0.064 C  
HETATM   15  O   UNL     1      -6.951   5.776  71.725  1.00  0.00    -0.068 OA 
HETATM   16  H   UNL     1      -6.066   5.560  71.994  1.00  0.00     0.000 HD 
ENDBRANCH  11  14
ENDBRANCH   1  11
TORSDOF 2
ENDMDL
MODEL      158
REMARK 921   NORMALIZED FREE ENERGY PREDICTED BY IDOCK:   -2.29 KCAL/MOL
REMARK 922        TOTAL FREE ENERGY PREDICTED BY IDOCK:   -2.94 KCAL/MOL
REMARK 923 INTER-LIGAND FREE ENERGY PREDICTED BY IDOCK:   -2.77 KCAL/MOL
REMARK 924 INTRA-LIGAND FREE ENERGY PREDICTED BY IDOCK:   -0.17 KCAL/MOL
REMARK 927      BINDING AFFINITY PREDICTED BY RF-SCORE:    0.00 PKD
ROOT
HETATM    1  C   UNL     1     -10.598   7.607  72.453  1.00  0.00    -0.260 C  
HETATM    2  O   UNL     1     -10.863   9.000  72.199  1.00  0.00    -0.337 OA 
HETATM    3  H   UNL     1     -12.997   5.245  72.560  1.00  0.00     0.000 HD 
HETATM    4  C   UNL     1     -12.202   9.179  72.016  1.00  0.00    -0.373 C  
HETATM    5  O   UNL     1     -12.136   5.644  72.595  1.00  0.00    -0.212 OA 
HETATM    6  H   UNL     1     -14.672   6.837  72.138  1.00  0.00     0.000 HD 
HETATM    7  C   UNL     1     -11.943   6.984  72.398  1.00  0.00    -0.139 C  
HETATM    8  O   UNL     1     -14.230   7.674  72.052  1.00  0.00    -0.331 OA 
HETATM    9  C   UNL     1     -12.884   7.886  72.148  1.00  0.00    -0.201 C  
HETATM   10  O   UNL     1     -12.771  10.235  71.797  1.00  0.00    -0.408 OA 
ENDROOT
BRANCH   1  11
HETATM   11  C   UNL     1      -9.530   7.062  71.475  1.00  0.00    -0.154 C  
HETATM   12  H   UNL     1      -9.334   6.732  69.512  1.00  0.00     0.000 HD 
HETATM   13  O   UNL     1      -9.990   7.067  70.113  1.00  0.00    -0.181 OA 
BRANCH  11  14
HETATM   14  C   UNL     1      -8.181   7.792  71.513  1.00  0.00    -0.105 C  
HETATM   15  O   UNL     1      -7.239   7.102  72.331  1.00  0.00    -0.068 OA 
HETATM   16  H   UNL     1      -6.403   7.554  72.354  1.00  0.00     0.000 HD 
ENDBRANCH  11  14
ENDBRANCH   1  11
TORSDOF 2
ENDMDL
MODEL      159
REMARK 921   NORMALIZED FREE ENERGY PREDICTED BY IDOCK:   -2.23 KCAL/MOL
REMARK 922        TOTAL FREE ENERGY PREDICTED BY IDOCK:   -2.88 KCAL/MOL
REMARK 923 INTER-LIGAND FREE ENERGY PREDICTED BY IDOCK:   -2.48 KCAL/MOL
REMARK 924 INTRA-LIGAND FREE ENERGY PREDICTED BY IDOCK:   -0.39 KCAL/MOL
REMARK 927      BINDING AFFINITY PREDICTED BY RF-SCORE:    0.00 PKD
ROOT
HETATM    1  C   UNL     1      -9.087   6.611  71.439  1.00  0.00    -0.143 C  
HETATM    2  O   UNL     1      -8.575   6.152  72.705  1.00  0.00    -0.125 OA 
HETATM    3  H   UNL     1     -12.278   6.176  70.453  1.00  0.00     0.000 HD 
HETATM    4  C   UNL     1      -9.574   5.538  73.400  1.00  0.00    -0.142 C  
HETATM    5  O   UNL     1     -11.367   6.443  70.433  1.00  0.00    -0.336 OA 
HETATM    6  H   UNL     1     -12.806   5.046  72.443  1.00  0.00     0.000 HD 
HETATM    7  C   UNL     1     -10.510   6.194  71.470  1.00  0.00    -0.222 C  
HETATM    8  O   UNL     1     -12.009   5.028  72.960  1.00  0.00    -0.226 OA 
HETATM    9  C   UNL     1     -10.806   5.567  72.602  1.00  0.00    -0.257 C  
HETATM   10  O   UNL     1      -9.483   5.020  74.500  1.00  0.00    -0.121 OA 
ENDROOT
BRANCH   1  11
HETATM   11  C   UNL     1      -8.800   8.119  71.243  1.00  0.00    -0.146 C  
HETATM   12  H   UNL     1      -9.605   9.872  71.773  1.00  0.00     0.000 HD 
HETATM   13  O   UNL     1      -9.781   8.946  71.893  1.00  0.00    -0.307 OA 
BRANCH  11  14
HETATM   14  C   UNL     1      -7.415   8.583  71.713  1.00  0.00    -0.099 C  
HETATM   15  O   UNL     1      -7.426   8.939  73.094  1.00  0.00    -0.360 OA 
HETATM   16  H   UNL     1      -6.569   9.226  73.385  1.00  0.00     0.000 HD 
ENDBRANCH  11  14
ENDBRANCH   1  11
TORSDOF 2
ENDMDL
MODEL      160
REMARK 921   NORMALIZED FREE ENERGY PREDICTED BY IDOCK:   -2.22 KCAL/MOL
REMARK 922        TOTAL FREE ENERGY PREDICTED BY IDOCK:   -2.86 KCAL/MOL
REMARK 923 INTER-LIGAND FREE ENERGY PREDICTED BY IDOCK:   -2.51 KCAL/MOL
REMARK 924 INTRA-LIGAND FREE ENERGY PREDICTED BY IDOCK:   -0.35 KCAL/MOL
REMARK 927      BINDING AFFINITY PREDICTED BY RF-SCORE:    0.00 PKD
ROOT
HETATM    1  C   UNL     1      -9.012  10.726  67.836  1.00  0.00    -0.139 C  
HETATM    2  O   UNL     1      -7.812  10.604  68.623  1.00  0.00    -0.105 OA 
HETATM    3  H   UNL     1     -12.049   9.740  68.907  1.00  0.00     0.000 HD 
HETATM    4  C   UNL     1      -8.117  10.043  69.828  1.00  0.00    -0.177 C  
HETATM    5  O   UNL     1     -11.376  10.096  68.339  1.00  0.00    -0.219 OA 
HETATM    6  H   UNL     1     -11.160   9.005  70.952  1.00  0.00     0.000 HD 
HETATM    7  C   UNL     1     -10.064  10.169  68.721  1.00  0.00    -0.187 C  
HETATM    8  O   UNL     1     -10.227   9.185  70.918  1.00  0.00    -0.235 OA 
HETATM    9  C   UNL     1      -9.558   9.766  69.880  1.00  0.00    -0.235 C  
HETATM   10  O   UNL     1      -7.336   9.783  70.728  1.00  0.00    -0.285 OA 
ENDROOT
BRANCH   1  11
HETATM   11  C   UNL     1      -9.203  12.180  67.345  1.00  0.00    -0.182 C  
HETATM   12  H   UNL     1      -8.089  13.818  67.063  1.00  0.00     0.000 HD 
HETATM   13  O   UNL     1      -7.972  12.925  67.364  1.00  0.00    -0.167 OA 
BRANCH  11  14
HETATM   14  C   UNL     1      -9.807  12.319  65.941  1.00  0.00    -0.251 C  
HETATM   15  O   UNL     1     -11.181  11.937  65.926  1.00  0.00    -0.323 OA 
HETATM   16  H   UNL     1     -11.555  12.023  65.057  1.00  0.00     0.000 HD 
ENDBRANCH  11  14
ENDBRANCH   1  11
TORSDOF 2
ENDMDL
MODEL      161
REMARK 921   NORMALIZED FREE ENERGY PREDICTED BY IDOCK:   -2.21 KCAL/MOL
REMARK 922        TOTAL FREE ENERGY PREDICTED BY IDOCK:   -2.85 KCAL/MOL
REMARK 923 INTER-LIGAND FREE ENERGY PREDICTED BY IDOCK:   -2.59 KCAL/MOL
REMARK 924 INTRA-LIGAND FREE ENERGY PREDICTED BY IDOCK:   -0.26 KCAL/MOL
REMARK 927      BINDING AFFINITY PREDICTED BY RF-SCORE:    0.00 PKD
ROOT
HETATM    1  C   UNL     1     -10.069   6.043  71.524  1.00  0.00    -0.192 C  
HETATM    2  O   UNL     1     -10.293   5.053  70.502  1.00  0.00    -0.254 OA 
HETATM    3  H   UNL     1      -9.726   9.332  70.887  1.00  0.00     0.000 HD 
HETATM    4  C   UNL     1     -10.342   5.664  69.285  1.00  0.00    -0.270 C  
HETATM    5  O   UNL     1      -9.777   8.519  71.375  1.00  0.00    -0.180 OA 
HETATM    6  H   UNL     1      -9.976   8.976  68.579  1.00  0.00     0.000 HD 
HETATM    7  C   UNL     1      -9.990   7.314  70.763  1.00  0.00    -0.186 C  
HETATM    8  O   UNL     1     -10.104   8.042  68.465  1.00  0.00    -0.188 OA 
HETATM    9  C   UNL     1     -10.143   7.108  69.461  1.00  0.00    -0.179 C  
HETATM   10  O   UNL     1     -10.500   5.122  68.204  1.00  0.00    -0.115 OA 
ENDROOT
BRANCH   1  11
HETATM   11  C   UNL     1     -11.149   5.950  72.628  1.00  0.00    -0.280 C  
HETATM   12  H   UNL     1     -13.129   6.178  72.800  1.00  0.00     0.000 HD 
HETATM   13  O   UNL     1     -12.466   6.236  72.123  1.00  0.00    -0.291 OA 
BRANCH  11  14
HETATM   14  C   UNL     1     -11.215   4.605  73.362  1.00  0.00    -0.338 C  
HETATM   15  O   UNL     1      -9.911   4.106  73.653  1.00  0.00    -0.119 OA 
HETATM   16  H   UNL     1      -9.952   3.273  74.108  1.00  0.00     0.000 HD 
ENDBRANCH  11  14
ENDBRANCH   1  11
TORSDOF 2
ENDMDL
MODEL      162
REMARK 921   NORMALIZED FREE ENERGY PREDICTED BY IDOCK:   -2.19 KCAL/MOL
REMARK 922        TOTAL FREE ENERGY PREDICTED BY IDOCK:   -2.82 KCAL/MOL
REMARK 923 INTER-LIGAND FREE ENERGY PREDICTED BY IDOCK:   -2.49 KCAL/MOL
REMARK 924 INTRA-LIGAND FREE ENERGY PREDICTED BY IDOCK:   -0.34 KCAL/MOL
REMARK 927      BINDING AFFINITY PREDICTED BY RF-SCORE:    0.00 PKD
ROOT
HETATM    1  C   UNL     1      -9.396   7.076  68.529  1.00  0.00    -0.135 C  
HETATM    2  O   UNL     1     -10.047   8.361  68.491  1.00  0.00    -0.186 OA 
HETATM    3  H   UNL     1      -9.573   4.976  71.156  1.00  0.00     0.000 HD 
HETATM    4  C   UNL     1     -10.721   8.560  69.659  1.00  0.00    -0.197 C  
HETATM    5  O   UNL     1      -9.336   5.319  70.302  1.00  0.00    -0.147 OA 
HETATM    6  H   UNL     1     -10.914   6.486  72.354  1.00  0.00     0.000 HD 
HETATM    7  C   UNL     1      -9.765   6.541  69.862  1.00  0.00    -0.164 C  
HETATM    8  O   UNL     1     -11.036   7.241  71.790  1.00  0.00    -0.230 OA 
HETATM    9  C   UNL     1     -10.532   7.393  70.530  1.00  0.00    -0.218 C  
HETATM   10  O   UNL     1     -11.367   9.548  69.968  1.00  0.00    -0.233 OA 
ENDROOT
BRANCH   1  11
HETATM   11  C   UNL     1      -9.783   6.225  67.297  1.00  0.00    -0.129 C  
HETATM   12  H   UNL     1     -11.422   5.806  66.229  1.00  0.00     0.000 HD 
HETATM   13  O   UNL     1     -11.184   6.328  66.986  1.00  0.00    -0.336 OA 
BRANCH  11  14
HETATM   14  C   UNL     1      -8.999   6.540  66.016  1.00  0.00    -0.122 C  
HETATM   15  O   UNL     1      -9.194   7.891  65.605  1.00  0.00    -0.388 OA 
HETATM   16  H   UNL     1      -8.708   8.086  64.812  1.00  0.00     0.000 HD 
ENDBRANCH  11  14
ENDBRANCH   1  11
TORSDOF 2
ENDMDL
MODEL      163
REMARK 921   NORMALIZED FREE ENERGY PREDICTED BY IDOCK:   -2.18 KCAL/MOL
REMARK 922        TOTAL FREE ENERGY PREDICTED BY IDOCK:   -2.81 KCAL/MOL
REMARK 923 INTER-LIGAND FREE ENERGY PREDICTED BY IDOCK:   -2.42 KCAL/MOL
REMARK 924 INTRA-LIGAND FREE ENERGY PREDICTED BY IDOCK:   -0.39 KCAL/MOL
REMARK 927      BINDING AFFINITY PREDICTED BY RF-SCORE:    0.00 PKD
ROOT
HETATM    1  C   UNL     1      -9.939   7.548  69.908  1.00  0.00    -0.189 C  
HETATM    2  O   UNL     1      -8.878   7.602  70.880  1.00  0.00    -0.143 OA 
HETATM    3  H   UNL     1     -10.823   4.740  68.271  1.00  0.00     0.000 HD 
HETATM    4  C   UNL     1      -8.324   6.364  71.013  1.00  0.00    -0.123 C  
HETATM    5  O   UNL     1     -10.820   5.650  68.544  1.00  0.00    -0.213 OA 
HETATM    6  H   UNL     1      -9.158   3.500  69.369  1.00  0.00     0.000 HD 
HETATM    7  C   UNL     1      -9.944   6.127  69.481  1.00  0.00    -0.166 C  
HETATM    8  O   UNL     1      -8.714   4.105  69.952  1.00  0.00    -0.067 OA 
HETATM    9  C   UNL     1      -9.009   5.428  70.113  1.00  0.00    -0.134 C  
HETATM   10  O   UNL     1      -7.393   6.057  71.739  1.00  0.00    -0.089 OA 
ENDROOT
BRANCH   1  11
HETATM   11  C   UNL     1     -11.255   8.111  70.495  1.00  0.00    -0.247 C  
HETATM   12  H   UNL     1     -12.657   7.559  71.810  1.00  0.00     0.000 HD 
HETATM   13  O   UNL     1     -11.850   7.213  71.449  1.00  0.00    -0.275 OA 
BRANCH  11  14
HETATM   14  C   UNL     1     -11.131   9.486  71.165  1.00  0.00    -0.379 C  
HETATM   15  O   UNL     1     -10.175  10.306  70.498  1.00  0.00    -0.396 OA 
HETATM   16  H   UNL     1     -10.099  11.157  70.912  1.00  0.00     0.000 HD 
ENDBRANCH  11  14
ENDBRANCH   1  11
TORSDOF 2
ENDMDL
MODEL      164
REMARK 921   NORMALIZED FREE ENERGY PREDICTED BY IDOCK:   -2.17 KCAL/MOL
REMARK 922        TOTAL FREE ENERGY PREDICTED BY IDOCK:   -2.81 KCAL/MOL
REMARK 923 INTER-LIGAND FREE ENERGY PREDICTED BY IDOCK:   -2.41 KCAL/MOL
REMARK 924 INTRA-LIGAND FREE ENERGY PREDICTED BY IDOCK:   -0.40 KCAL/MOL
REMARK 927      BINDING AFFINITY PREDICTED BY RF-SCORE:    0.00 PKD
ROOT
HETATM    1  C   UNL     1     -10.392   7.501  69.879  1.00  0.00    -0.223 C  
HETATM    2  O   UNL     1     -10.399   8.066  68.554  1.00  0.00    -0.204 OA 
HETATM    3  H   UNL     1      -7.926   8.021  72.114  1.00  0.00     0.000 HD 
HETATM    4  C   UNL     1      -9.275   8.819  68.379  1.00  0.00    -0.137 C  
HETATM    5  O   UNL     1      -8.736   7.695  71.738  1.00  0.00    -0.113 OA 
HETATM    6  H   UNL     1      -6.741   9.358  70.589  1.00  0.00     0.000 HD 
HETATM    7  C   UNL     1      -9.129   8.010  70.466  1.00  0.00    -0.153 C  
HETATM    8  O   UNL     1      -7.263   9.387  69.796  1.00  0.00    -0.062 OA 
HETATM    9  C   UNL     1      -8.468   8.774  69.605  1.00  0.00    -0.129 C  
HETATM   10  O   UNL     1      -8.956   9.425  67.370  1.00  0.00    -0.124 OA 
ENDROOT
BRANCH   1  11
HETATM   11  C   UNL     1     -11.702   7.839  70.629  1.00  0.00    -0.175 C  
HETATM   12  H   UNL     1     -12.672   7.251  72.277  1.00  0.00     0.000 HD 
HETATM   13  O   UNL     1     -11.868   7.044  71.816  1.00  0.00    -0.282 OA 
BRANCH  11  14
HETATM   14  C   UNL     1     -11.861   9.311  71.030  1.00  0.00    -0.307 C  
HETATM   15  O   UNL     1     -12.316  10.103  69.935  1.00  0.00    -0.501 OA 
HETATM   16  H   UNL     1     -12.414  11.015  70.183  1.00  0.00     0.000 HD 
ENDBRANCH  11  14
ENDBRANCH   1  11
TORSDOF 2
ENDMDL
MODEL      165
REMARK 921   NORMALIZED FREE ENERGY PREDICTED BY IDOCK:   -2.15 KCAL/MOL
REMARK 922        TOTAL FREE ENERGY PREDICTED BY IDOCK:   -2.79 KCAL/MOL
REMARK 923 INTER-LIGAND FREE ENERGY PREDICTED BY IDOCK:   -2.41 KCAL/MOL
REMARK 924 INTRA-LIGAND FREE ENERGY PREDICTED BY IDOCK:   -0.38 KCAL/MOL
REMARK 927      BINDING AFFINITY PREDICTED BY RF-SCORE:    0.00 PKD
ROOT
HETATM    1  C   UNL     1     -10.123   8.616  66.861  1.00  0.00    -0.285 C  
HETATM    2  O   UNL     1     -10.961   9.299  67.813  1.00  0.00    -0.186 OA 
HETATM    3  H   UNL     1      -8.177  10.203  64.617  1.00  0.00     0.000 HD 
HETATM    4  C   UNL     1     -10.825  10.646  67.649  1.00  0.00    -0.292 C  
HETATM    5  O   UNL     1      -8.591   9.494  65.096  1.00  0.00    -0.142 OA 
HETATM    6  H   UNL     1      -8.895  12.303  65.384  1.00  0.00     0.000 HD 
HETATM    7  C   UNL     1      -9.476   9.722  66.114  1.00  0.00    -0.205 C  
HETATM    8  O   UNL     1      -9.509  12.135  66.090  1.00  0.00    -0.234 OA 
HETATM    9  C   UNL     1      -9.877  10.906  66.558  1.00  0.00    -0.204 C  
HETATM   10  O   UNL     1     -11.402  11.518  68.277  1.00  0.00    -0.237 OA 
ENDROOT
BRANCH   1  11
HETATM   11  C   UNL     1      -9.191   7.608  67.573  1.00  0.00    -0.132 C  
HETATM   12  H   UNL     1      -7.697   7.639  68.903  1.00  0.00     0.000 HD 
HETATM   13  O   UNL     1      -8.270   8.258  68.466  1.00  0.00    -0.127 OA 
BRANCH  11  14
HETATM   14  C   UNL     1      -9.907   6.506  68.365  1.00  0.00    -0.137 C  
HETATM   15  O   UNL     1     -10.671   7.050  69.439  1.00  0.00    -0.226 OA 
HETATM   16  H   UNL     1     -11.115   6.368  69.929  1.00  0.00     0.000 HD 
ENDBRANCH  11  14
ENDBRANCH   1  11
TORSDOF 2
ENDMDL
MODEL      166
REMARK 921   NORMALIZED FREE ENERGY PREDICTED BY IDOCK:   -2.15 KCAL/MOL
REMARK 922        TOTAL FREE ENERGY PREDICTED BY IDOCK:   -2.78 KCAL/MOL
REMARK 923 INTER-LIGAND FREE ENERGY PREDICTED BY IDOCK:   -2.61 KCAL/MOL
REMARK 924 INTRA-LIGAND FREE ENERGY PREDICTED BY IDOCK:   -0.17 KCAL/MOL
REMARK 927      BINDING AFFINITY PREDICTED BY RF-SCORE:    0.00 PKD
ROOT
HETATM    1  C   UNL     1      -9.859   8.509  69.522  1.00  0.00    -0.187 C  
HETATM    2  O   UNL     1      -9.421   7.630  70.575  1.00  0.00    -0.164 OA 
HETATM    3  H   UNL     1      -8.303  11.391  68.735  1.00  0.00     0.000 HD 
HETATM    4  C   UNL     1      -8.309   8.153  71.167  1.00  0.00    -0.120 C  
HETATM    5  O   UNL     1      -8.935  10.682  68.708  1.00  0.00    -0.157 OA 
HETATM    6  H   UNL     1      -6.712  11.069  70.432  1.00  0.00     0.000 HD 
HETATM    7  C   UNL     1      -8.872   9.616  69.563  1.00  0.00    -0.190 C  
HETATM    8  O   UNL     1      -6.932  10.247  70.853  1.00  0.00    -0.321 OA 
HETATM    9  C   UNL     1      -7.968   9.424  70.516  1.00  0.00    -0.174 C  
HETATM   10  O   UNL     1      -7.690   7.675  72.103  1.00  0.00    -0.082 OA 
ENDROOT
BRANCH   1  11
HETATM   11  C   UNL     1      -9.999   7.741  68.186  1.00  0.00    -0.178 C  
HETATM   12  H   UNL     1      -8.809   6.892  66.821  1.00  0.00     0.000 HD 
HETATM   13  O   UNL     1      -8.723   7.364  67.641  1.00  0.00    -0.125 OA 
BRANCH  11  14
HETATM   14  C   UNL     1     -10.869   6.479  68.251  1.00  0.00    -0.288 C  
HETATM   15  O   UNL     1     -11.652   6.325  67.069  1.00  0.00    -0.629 OA 
HETATM   16  H   UNL     1     -12.190   5.543  67.109  1.00  0.00     0.000 HD 
ENDBRANCH  11  14
ENDBRANCH   1  11
TORSDOF 2
ENDMDL
MODEL      167
REMARK 921   NORMALIZED FREE ENERGY PREDICTED BY IDOCK:   -2.14 KCAL/MOL
REMARK 922        TOTAL FREE ENERGY PREDICTED BY IDOCK:   -2.77 KCAL/MOL
REMARK 923 INTER-LIGAND FREE ENERGY PREDICTED BY IDOCK:   -2.71 KCAL/MOL
REMARK 924 INTRA-LIGAND FREE ENERGY PREDICTED BY IDOCK:   -0.06 KCAL/MOL
REMARK 927      BINDING AFFINITY PREDICTED BY RF-SCORE:    0.00 PKD
ROOT
HETATM    1  C   UNL     1      -8.913  11.449  66.373  1.00  0.00    -0.191 C  
HETATM    2  O   UNL     1      -8.449  10.382  65.524  1.00  0.00    -0.155 OA 
HETATM    3  H   UNL     1     -11.648  13.299  65.714  1.00  0.00     0.000 HD 
HETATM    4  C   UNL     1      -9.285  10.262  64.453  1.00  0.00    -0.252 C  
HETATM    5  O   UNL     1     -10.873  12.981  66.162  1.00  0.00    -0.276 OA 
HETATM    6  H   UNL     1     -12.045  12.119  63.723  1.00  0.00     0.000 HD 
HETATM    7  C   UNL     1     -10.123  11.946  65.675  1.00  0.00    -0.243 C  
HETATM    8  O   UNL     1     -11.356  11.468  63.656  1.00  0.00    -0.411 OA 
HETATM    9  C   UNL     1     -10.350  11.268  64.557  1.00  0.00    -0.322 C  
HETATM   10  O   UNL     1      -9.178   9.471  63.531  1.00  0.00    -0.197 OA 
ENDROOT
BRANCH   1  11
HETATM   11  C   UNL     1      -9.092  10.956  67.829  1.00  0.00    -0.149 C  
HETATM   12  H   UNL     1     -10.455  11.080  69.288  1.00  0.00     0.000 HD 
HETATM   13  O   UNL     1     -10.344  11.382  68.394  1.00  0.00    -0.181 OA 
BRANCH  11  14
HETATM   14  C   UNL     1      -8.991   9.437  68.017  1.00  0.00    -0.127 C  
HETATM   15  O   UNL     1     -10.215   8.787  67.684  1.00  0.00    -0.208 OA 
HETATM   16  H   UNL     1     -10.152   7.846  67.800  1.00  0.00     0.000 HD 
ENDBRANCH  11  14
ENDBRANCH   1  11
TORSDOF 2
ENDMDL
MODEL      168
REMARK 921   NORMALIZED FREE ENERGY PREDICTED BY IDOCK:   -2.12 KCAL/MOL
REMARK 922        TOTAL FREE ENERGY PREDICTED BY IDOCK:   -2.74 KCAL/MOL
REMARK 923 INTER-LIGAND FREE ENERGY PREDICTED BY IDOCK:   -2.49 KCAL/MOL
REMARK 924 INTRA-LIGAND FREE ENERGY PREDICTED BY IDOCK:   -0.26 KCAL/MOL
REMARK 927      BINDING AFFINITY PREDICTED BY RF-SCORE:    0.00 PKD
ROOT
HETATM    1  C   UNL     1     -10.179   5.317  70.361  1.00  0.00    -0.268 C  
HETATM    2  O   UNL     1     -10.281   4.653  71.635  1.00  0.00    -0.195 OA 
HETATM    3  H   UNL     1     -11.446   8.376  69.747  1.00  0.00     0.000 HD 
HETATM    4  C   UNL     1     -10.952   5.456  72.510  1.00  0.00    -0.256 C  
HETATM    5  O   UNL     1     -11.003   7.549  69.602  1.00  0.00    -0.232 OA 
HETATM    6  H   UNL     1     -12.276   8.541  71.938  1.00  0.00     0.000 HD 
HETATM    7  C   UNL     1     -10.872   6.608  70.587  1.00  0.00    -0.253 C  
HETATM    8  O   UNL     1     -12.032   7.735  72.378  1.00  0.00    -0.318 OA 
HETATM    9  C   UNL     1     -11.329   6.702  71.830  1.00  0.00    -0.279 C  
HETATM   10  O   UNL     1     -11.229   5.198  73.669  1.00  0.00    -0.296 OA 
ENDROOT
BRANCH   1  11
HETATM   11  C   UNL     1      -8.707   5.381  69.890  1.00  0.00    -0.121 C  
HETATM   12  H   UNL     1      -7.033   4.302  70.075  1.00  0.00     0.000 HD 
HETATM   13  O   UNL     1      -7.937   4.263  70.365  1.00  0.00    -0.052 OA 
BRANCH  11  14
HETATM   14  C   UNL     1      -8.514   5.466  68.370  1.00  0.00    -0.096 C  
HETATM   15  O   UNL     1      -9.759   5.379  67.681  1.00  0.00    -0.122 OA 
HETATM   16  H   UNL     1      -9.639   5.432  66.740  1.00  0.00     0.000 HD 
ENDBRANCH  11  14
ENDBRANCH   1  11
TORSDOF 2
ENDMDL
MODEL      169
REMARK 921   NORMALIZED FREE ENERGY PREDICTED BY IDOCK:   -2.11 KCAL/MOL
REMARK 922        TOTAL FREE ENERGY PREDICTED BY IDOCK:   -2.73 KCAL/MOL
REMARK 923 INTER-LIGAND FREE ENERGY PREDICTED BY IDOCK:   -2.55 KCAL/MOL
REMARK 924 INTRA-LIGAND FREE ENERGY PREDICTED BY IDOCK:   -0.19 KCAL/MOL
REMARK 927      BINDING AFFINITY PREDICTED BY RF-SCORE:    0.00 PKD
ROOT
HETATM    1  C   UNL     1     -10.350   5.638  71.413  1.00  0.00    -0.228 C  
HETATM    2  O   UNL     1     -10.037   4.416  72.108  1.00  0.00    -0.184 OA 
HETATM    3  H   UNL     1      -9.471   8.692  72.529  1.00  0.00     0.000 HD 
HETATM    4  C   UNL     1      -9.348   4.708  73.248  1.00  0.00    -0.117 C  
HETATM    5  O   UNL     1      -9.847   8.019  71.973  1.00  0.00    -0.181 OA 
HETATM    6  H   UNL     1      -8.456   7.773  74.437  1.00  0.00     0.000 HD 
HETATM    7  C   UNL     1      -9.763   6.689  72.280  1.00  0.00    -0.148 C  
HETATM    8  O   UNL     1      -8.564   6.831  74.369  1.00  0.00    -0.141 OA 
HETATM    9  C   UNL     1      -9.181   6.164  73.351  1.00  0.00    -0.131 C  
HETATM   10  O   UNL     1      -8.943   3.912  74.078  1.00  0.00    -0.091 OA 
ENDROOT
BRANCH   1  11
HETATM   11  C   UNL     1      -9.858   5.580  69.948  1.00  0.00    -0.194 C  
HETATM   12  H   UNL     1      -9.415   4.192  68.577  1.00  0.00     0.000 HD 
HETATM   13  O   UNL     1      -9.717   4.228  69.477  1.00  0.00    -0.196 OA 
BRANCH  11  14
HETATM   14  C   UNL     1     -10.732   6.335  68.938  1.00  0.00    -0.299 C  
HETATM   15  O   UNL     1     -11.977   6.723  69.514  1.00  0.00    -0.634 OA 
HETATM   16  H   UNL     1     -12.518   7.190  68.889  1.00  0.00     0.000 HD 
ENDBRANCH  11  14
ENDBRANCH   1  11
TORSDOF 2
ENDMDL
MODEL      170
REMARK 921   NORMALIZED FREE ENERGY PREDICTED BY IDOCK:   -2.09 KCAL/MOL
REMARK 922        TOTAL FREE ENERGY PREDICTED BY IDOCK:   -2.72 KCAL/MOL
REMARK 923 INTER-LIGAND FREE ENERGY PREDICTED BY IDOCK:   -2.75 KCAL/MOL
REMARK 924 INTRA-LIGAND FREE ENERGY PREDICTED BY IDOCK:    0.03 KCAL/MOL
REMARK 927      BINDING AFFINITY PREDICTED BY RF-SCORE:    0.00 PKD
ROOT
HETATM    1  C   UNL     1     -10.103   8.075  69.512  1.00  0.00    -0.196 C  
HETATM    2  O   UNL     1      -9.963   8.794  70.753  1.00  0.00    -0.188 OA 
HETATM    3  H   UNL     1     -11.976   5.297  69.170  1.00  0.00     0.000 HD 
HETATM    4  C   UNL     1     -10.698   8.173  71.719  1.00  0.00    -0.251 C  
HETATM    5  O   UNL     1     -11.396   6.016  68.945  1.00  0.00    -0.307 OA 
HETATM    6  H   UNL     1     -12.586   5.352  71.437  1.00  0.00     0.000 HD 
HETATM    7  C   UNL     1     -11.008   6.954  69.862  1.00  0.00    -0.277 C  
HETATM    8  O   UNL     1     -12.158   6.114  71.810  1.00  0.00    -0.277 OA 
HETATM    9  C   UNL     1     -11.359   6.996  71.141  1.00  0.00    -0.282 C  
HETATM   10  O   UNL     1     -10.791   8.506  72.889  1.00  0.00    -0.148 OA 
ENDROOT
BRANCH   1  11
HETATM   11  C   UNL     1     -10.560   9.021  68.377  1.00  0.00    -0.154 C  
HETATM   12  H   UNL     1     -10.064  10.811  67.635  1.00  0.00     0.000 HD 
HETATM   13  O   UNL     1      -9.783  10.230  68.332  1.00  0.00    -0.149 OA 
BRANCH  11  14
HETATM   14  C   UNL     1     -10.543   8.405  66.971  1.00  0.00    -0.246 C  
HETATM   15  O   UNL     1      -9.786   9.201  66.063  1.00  0.00    -0.277 OA 
HETATM   16  H   UNL     1      -9.775   8.820  65.193  1.00  0.00     0.000 HD 
ENDBRANCH  11  14
ENDBRANCH   1  11
TORSDOF 2
ENDMDL
MODEL      171
REMARK 921   NORMALIZED FREE ENERGY PREDICTED BY IDOCK:   -2.07 KCAL/MOL
REMARK 922        TOTAL FREE ENERGY PREDICTED BY IDOCK:   -2.69 KCAL/MOL
REMARK 923 INTER-LIGAND FREE ENERGY PREDICTED BY IDOCK:   -2.54 KCAL/MOL
REMARK 924 INTRA-LIGAND FREE ENERGY PREDICTED BY IDOCK:   -0.16 KCAL/MOL
REMARK 927      BINDING AFFINITY PREDICTED BY RF-SCORE:    0.00 PKD
ROOT
HETATM    1  C   UNL     1      -8.964   6.536  68.416  1.00  0.00    -0.125 C  
HETATM    2  O   UNL     1      -8.642   7.757  67.723  1.00  0.00    -0.121 OA 
HETATM    3  H   UNL     1      -9.600   6.382  71.720  1.00  0.00     0.000 HD 
HETATM    4  C   UNL     1      -8.645   8.793  68.609  1.00  0.00    -0.134 C  
HETATM    5  O   UNL     1      -9.477   6.100  70.821  1.00  0.00    -0.166 OA 
HETATM    6  H   UNL     1      -9.255   8.692  71.959  1.00  0.00     0.000 HD 
HETATM    7  C   UNL     1      -9.157   6.975  69.820  1.00  0.00    -0.144 C  
HETATM    8  O   UNL     1      -9.044   9.022  71.093  1.00  0.00    -0.226 OA 
HETATM    9  C   UNL     1      -8.972   8.283  69.947  1.00  0.00    -0.139 C  
HETATM   10  O   UNL     1      -8.399   9.962  68.363  1.00  0.00    -0.105 OA 
ENDROOT
BRANCH   1  11
HETATM   11  C   UNL     1     -10.150   5.813  67.736  1.00  0.00    -0.162 C  
HETATM   12  H   UNL     1     -12.057   6.192  67.267  1.00  0.00     0.000 HD 
HETATM   13  O   UNL     1     -11.329   6.636  67.684  1.00  0.00    -0.246 OA 
BRANCH  11  14
HETATM   14  C   UNL     1      -9.874   5.306  66.315  1.00  0.00    -0.182 C  
HETATM   15  O   UNL     1     -11.072   4.873  65.674  1.00  0.00    -0.787 OA 
HETATM   16  H   UNL     1     -10.901   4.560  64.794  1.00  0.00     0.000 HD 
ENDBRANCH  11  14
ENDBRANCH   1  11
TORSDOF 2
ENDMDL
MODEL      172
REMARK 921   NORMALIZED FREE ENERGY PREDICTED BY IDOCK:   -2.06 KCAL/MOL
REMARK 922        TOTAL FREE ENERGY PREDICTED BY IDOCK:   -2.69 KCAL/MOL
REMARK 923 INTER-LIGAND FREE ENERGY PREDICTED BY IDOCK:   -2.57 KCAL/MOL
REMARK 924 INTRA-LIGAND FREE ENERGY PREDICTED BY IDOCK:   -0.12 KCAL/MOL
REMARK 927      BINDING AFFINITY PREDICTED BY RF-SCORE:    0.00 PKD
ROOT
HETATM    1  C   UNL     1      -9.019   9.861  66.891  1.00  0.00    -0.138 C  
HETATM    2  O   UNL     1      -9.387  11.234  67.126  1.00  0.00    -0.161 OA 
HETATM    3  H   UNL     1      -9.737   7.350  69.018  1.00  0.00     0.000 HD 
HETATM    4  C   UNL     1     -10.053  11.326  68.313  1.00  0.00    -0.188 C  
HETATM    5  O   UNL     1      -9.399   7.804  68.254  1.00  0.00    -0.143 OA 
HETATM    6  H   UNL     1     -10.783   8.830  70.512  1.00  0.00     0.000 HD 
HETATM    7  C   UNL     1      -9.547   9.153  68.083  1.00  0.00    -0.144 C  
HETATM    8  O   UNL     1     -10.723   9.693  70.120  1.00  0.00    -0.234 OA 
HETATM    9  C   UNL     1     -10.146   9.991  68.918  1.00  0.00    -0.190 C  
HETATM   10  O   UNL     1     -10.491  12.342  68.824  1.00  0.00    -0.218 OA 
ENDROOT
BRANCH   1  11
HETATM   11  C   UNL     1      -9.523   9.384  65.509  1.00  0.00    -0.260 C  
HETATM   12  H   UNL     1     -10.693  10.060  64.033  1.00  0.00     0.000 HD 
HETATM   13  O   UNL     1     -10.383  10.353  64.882  1.00  0.00    -0.317 OA 
BRANCH  11  14
HETATM   14  C   UNL     1      -8.422   9.022  64.504  1.00  0.00    -0.175 C  
HETATM   15  O   UNL     1      -8.905   9.061  63.164  1.00  0.00    -0.399 OA 
HETATM   16  H   UNL     1      -8.223   8.837  62.542  1.00  0.00     0.000 HD 
ENDBRANCH  11  14
ENDBRANCH   1  11
TORSDOF 2
ENDMDL
MODEL      173
REMARK 921   NORMALIZED FREE ENERGY PREDICTED BY IDOCK:   -2.04 KCAL/MOL
REMARK 922        TOTAL FREE ENERGY PREDICTED BY IDOCK:   -2.66 KCAL/MOL
REMARK 923 INTER-LIGAND FREE ENERGY PREDICTED BY IDOCK:   -2.29 KCAL/MOL
REMARK 924 INTRA-LIGAND FREE ENERGY PREDICTED BY IDOCK:   -0.37 KCAL/MOL
REMARK 927      BINDING AFFINITY PREDICTED BY RF-SCORE:    0.00 PKD
ROOT
HETATM    1  C   UNL     1      -9.586   7.485  71.891  1.00  0.00    -0.148 C  
HETATM    2  O   UNL     1      -9.170   6.458  70.972  1.00  0.00    -0.153 OA 
HETATM    3  H   UNL     1      -7.653   8.637  74.397  1.00  0.00     0.000 HD 
HETATM    4  C   UNL     1      -7.905   6.057  71.285  1.00  0.00    -0.112 C  
HETATM    5  O   UNL     1      -8.403   8.537  73.823  1.00  0.00    -0.362 OA 
HETATM    6  H   UNL     1      -5.916   7.166  73.818  1.00  0.00     0.000 HD 
HETATM    7  C   UNL     1      -8.415   7.643  72.787  1.00  0.00    -0.129 C  
HETATM    8  O   UNL     1      -6.222   6.674  73.065  1.00  0.00    -0.057 OA 
HETATM    9  C   UNL     1      -7.432   6.817  72.449  1.00  0.00    -0.088 C  
HETATM   10  O   UNL     1      -7.254   5.193  70.722  1.00  0.00    -0.060 OA 
ENDROOT
BRANCH   1  11
HETATM   11  C   UNL     1     -10.064   8.745  71.131  1.00  0.00    -0.247 C  
HETATM   12  H   UNL     1      -9.258  10.296  70.160  1.00  0.00     0.000 HD 
HETATM   13  O   UNL     1      -8.965   9.523  70.627  1.00  0.00    -0.241 OA 
BRANCH  11  14
HETATM   14  C   UNL     1     -11.018   8.474  69.960  1.00  0.00    -0.196 C  
HETATM   15  O   UNL     1     -12.023   7.527  70.314  1.00  0.00    -0.501 OA 
HETATM   16  H   UNL     1     -12.613   7.359  69.589  1.00  0.00     0.000 HD 
ENDBRANCH  11  14
ENDBRANCH   1  11
TORSDOF 2
ENDMDL
MODEL      174
REMARK 921   NORMALIZED FREE ENERGY PREDICTED BY IDOCK:   -2.03 KCAL/MOL
REMARK 922        TOTAL FREE ENERGY PREDICTED BY IDOCK:   -2.64 KCAL/MOL
REMARK 923 INTER-LIGAND FREE ENERGY PREDICTED BY IDOCK:   -2.28 KCAL/MOL
REMARK 924 INTRA-LIGAND FREE ENERGY PREDICTED BY IDOCK:   -0.36 KCAL/MOL
REMARK 927      BINDING AFFINITY PREDICTED BY RF-SCORE:    0.00 PKD
ROOT
HETATM    1  C   UNL     1      -9.945   4.993  67.682  1.00  0.00    -0.155 C  
HETATM    2  O   UNL     1      -9.704   6.226  66.977  1.00  0.00    -0.132 OA 
HETATM    3  H   UNL     1      -8.421   2.087  66.925  1.00  0.00     0.000 HD 
HETATM    4  C   UNL     1      -8.784   6.011  65.993  1.00  0.00    -0.152 C  
HETATM    5  O   UNL     1      -8.990   2.708  67.365  1.00  0.00    -0.131 OA 
HETATM    6  H   UNL     1      -7.232   3.094  65.167  1.00  0.00     0.000 HD 
HETATM    7  C   UNL     1      -9.058   4.023  66.995  1.00  0.00    -0.149 C  
HETATM    8  O   UNL     1      -7.494   4.008  65.157  1.00  0.00    -0.074 OA 
HETATM    9  C   UNL     1      -8.380   4.600  66.010  1.00  0.00    -0.114 C  
HETATM   10  O   UNL     1      -8.363   6.835  65.198  1.00  0.00    -0.136 OA 
ENDROOT
BRANCH   1  11
HETATM   11  C   UNL     1      -9.740   5.179  69.204  1.00  0.00    -0.163 C  
HETATM   12  H   UNL     1      -8.400   6.004  70.438  1.00  0.00     0.000 HD 
HETATM   13  O   UNL     1      -8.526   5.889  69.504  1.00  0.00    -0.112 OA 
BRANCH  11  14
HETATM   14  C   UNL     1     -10.887   5.891  69.932  1.00  0.00    -0.369 C  
HETATM   15  O   UNL     1     -11.744   6.570  69.017  1.00  0.00    -0.595 OA 
HETATM   16  H   UNL     1     -12.454   7.011  69.468  1.00  0.00     0.000 HD 
ENDBRANCH  11  14
ENDBRANCH   1  11
TORSDOF 2
ENDMDL
MODEL      175
REMARK 921   NORMALIZED FREE ENERGY PREDICTED BY IDOCK:   -2.02 KCAL/MOL
REMARK 922        TOTAL FREE ENERGY PREDICTED BY IDOCK:   -2.64 KCAL/MOL
REMARK 923 INTER-LIGAND FREE ENERGY PREDICTED BY IDOCK:   -2.20 KCAL/MOL
REMARK 924 INTRA-LIGAND FREE ENERGY PREDICTED BY IDOCK:   -0.44 KCAL/MOL
REMARK 927      BINDING AFFINITY PREDICTED BY RF-SCORE:    0.00 PKD
ROOT
HETATM    1  C   UNL     1     -10.458   6.938  69.133  1.00  0.00    -0.207 C  
HETATM    2  O   UNL     1     -10.375   6.486  70.499  1.00  0.00    -0.194 OA 
HETATM    3  H   UNL     1     -10.898  10.162  68.263  1.00  0.00     0.000 HD 
HETATM    4  C   UNL     1     -10.498   7.555  71.336  1.00  0.00    -0.209 C  
HETATM    5  O   UNL     1     -10.778   9.223  68.178  1.00  0.00    -0.213 OA 
HETATM    6  H   UNL     1     -10.970  10.826  70.514  1.00  0.00     0.000 HD 
HETATM    7  C   UNL     1     -10.647   8.403  69.265  1.00  0.00    -0.182 C  
HETATM    8  O   UNL     1     -10.855  10.036  71.030  1.00  0.00    -0.298 OA 
HETATM    9  C   UNL     1     -10.675   8.775  70.539  1.00  0.00    -0.223 C  
HETATM   10  O   UNL     1     -10.489   7.528  72.555  1.00  0.00    -0.212 OA 
ENDROOT
BRANCH   1  11
HETATM   11  C   UNL     1      -9.235   6.457  68.318  1.00  0.00    -0.112 C  
HETATM   12  H   UNL     1      -8.725   6.208  66.400  1.00  0.00     0.000 HD 
HETATM   13  O   UNL     1      -9.476   6.503  66.901  1.00  0.00    -0.141 OA 
BRANCH  11  14
HETATM   14  C   UNL     1      -7.931   7.216  68.593  1.00  0.00    -0.123 C  
HETATM   15  O   UNL     1      -7.411   6.909  69.884  1.00  0.00    -0.083 OA 
HETATM   16  H   UNL     1      -6.603   7.379  70.054  1.00  0.00     0.000 HD 
ENDBRANCH  11  14
ENDBRANCH   1  11
TORSDOF 2
ENDMDL
MODEL      176
REMARK 921   NORMALIZED FREE ENERGY PREDICTED BY IDOCK:   -1.99 KCAL/MOL
REMARK 922        TOTAL FREE ENERGY PREDICTED BY IDOCK:   -2.61 KCAL/MOL
REMARK 923 INTER-LIGAND FREE ENERGY PREDICTED BY IDOCK:   -2.49 KCAL/MOL
REMARK 924 INTRA-LIGAND FREE ENERGY PREDICTED BY IDOCK:   -0.11 KCAL/MOL
REMARK 927      BINDING AFFINITY PREDICTED BY RF-SCORE:    0.00 PKD
ROOT
HETATM    1  C   UNL     1      -9.414   7.062  71.787  1.00  0.00    -0.152 C  
HETATM    2  O   UNL     1      -8.168   6.670  71.181  1.00  0.00    -0.118 OA 
HETATM    3  H   UNL     1     -10.777  10.121  71.429  1.00  0.00     0.000 HD 
HETATM    4  C   UNL     1      -7.665   7.716  70.465  1.00  0.00    -0.089 C  
HETATM    5  O   UNL     1     -10.667   9.222  71.713  1.00  0.00    -0.363 OA 
HETATM    6  H   UNL     1      -8.984  10.833  70.089  1.00  0.00     0.000 HD 
HETATM    7  C   UNL     1      -9.587   8.467  71.344  1.00  0.00    -0.215 C  
HETATM    8  O   UNL     1      -8.394  10.092  70.016  1.00  0.00    -0.188 OA 
HETATM    9  C   UNL     1      -8.577   8.861  70.578  1.00  0.00    -0.184 C  
HETATM   10  O   UNL     1      -6.618   7.733  69.839  1.00  0.00    -0.037 OA 
ENDROOT
BRANCH   1  11
HETATM   11  C   UNL     1     -10.541   6.067  71.425  1.00  0.00    -0.246 C  
HETATM   12  H   UNL     1     -10.943   4.724  69.998  1.00  0.00     0.000 HD 
HETATM   13  O   UNL     1     -10.251   5.336  70.221  1.00  0.00    -0.234 OA 
BRANCH  11  14
HETATM   14  C   UNL     1     -10.883   5.046  72.518  1.00  0.00    -0.196 C  
HETATM   15  O   UNL     1     -12.222   5.206  72.980  1.00  0.00    -0.472 OA 
HETATM   16  H   UNL     1     -12.433   4.574  73.656  1.00  0.00     0.000 HD 
ENDBRANCH  11  14
ENDBRANCH   1  11
TORSDOF 2
ENDMDL
MODEL      177
REMARK 921   NORMALIZED FREE ENERGY PREDICTED BY IDOCK:   -1.98 KCAL/MOL
REMARK 922        TOTAL FREE ENERGY PREDICTED BY IDOCK:   -2.59 KCAL/MOL
REMARK 923 INTER-LIGAND FREE ENERGY PREDICTED BY IDOCK:   -2.16 KCAL/MOL
REMARK 924 INTRA-LIGAND FREE ENERGY PREDICTED BY IDOCK:   -0.43 KCAL/MOL
REMARK 927      BINDING AFFINITY PREDICTED BY RF-SCORE:    0.00 PKD
ROOT
HETATM    1  C   UNL     1      -9.206   8.676  68.637  1.00  0.00    -0.138 C  
HETATM    2  O   UNL     1     -10.501   8.108  68.363  1.00  0.00    -0.207 OA 
HETATM    3  H   UNL     1      -6.485   8.110  66.734  1.00  0.00     0.000 HD 
HETATM    4  C   UNL     1     -10.428   7.336  67.242  1.00  0.00    -0.310 C  
HETATM    5  O   UNL     1      -7.028   8.450  67.436  1.00  0.00    -0.069 OA 
HETATM    6  H   UNL     1      -7.703   6.708  65.297  1.00  0.00     0.000 HD 
HETATM    7  C   UNL     1      -8.358   8.146  67.541  1.00  0.00    -0.123 C  
HETATM    8  O   UNL     1      -8.592   6.690  65.631  1.00  0.00    -0.152 OA 
HETATM    9  C   UNL     1      -9.053   7.364  66.726  1.00  0.00    -0.151 C  
HETATM   10  O   UNL     1     -11.336   6.696  66.738  1.00  0.00    -0.270 OA 
ENDROOT
BRANCH   1  11
HETATM   11  C   UNL     1      -9.297  10.214  68.775  1.00  0.00    -0.168 C  
HETATM   12  H   UNL     1      -8.171  11.720  69.457  1.00  0.00     0.000 HD 
HETATM   13  O   UNL     1      -8.115  10.775  69.373  1.00  0.00    -0.131 OA 
BRANCH  11  14
HETATM   14  C   UNL     1      -9.559  10.970  67.466  1.00  0.00    -0.164 C  
HETATM   15  O   UNL     1     -10.912  10.824  67.042  1.00  0.00    -0.272 OA 
HETATM   16  H   UNL     1     -11.075  11.292  66.231  1.00  0.00     0.000 HD 
ENDBRANCH  11  14
ENDBRANCH   1  11
TORSDOF 2
ENDMDL
MODEL      178
REMARK 921   NORMALIZED FREE ENERGY PREDICTED BY IDOCK:   -1.97 KCAL/MOL
REMARK 922        TOTAL FREE ENERGY PREDICTED BY IDOCK:   -2.58 KCAL/MOL
REMARK 923 INTER-LIGAND FREE ENERGY PREDICTED BY IDOCK:   -2.18 KCAL/MOL
REMARK 924 INTRA-LIGAND FREE ENERGY PREDICTED BY IDOCK:   -0.40 KCAL/MOL
REMARK 927      BINDING AFFINITY PREDICTED BY RF-SCORE:    0.00 PKD
ROOT
HETATM    1  C   UNL     1      -8.096   8.010  70.818  1.00  0.00    -0.101 C  
HETATM    2  O   UNL     1      -8.529   8.246  69.465  1.00  0.00    -0.122 OA 
HETATM    3  H   UNL     1      -9.799   9.057  73.528  1.00  0.00     0.000 HD 
HETATM    4  C   UNL     1      -9.704   8.937  69.481  1.00  0.00    -0.173 C  
HETATM    5  O   UNL     1      -9.120   8.649  73.004  1.00  0.00    -0.293 OA 
HETATM    6  H   UNL     1     -11.455  10.043  72.185  1.00  0.00     0.000 HD 
HETATM    7  C   UNL     1      -9.157   8.646  71.637  1.00  0.00    -0.247 C  
HETATM    8  O   UNL     1     -11.202   9.878  71.284  1.00  0.00    -0.361 OA 
HETATM    9  C   UNL     1     -10.095   9.192  70.873  1.00  0.00    -0.287 C  
HETATM   10  O   UNL     1     -10.339   9.316  68.511  1.00  0.00    -0.198 OA 
ENDROOT
BRANCH   1  11
HETATM   11  C   UNL     1      -7.831   6.504  71.057  1.00  0.00    -0.110 C  
HETATM   12  H   UNL     1      -8.877   4.858  71.501  1.00  0.00     0.000 HD 
HETATM   13  O   UNL     1      -9.039   5.782  71.354  1.00  0.00    -0.139 OA 
BRANCH  11  14
HETATM   14  C   UNL     1      -7.126   5.777  69.905  1.00  0.00    -0.068 C  
HETATM   15  O   UNL     1      -8.057   5.329  68.924  1.00  0.00    -0.085 OA 
HETATM   16  H   UNL     1      -7.620   4.879  68.210  1.00  0.00     0.000 HD 
ENDBRANCH  11  14
ENDBRANCH   1  11
TORSDOF 2
ENDMDL
MODEL      179
REMARK 921   NORMALIZED FREE ENERGY PREDICTED BY IDOCK:   -1.94 KCAL/MOL
REMARK 922        TOTAL FREE ENERGY PREDICTED BY IDOCK:   -2.55 KCAL/MOL
REMARK 923 INTER-LIGAND FREE ENERGY PREDICTED BY IDOCK:   -2.25 KCAL/MOL
REMARK 924 INTRA-LIGAND FREE ENERGY PREDICTED BY IDOCK:   -0.30 KCAL/MOL
REMARK 927      BINDING AFFINITY PREDICTED BY RF-SCORE:    0.00 PKD
ROOT
HETATM    1  C   UNL     1      -9.294   5.654  69.762  1.00  0.00    -0.143 C  
HETATM    2  O   UNL     1      -9.109   4.539  68.868  1.00  0.00    -0.107 OA 
HETATM    3  H   UNL     1     -11.169   8.350  69.015  1.00  0.00     0.000 HD 
HETATM    4  C   UNL     1      -9.804   4.764  67.717  1.00  0.00    -0.141 C  
HETATM    5  O   UNL     1     -10.601   7.766  69.503  1.00  0.00    -0.227 OA 
HETATM    6  H   UNL     1     -11.692   7.478  66.898  1.00  0.00     0.000 HD 
HETATM    7  C   UNL     1     -10.181   6.565  68.999  1.00  0.00    -0.177 C  
HETATM    8  O   UNL     1     -11.253   6.638  66.838  1.00  0.00    -0.391 OA 
HETATM    9  C   UNL     1     -10.483   6.063  67.809  1.00  0.00    -0.239 C  
HETATM   10  O   UNL     1      -9.855   4.033  66.742  1.00  0.00    -0.217 OA 
ENDROOT
BRANCH   1  11
HETATM   11  C   UNL     1      -9.798   5.174  71.143  1.00  0.00    -0.186 C  
HETATM   12  H   UNL     1      -9.703   3.528  72.277  1.00  0.00     0.000 HD 
HETATM   13  O   UNL     1      -9.394   3.823  71.428  1.00  0.00    -0.117 OA 
BRANCH  11  14
HETATM   14  C   UNL     1      -9.370   6.047  72.330  1.00  0.00    -0.146 C  
HETATM   15  O   UNL     1      -9.922   7.358  72.238  1.00  0.00    -0.163 OA 
HETATM   16  H   UNL     1      -9.658   7.898  72.973  1.00  0.00     0.000 HD 
ENDBRANCH  11  14
ENDBRANCH   1  11
TORSDOF 2
ENDMDL
MODEL      180
REMARK 921   NORMALIZED FREE ENERGY PREDICTED BY IDOCK:   -1.81 KCAL/MOL
REMARK 922        TOTAL FREE ENERGY PREDICTED BY IDOCK:   -2.40 KCAL/MOL
REMARK 923 INTER-LIGAND FREE ENERGY PREDICTED BY IDOCK:   -2.23 KCAL/MOL
REMARK 924 INTRA-LIGAND FREE ENERGY PREDICTED BY IDOCK:   -0.17 KCAL/MOL
REMARK 927      BINDING AFFINITY PREDICTED BY RF-SCORE:    0.00 PKD
ROOT
HETATM    1  C   UNL     1      -8.561   5.333  68.298  1.00  0.00    -0.099 C  
HETATM    2  O   UNL     1      -8.735   6.760  68.218  1.00  0.00    -0.123 OA 
HETATM    3  H   UNL     1     -10.314   3.356  70.387  1.00  0.00     0.000 HD 
HETATM    4  C   UNL     1      -9.699   7.147  69.101  1.00  0.00    -0.158 C  
HETATM    5  O   UNL     1      -9.688   3.618  69.722  1.00  0.00    -0.185 OA 
HETATM    6  H   UNL     1     -11.483   5.200  71.253  1.00  0.00     0.000 HD 
HETATM    7  C   UNL     1      -9.538   4.922  69.336  1.00  0.00    -0.169 C  
HETATM    8  O   UNL     1     -11.156   5.964  70.791  1.00  0.00    -0.293 OA 
HETATM    9  C   UNL     1     -10.203   5.966  69.814  1.00  0.00    -0.218 C  
HETATM   10  O   UNL     1     -10.085   8.286  69.305  1.00  0.00    -0.189 OA 
ENDROOT
BRANCH   1  11
HETATM   11  C   UNL     1      -8.703   4.682  66.902  1.00  0.00    -0.107 C  
HETATM   12  H   UNL     1     -10.149   3.906  65.758  1.00  0.00     0.000 HD 
HETATM   13  O   UNL     1     -10.061   4.306  66.615  1.00  0.00    -0.221 OA 
BRANCH  11  14
HETATM   14  C   UNL     1      -8.200   5.537  65.731  1.00  0.00    -0.124 C  
HETATM   15  O   UNL     1      -9.260   5.874  64.840  1.00  0.00    -0.345 OA 
HETATM   16  H   UNL     1      -8.949   6.404  64.115  1.00  0.00     0.000 HD 
ENDBRANCH  11  14
ENDBRANCH   1  11
TORSDOF 2
ENDMDL
MODEL      181
REMARK 921   NORMALIZED FREE ENERGY PREDICTED BY IDOCK:   -1.80 KCAL/MOL
REMARK 922        TOTAL FREE ENERGY PREDICTED BY IDOCK:   -2.40 KCAL/MOL
REMARK 923 INTER-LIGAND FREE ENERGY PREDICTED BY IDOCK:   -2.23 KCAL/MOL
REMARK 924 INTRA-LIGAND FREE ENERGY PREDICTED BY IDOCK:   -0.16 KCAL/MOL
REMARK 927      BINDING AFFINITY PREDICTED BY RF-SCORE:    0.00 PKD
ROOT
HETATM    1  C   UNL     1     -10.477   7.821  69.894  1.00  0.00    -0.232 C  
HETATM    2  O   UNL     1     -11.074   8.974  69.271  1.00  0.00    -0.102 OA 
HETATM    3  H   UNL     1      -7.508   6.529  68.967  1.00  0.00     0.000 HD 
HETATM    4  C   UNL     1     -10.252   9.428  68.282  1.00  0.00    -0.196 C  
HETATM    5  O   UNL     1      -8.324   6.640  69.441  1.00  0.00    -0.125 OA 
HETATM    6  H   UNL     1      -7.257   8.149  67.285  1.00  0.00     0.000 HD 
HETATM    7  C   UNL     1      -9.203   7.648  69.154  1.00  0.00    -0.141 C  
HETATM    8  O   UNL     1      -8.028   8.703  67.330  1.00  0.00    -0.101 OA 
HETATM    9  C   UNL     1      -9.061   8.572  68.213  1.00  0.00    -0.138 C  
HETATM   10  O   UNL     1     -10.457  10.377  67.544  1.00  0.00    -0.212 OA 
ENDROOT
BRANCH   1  11
HETATM   11  C   UNL     1     -10.380   8.011  71.426  1.00  0.00    -0.200 C  
HETATM   12  H   UNL     1     -10.794   9.421  72.783  1.00  0.00     0.000 HD 
HETATM   13  O   UNL     1     -10.853   9.304  71.842  1.00  0.00    -0.351 OA 
BRANCH  11  14
HETATM   14  C   UNL     1     -11.118   6.956  72.261  1.00  0.00    -0.249 C  
HETATM   15  O   UNL     1     -10.313   5.797  72.465  1.00  0.00    -0.188 OA 
HETATM   16  H   UNL     1     -10.770   5.144  72.981  1.00  0.00     0.000 HD 
ENDBRANCH  11  14
ENDBRANCH   1  11
TORSDOF 2
ENDMDL
MODEL      182
REMARK 921   NORMALIZED FREE ENERGY PREDICTED BY IDOCK:   -1.80 KCAL/MOL
REMARK 922        TOTAL FREE ENERGY PREDICTED BY IDOCK:   -2.39 KCAL/MOL
REMARK 923 INTER-LIGAND FREE ENERGY PREDICTED BY IDOCK:   -2.10 KCAL/MOL
REMARK 924 INTRA-LIGAND FREE ENERGY PREDICTED BY IDOCK:   -0.29 KCAL/MOL
REMARK 927      BINDING AFFINITY PREDICTED BY RF-SCORE:    0.00 PKD
ROOT
HETATM    1  C   UNL     1     -10.280   4.413  66.631  1.00  0.00    -0.089 C  
HETATM    2  O   UNL     1     -11.083   4.564  65.444  1.00  0.00    -0.204 OA 
HETATM    3  H   UNL     1      -7.292   2.860  66.671  1.00  0.00     0.000 HD 
HETATM    4  C   UNL     1     -10.440   3.991  64.388  1.00  0.00    -0.197 C  
HETATM    5  O   UNL     1      -8.058   3.329  66.981  1.00  0.00    -0.082 OA 
HETATM    6  H   UNL     1      -7.435   2.387  64.375  1.00  0.00     0.000 HD 
HETATM    7  C   UNL     1      -9.084   3.681  66.148  1.00  0.00    -0.154 C  
HETATM    8  O   UNL     1      -8.260   2.753  64.078  1.00  0.00    -0.082 OA 
HETATM    9  C   UNL     1      -9.164   3.426  64.848  1.00  0.00    -0.145 C  
HETATM   10  O   UNL     1     -10.844   3.924  63.239  1.00  0.00    -0.212 OA 
ENDROOT
BRANCH   1  11
HETATM   11  C   UNL     1     -10.040   5.782  67.311  1.00  0.00    -0.176 C  
HETATM   12  H   UNL     1     -10.808   7.628  67.260  1.00  0.00     0.000 HD 
HETATM   13  O   UNL     1     -10.955   6.788  66.842  1.00  0.00    -0.378 OA 
BRANCH  11  14
HETATM   14  C   UNL     1     -10.110   5.767  68.843  1.00  0.00    -0.186 C  
HETATM   15  O   UNL     1      -9.800   4.478  69.367  1.00  0.00    -0.199 OA 
HETATM   16  H   UNL     1      -9.844   4.469  70.316  1.00  0.00     0.000 HD 
ENDBRANCH  11  14
ENDBRANCH   1  11
TORSDOF 2
ENDMDL
MODEL      183
REMARK 921   NORMALIZED FREE ENERGY PREDICTED BY IDOCK:   -1.76 KCAL/MOL
REMARK 922        TOTAL FREE ENERGY PREDICTED BY IDOCK:   -2.34 KCAL/MOL
REMARK 923 INTER-LIGAND FREE ENERGY PREDICTED BY IDOCK:   -2.17 KCAL/MOL
REMARK 924 INTRA-LIGAND FREE ENERGY PREDICTED BY IDOCK:   -0.17 KCAL/MOL
REMARK 927      BINDING AFFINITY PREDICTED BY RF-SCORE:    0.00 PKD
ROOT
HETATM    1  C   UNL     1     -10.231   7.266  69.710  1.00  0.00    -0.210 C  
HETATM    2  O   UNL     1     -10.094   5.832  69.735  1.00  0.00    -0.176 OA 
HETATM    3  H   UNL     1     -10.737   9.136  72.465  1.00  0.00     0.000 HD 
HETATM    4  C   UNL     1     -10.199   5.391  71.021  1.00  0.00    -0.229 C  
HETATM    5  O   UNL     1     -10.609   8.910  71.551  1.00  0.00    -0.272 OA 
HETATM    6  H   UNL     1     -10.736   7.230  73.837  1.00  0.00     0.000 HD 
HETATM    7  C   UNL     1     -10.431   7.619  71.137  1.00  0.00    -0.208 C  
HETATM    8  O   UNL     1     -10.594   6.487  73.262  1.00  0.00    -0.240 OA 
HETATM    9  C   UNL     1     -10.418   6.540  71.909  1.00  0.00    -0.206 C  
HETATM   10  O   UNL     1     -10.146   4.233  71.399  1.00  0.00    -0.179 OA 
ENDROOT
BRANCH   1  11
HETATM   11  C   UNL     1      -9.033   7.921  68.984  1.00  0.00    -0.145 C  
HETATM   12  H   UNL     1      -8.525   9.718  68.267  1.00  0.00     0.000 HD 
HETATM   13  O   UNL     1      -9.260   9.315  68.713  1.00  0.00    -0.135 OA 
BRANCH  11  14
HETATM   14  C   UNL     1      -7.688   7.803  69.712  1.00  0.00    -0.097 C  
HETATM   15  O   UNL     1      -7.536   8.823  70.697  1.00  0.00    -0.069 OA 
HETATM   16  H   UNL     1      -6.704   8.750  71.148  1.00  0.00     0.000 HD 
ENDBRANCH  11  14
ENDBRANCH   1  11
TORSDOF 2
ENDMDL
MODEL      184
REMARK 921   NORMALIZED FREE ENERGY PREDICTED BY IDOCK:   -1.75 KCAL/MOL
REMARK 922        TOTAL FREE ENERGY PREDICTED BY IDOCK:   -2.34 KCAL/MOL
REMARK 923 INTER-LIGAND FREE ENERGY PREDICTED BY IDOCK:   -2.19 KCAL/MOL
REMARK 924 INTRA-LIGAND FREE ENERGY PREDICTED BY IDOCK:   -0.14 KCAL/MOL
REMARK 927      BINDING AFFINITY PREDICTED BY RF-SCORE:    0.00 PKD
ROOT
HETATM    1  C   UNL     1      -9.998   5.806  66.411  1.00  0.00    -0.131 C  
HETATM    2  O   UNL     1     -10.740   5.266  67.521  1.00  0.00    -0.142 OA 
HETATM    3  H   UNL     1      -8.944   9.001  66.254  1.00  0.00     0.000 HD 
HETATM    4  C   UNL     1     -10.927   6.240  68.456  1.00  0.00    -0.340 C  
HETATM    5  O   UNL     1      -9.090   8.096  66.003  1.00  0.00    -0.183 OA 
HETATM    6  H   UNL     1      -9.908   9.488  68.339  1.00  0.00     0.000 HD 
HETATM    7  C   UNL     1      -9.769   7.218  66.802  1.00  0.00    -0.198 C  
HETATM    8  O   UNL     1     -10.310   8.683  68.643  1.00  0.00    -0.196 OA 
HETATM    9  C   UNL     1     -10.306   7.485  67.986  1.00  0.00    -0.204 C  
HETATM   10  O   UNL     1     -11.528   6.131  69.512  1.00  0.00    -0.429 OA 
ENDROOT
BRANCH   1  11
HETATM   11  C   UNL     1      -8.746   4.946  66.115  1.00  0.00    -0.117 C  
HETATM   12  H   UNL     1      -7.394   4.734  64.657  1.00  0.00     0.000 HD 
HETATM   13  O   UNL     1      -8.162   5.261  64.839  1.00  0.00    -0.122 OA 
BRANCH  11  14
HETATM   14  C   UNL     1      -7.634   5.032  67.169  1.00  0.00    -0.088 C  
HETATM   15  O   UNL     1      -6.699   3.966  67.027  1.00  0.00    -0.045 OA 
HETATM   16  H   UNL     1      -6.010   4.020  67.679  1.00  0.00     0.000 HD 
ENDBRANCH  11  14
ENDBRANCH   1  11
TORSDOF 2
ENDMDL
MODEL      185
REMARK 921   NORMALIZED FREE ENERGY PREDICTED BY IDOCK:   -1.67 KCAL/MOL
REMARK 922        TOTAL FREE ENERGY PREDICTED BY IDOCK:   -2.25 KCAL/MOL
REMARK 923 INTER-LIGAND FREE ENERGY PREDICTED BY IDOCK:   -1.85 KCAL/MOL
REMARK 924 INTRA-LIGAND FREE ENERGY PREDICTED BY IDOCK:   -0.40 KCAL/MOL
REMARK 927      BINDING AFFINITY PREDICTED BY RF-SCORE:    0.00 PKD
ROOT
HETATM    1  C   UNL     1      -9.845   6.543  72.140  1.00  0.00    -0.157 C  
HETATM    2  O   UNL     1      -9.251   5.306  72.577  1.00  0.00    -0.136 OA 
HETATM    3  H   UNL     1      -8.560   9.576  72.841  1.00  0.00     0.000 HD 
HETATM    4  C   UNL     1      -8.122   5.575  73.292  1.00  0.00    -0.114 C  
HETATM    5  O   UNL     1      -9.146   8.914  72.492  1.00  0.00    -0.349 OA 
HETATM    6  H   UNL     1      -6.791   8.617  74.052  1.00  0.00     0.000 HD 
HETATM    7  C   UNL     1      -8.931   7.577  72.684  1.00  0.00    -0.144 C  
HETATM    8  O   UNL     1      -6.917   7.676  74.010  1.00  0.00    -0.090 OA 
HETATM    9  C   UNL     1      -7.928   7.029  73.358  1.00  0.00    -0.096 C  
HETATM   10  O   UNL     1      -7.384   4.761  73.822  1.00  0.00    -0.079 OA 
ENDROOT
BRANCH   1  11
HETATM   11  C   UNL     1     -10.069   6.536  70.609  1.00  0.00    -0.185 C  
HETATM   12  H   UNL     1     -11.180   7.509  69.260  1.00  0.00     0.000 HD 
HETATM   13  O   UNL     1     -11.042   7.513  70.200  1.00  0.00    -0.260 OA 
BRANCH  11  14
HETATM   14  C   UNL     1      -8.806   6.757  69.767  1.00  0.00    -0.141 C  
HETATM   15  O   UNL     1      -8.052   5.555  69.632  1.00  0.00    -0.097 OA 
HETATM   16  H   UNL     1      -7.270   5.692  69.110  1.00  0.00     0.000 HD 
ENDBRANCH  11  14
ENDBRANCH   1  11
TORSDOF 2
ENDMDL
MODEL      186
REMARK 921   NORMALIZED FREE ENERGY PREDICTED BY IDOCK:   -1.66 KCAL/MOL
REMARK 922        TOTAL FREE ENERGY PREDICTED BY IDOCK:   -2.24 KCAL/MOL
REMARK 923 INTER-LIGAND FREE ENERGY PREDICTED BY IDOCK:   -2.05 KCAL/MOL
REMARK 924 INTRA-LIGAND FREE ENERGY PREDICTED BY IDOCK:   -0.19 KCAL/MOL
REMARK 927      BINDING AFFINITY PREDICTED BY RF-SCORE:    0.00 PKD
ROOT
HETATM    1  C   UNL     1      -9.686   7.429  68.932  1.00  0.00    -0.150 C  
HETATM    2  O   UNL     1     -10.157   7.410  70.294  1.00  0.00    -0.194 OA 
HETATM    3  H   UNL     1     -10.276   9.963  66.794  1.00  0.00     0.000 HD 
HETATM    4  C   UNL     1     -10.852   8.556  70.547  1.00  0.00    -0.228 C  
HETATM    5  O   UNL     1      -9.955   9.133  67.127  1.00  0.00    -0.185 OA 
HETATM    6  H   UNL     1     -11.500  11.135  68.419  1.00  0.00     0.000 HD 
HETATM    7  C   UNL     1     -10.187   8.724  68.412  1.00  0.00    -0.196 C  
HETATM    8  O   UNL     1     -11.489  10.597  69.202  1.00  0.00    -0.259 OA 
HETATM    9  C   UNL     1     -10.868   9.388  69.337  1.00  0.00    -0.189 C  
HETATM   10  O   UNL     1     -11.400   8.858  71.594  1.00  0.00    -0.288 OA 
ENDROOT
BRANCH   1  11
HETATM   11  C   UNL     1      -8.159   7.190  68.875  1.00  0.00    -0.121 C  
HETATM   12  H   UNL     1      -6.476   8.201  69.257  1.00  0.00     0.000 HD 
HETATM   13  O   UNL     1      -7.414   8.348  69.292  1.00  0.00    -0.080 OA 
BRANCH  11  14
HETATM   14  C   UNL     1      -7.656   5.994  69.692  1.00  0.00    -0.089 C  
HETATM   15  O   UNL     1      -7.664   4.795  68.921  1.00  0.00    -0.071 OA 
HETATM   16  H   UNL     1      -7.353   4.054  69.427  1.00  0.00     0.000 HD 
ENDBRANCH  11  14
ENDBRANCH   1  11
TORSDOF 2
ENDMDL
MODEL      187
REMARK 921   NORMALIZED FREE ENERGY PREDICTED BY IDOCK:   -1.57 KCAL/MOL
REMARK 922        TOTAL FREE ENERGY PREDICTED BY IDOCK:   -2.13 KCAL/MOL
REMARK 923 INTER-LIGAND FREE ENERGY PREDICTED BY IDOCK:   -1.78 KCAL/MOL
REMARK 924 INTRA-LIGAND FREE ENERGY PREDICTED BY IDOCK:   -0.35 KCAL/MOL
REMARK 927      BINDING AFFINITY PREDICTED BY RF-SCORE:    0.00 PKD
ROOT
HETATM    1  C   UNL     1      -8.185   7.789  68.604  1.00  0.00    -0.128 C  
HETATM    2  O   UNL     1      -8.915   9.027  68.505  1.00  0.00    -0.133 OA 
HETATM    3  H   UNL     1      -9.335   4.849  67.432  1.00  0.00     0.000 HD 
HETATM    4  C   UNL     1     -10.103   8.801  67.875  1.00  0.00    -0.207 C  
HETATM    5  O   UNL     1      -8.758   5.480  67.846  1.00  0.00    -0.108 OA 
HETATM    6  H   UNL     1     -11.328   5.850  66.695  1.00  0.00     0.000 HD 
HETATM    7  C   UNL     1      -9.085   6.804  67.957  1.00  0.00    -0.119 C  
HETATM    8  O   UNL     1     -11.262   6.771  66.916  1.00  0.00    -0.375 OA 
HETATM    9  C   UNL     1     -10.204   7.376  67.533  1.00  0.00    -0.224 C  
HETATM   10  O   UNL     1     -10.971   9.625  67.641  1.00  0.00    -0.268 OA 
ENDROOT
BRANCH   1  11
HETATM   11  C   UNL     1      -6.764   7.939  68.011  1.00  0.00    -0.067 C  
HETATM   12  H   UNL     1      -5.916   8.551  66.306  1.00  0.00     0.000 HD 
HETATM   13  O   UNL     1      -6.789   8.459  66.670  1.00  0.00    -0.066 OA 
BRANCH  11  14
HETATM   14  C   UNL     1      -5.806   8.813  68.831  1.00  0.00    -0.040 C  
HETATM   15  O   UNL     1      -6.517   9.723  69.666  1.00  0.00    -0.043 OA 
HETATM   16  H   UNL     1      -5.924  10.264  70.174  1.00  0.00     0.000 HD 
ENDBRANCH  11  14
ENDBRANCH   1  11
TORSDOF 2
ENDMDL
MODEL      188
REMARK 921   NORMALIZED FREE ENERGY PREDICTED BY IDOCK:   -1.51 KCAL/MOL
REMARK 922        TOTAL FREE ENERGY PREDICTED BY IDOCK:   -2.06 KCAL/MOL
REMARK 923 INTER-LIGAND FREE ENERGY PREDICTED BY IDOCK:   -1.94 KCAL/MOL
REMARK 924 INTRA-LIGAND FREE ENERGY PREDICTED BY IDOCK:   -0.12 KCAL/MOL
REMARK 927      BINDING AFFINITY PREDICTED BY RF-SCORE:    0.00 PKD
ROOT
HETATM    1  C   UNL     1      -8.638   9.995  66.236  1.00  0.00    -0.129 C  
HETATM    2  O   UNL     1      -7.895  10.731  67.227  1.00  0.00    -0.109 OA 
HETATM    3  H   UNL     1     -10.923  11.399  64.200  1.00  0.00     0.000 HD 
HETATM    4  C   UNL     1      -8.268  12.041  67.189  1.00  0.00    -0.181 C  
HETATM    5  O   UNL     1     -10.374  10.736  64.601  1.00  0.00    -0.335 OA 
HETATM    6  H   UNL     1     -10.588  13.509  65.173  1.00  0.00     0.000 HD 
HETATM    7  C   UNL     1      -9.496  11.029  65.608  1.00  0.00    -0.217 C  
HETATM    8  O   UNL     1      -9.924  13.392  65.843  1.00  0.00    -0.289 OA 
HETATM    9  C   UNL     1      -9.294  12.222  66.154  1.00  0.00    -0.176 C  
HETATM   10  O   UNL     1      -7.850  12.938  67.903  1.00  0.00    -0.124 OA 
ENDROOT
BRANCH   1  11
HETATM   11  C   UNL     1      -7.685   9.210  65.303  1.00  0.00    -0.099 C  
HETATM   12  H   UNL     1      -5.720   8.892  65.105  1.00  0.00     0.000 HD 
HETATM   13  O   UNL     1      -6.305   9.374  65.677  1.00  0.00    -0.065 OA 
BRANCH  11  14
HETATM   14  C   UNL     1      -7.965   7.705  65.204  1.00  0.00    -0.130 C  
HETATM   15  O   UNL     1      -7.469   7.162  63.983  1.00  0.00    -0.084 OA 
HETATM   16  H   UNL     1      -7.642   6.230  63.922  1.00  0.00     0.000 HD 
ENDBRANCH  11  14
ENDBRANCH   1  11
TORSDOF 2
ENDMDL
MODEL      189
REMARK 921   NORMALIZED FREE ENERGY PREDICTED BY IDOCK:   -1.50 KCAL/MOL
REMARK 922        TOTAL FREE ENERGY PREDICTED BY IDOCK:   -2.06 KCAL/MOL
REMARK 923 INTER-LIGAND FREE ENERGY PREDICTED BY IDOCK:   -1.97 KCAL/MOL
REMARK 924 INTRA-LIGAND FREE ENERGY PREDICTED BY IDOCK:   -0.09 KCAL/MOL
REMARK 927      BINDING AFFINITY PREDICTED BY RF-SCORE:    0.00 PKD
ROOT
HETATM    1  C   UNL     1      -9.823   7.599  67.596  1.00  0.00    -0.164 C  
HETATM    2  O   UNL     1      -9.709   8.123  68.932  1.00  0.00    -0.152 OA 
HETATM    3  H   UNL     1      -7.413   7.902  65.263  1.00  0.00     0.000 HD 
HETATM    4  C   UNL     1      -8.499   8.736  69.075  1.00  0.00    -0.130 C  
HETATM    5  O   UNL     1      -8.238   7.661  65.667  1.00  0.00    -0.122 OA 
HETATM    6  H   UNL     1      -6.038   9.094  66.748  1.00  0.00     0.000 HD 
HETATM    7  C   UNL     1      -8.535   7.975  66.965  1.00  0.00    -0.120 C  
HETATM    8  O   UNL     1      -6.518   9.157  67.565  1.00  0.00    -0.062 OA 
HETATM    9  C   UNL     1      -7.757   8.639  67.811  1.00  0.00    -0.102 C  
HETATM   10  O   UNL     1      -8.082   9.300  70.072  1.00  0.00    -0.102 OA 
ENDROOT
BRANCH   1  11
HETATM   11  C   UNL     1     -10.180   6.094  67.624  1.00  0.00    -0.174 C  
HETATM   12  H   UNL     1     -11.249   4.835  68.751  1.00  0.00     0.000 HD 
HETATM   13  O   UNL     1     -11.030   5.759  68.734  1.00  0.00    -0.271 OA 
BRANCH  11  14
HETATM   14  C   UNL     1     -10.847   5.560  66.350  1.00  0.00    -0.122 C  
HETATM   15  O   UNL     1     -10.422   4.231  66.056  1.00  0.00    -0.444 OA 
HETATM   16  H   UNL     1     -10.835   3.901  65.267  1.00  0.00     0.000 HD 
ENDBRANCH  11  14
ENDBRANCH   1  11
TORSDOF 2
ENDMDL
MODEL      190
REMARK 921   NORMALIZED FREE ENERGY PREDICTED BY IDOCK:   -1.44 KCAL/MOL
REMARK 922        TOTAL FREE ENERGY PREDICTED BY IDOCK:   -1.98 KCAL/MOL
REMARK 923 INTER-LIGAND FREE ENERGY PREDICTED BY IDOCK:   -1.78 KCAL/MOL
REMARK 924 INTRA-LIGAND FREE ENERGY PREDICTED BY IDOCK:   -0.21 KCAL/MOL
REMARK 927      BINDING AFFINITY PREDICTED BY RF-SCORE:    0.00 PKD
ROOT
HETATM    1  C   UNL     1      -7.918   6.782  68.497  1.00  0.00    -0.119 C  
HETATM    2  O   UNL     1      -9.181   6.919  69.175  1.00  0.00    -0.142 OA 
HETATM    3  H   UNL     1      -6.184   3.899  68.355  1.00  0.00     0.000 HD 
HETATM    4  C   UNL     1      -9.532   5.721  69.723  1.00  0.00    -0.148 C  
HETATM    5  O   UNL     1      -6.410   4.811  68.218  1.00  0.00    -0.034 OA 
HETATM    6  H   UNL     1      -7.809   2.784  69.633  1.00  0.00     0.000 HD 
HETATM    7  C   UNL     1      -7.564   5.358  68.710  1.00  0.00    -0.079 C  
HETATM    8  O   UNL     1      -8.482   3.426  69.827  1.00  0.00    -0.051 OA 
HETATM    9  C   UNL     1      -8.490   4.730  69.423  1.00  0.00    -0.082 C  
HETATM   10  O   UNL     1     -10.532   5.486  70.379  1.00  0.00    -0.255 OA 
ENDROOT
BRANCH   1  11
HETATM   11  C   UNL     1      -8.023   7.270  67.032  1.00  0.00    -0.109 C  
HETATM   12  H   UNL     1      -7.930   6.493  65.192  1.00  0.00     0.000 HD 
HETATM   13  O   UNL     1      -7.865   6.194  66.091  1.00  0.00    -0.100 OA 
BRANCH  11  14
HETATM   14  C   UNL     1      -9.324   8.005  66.684  1.00  0.00    -0.197 C  
HETATM   15  O   UNL     1     -10.356   7.092  66.317  1.00  0.00    -0.461 OA 
HETATM   16  H   UNL     1     -11.161   7.548  66.101  1.00  0.00     0.000 HD 
ENDBRANCH  11  14
ENDBRANCH   1  11
TORSDOF 2
ENDMDL
MODEL      191
REMARK 921   NORMALIZED FREE ENERGY PREDICTED BY IDOCK:   -1.01 KCAL/MOL
REMARK 922        TOTAL FREE ENERGY PREDICTED BY IDOCK:   -1.51 KCAL/MOL
REMARK 923 INTER-LIGAND FREE ENERGY PREDICTED BY IDOCK:   -1.18 KCAL/MOL
REMARK 924 INTRA-LIGAND FREE ENERGY PREDICTED BY IDOCK:   -0.33 KCAL/MOL
REMARK 927      BINDING AFFINITY PREDICTED BY RF-SCORE:    0.00 PKD
ROOT
HETATM    1  C   UNL     1      -8.058   9.139  66.460  1.00  0.00    -0.107 C  
HETATM    2  O   UNL     1      -6.926   8.699  67.234  1.00  0.00    -0.073 OA 
HETATM    3  H   UNL     1      -9.643  12.065  66.977  1.00  0.00     0.000 HD 
HETATM    4  C   UNL     1      -6.625   9.643  68.171  1.00  0.00    -0.061 C  
HETATM    5  O   UNL     1      -9.430  11.221  66.597  1.00  0.00    -0.179 OA 
HETATM    6  H   UNL     1      -8.206  12.603  68.755  1.00  0.00     0.000 HD 
HETATM    7  C   UNL     1      -8.391  10.457  67.053  1.00  0.00    -0.127 C  
HETATM    8  O   UNL     1      -7.595  11.879  68.833  1.00  0.00    -0.108 OA 
HETATM    9  C   UNL     1      -7.569  10.761  68.049  1.00  0.00    -0.092 C  
HETATM   10  O   UNL     1      -5.735   9.585  69.003  1.00  0.00    -0.036 OA 
ENDROOT
BRANCH   1  11
HETATM   11  C   UNL     1      -7.736   9.109  64.947  1.00  0.00    -0.110 C  
HETATM   12  H   UNL     1      -6.173   9.454  63.748  1.00  0.00     0.000 HD 
HETATM   13  O   UNL     1      -6.371   9.473  64.677  1.00  0.00    -0.076 OA 
BRANCH  11  14
HETATM   14  C   UNL     1      -8.007   7.769  64.251  1.00  0.00    -0.120 C  
HETATM   15  O   UNL     1      -7.764   6.669  65.126  1.00  0.00    -0.087 OA 
HETATM   16  H   UNL     1      -7.932   5.840  64.695  1.00  0.00     0.000 HD 
ENDBRANCH  11  14
ENDBRANCH   1  11
TORSDOF 2
ENDMDL
MODEL      192
REMARK 921   NORMALIZED FREE ENERGY PREDICTED BY IDOCK:   -0.94 KCAL/MOL
REMARK 922        TOTAL FREE ENERGY PREDICTED BY IDOCK:   -1.43 KCAL/MOL
REMARK 923 INTER-LIGAND FREE ENERGY PREDICTED BY IDOCK:   -1.65 KCAL/MOL
REMARK 924 INTRA-LIGAND FREE ENERGY PREDICTED BY IDOCK:    0.22 KCAL/MOL
REMARK 927      BINDING AFFINITY PREDICTED BY RF-SCORE:    0.00 PKD
ROOT
HETATM    1  C   UNL     1     -10.029  11.721  65.661  1.00  0.00    -0.240 C  
HETATM    2  O   UNL     1      -9.762  10.715  66.657  1.00  0.00    -0.174 OA 
HETATM    3  H   UNL     1      -8.263  12.034  62.811  1.00  0.00     0.000 HD 
HETATM    4  C   UNL     1      -8.712   9.945  66.251  1.00  0.00    -0.139 C  
HETATM    5  O   UNL     1      -8.916  12.206  63.479  1.00  0.00     0.275 OA 
HETATM    6  H   UNL     1      -6.876  10.232  63.397  1.00  0.00     0.000 HD 
HETATM    7  C   UNL     1      -9.009  11.453  64.618  1.00  0.00     0.163 C  
HETATM    8  O   UNL     1      -7.185   9.920  64.240  1.00  0.00    -0.125 OA 
HETATM    9  C   UNL     1      -8.236  10.427  64.948  1.00  0.00    -0.145 C  
HETATM   10  O   UNL     1      -8.214   9.014  66.861  1.00  0.00    -0.113 OA 
ENDROOT
BRANCH   1  11
HETATM   11  C   UNL     1     -11.512  11.682  65.222  1.00  0.00    -0.105 C  
HETATM   12  H   UNL     1     -13.110  12.884  65.260  1.00  0.00     0.000 HD 
HETATM   13  O   UNL     1     -12.200  12.907  65.530  1.00  0.00    -0.435 OA 
BRANCH  11  14
HETATM   14  C   UNL     1     -11.742  11.379  63.736  1.00  0.00     0.003 C  
HETATM   15  O   UNL     1     -13.084  11.664  63.348  1.00  0.00    -0.611 OA 
HETATM   16  H   UNL     1     -13.227  11.477  62.428  1.00  0.00     0.000 HD 
ENDBRANCH  11  14
ENDBRANCH   1  11
TORSDOF 2
ENDMDL
MODEL      193
REMARK 921   NORMALIZED FREE ENERGY PREDICTED BY IDOCK:   -0.70 KCAL/MOL
REMARK 922        TOTAL FREE ENERGY PREDICTED BY IDOCK:   -1.16 KCAL/MOL
REMARK 923 INTER-LIGAND FREE ENERGY PREDICTED BY IDOCK:   -1.21 KCAL/MOL
REMARK 924 INTRA-LIGAND FREE ENERGY PREDICTED BY IDOCK:    0.05 KCAL/MOL
REMARK 927      BINDING AFFINITY PREDICTED BY RF-SCORE:    0.00 PKD
ROOT
HETATM    1  C   UNL     1      -6.635   8.615  66.263  1.00  0.00    -0.062 C  
HETATM    2  O   UNL     1      -8.024   8.509  65.897  1.00  0.00    -0.098 OA 
HETATM    3  H   UNL     1      -5.249  11.416  67.519  1.00  0.00     0.000 HD 
HETATM    4  C   UNL     1      -8.648   9.696  66.144  1.00  0.00    -0.127 C  
HETATM    5  O   UNL     1      -5.327  10.524  67.204  1.00  0.00    -0.040 OA 
HETATM    6  H   UNL     1      -7.294  12.564  67.386  1.00  0.00     0.000 HD 
HETATM    7  C   UNL     1      -6.513  10.009  66.755  1.00  0.00    -0.070 C  
HETATM    8  O   UNL     1      -7.925  11.947  67.033  1.00  0.00    -0.158 OA 
HETATM    9  C   UNL     1      -7.673  10.650  66.689  1.00  0.00    -0.132 C  
HETATM   10  O   UNL     1      -9.820   9.959  65.935  1.00  0.00    -0.237 OA 
ENDROOT
BRANCH   1  11
HETATM   11  C   UNL     1      -6.235   7.486  67.242  1.00  0.00    -0.052 C  
HETATM   12  H   UNL     1      -5.495   7.308  69.091  1.00  0.00     0.000 HD 
HETATM   13  O   UNL     1      -5.740   8.001  68.490  1.00  0.00    -0.031 OA 
BRANCH  11  14
HETATM   14  C   UNL     1      -7.348   6.480  67.563  1.00  0.00    -0.095 C  
HETATM   15  O   UNL     1      -7.840   6.653  68.890  1.00  0.00    -0.107 OA 
HETATM   16  H   UNL     1      -8.529   6.030  69.089  1.00  0.00     0.000 HD 
ENDBRANCH  11  14
ENDBRANCH   1  11
TORSDOF 2
ENDMDL
