MODEL        1
REMARK 921   NORMALIZED FREE ENERGY PREDICTED BY IDOCK:   -4.86 KCAL/MOL
REMARK 922        TOTAL FREE ENERGY PREDICTED BY IDOCK:   -5.68 KCAL/MOL
REMARK 923 INTER-LIGAND FREE ENERGY PREDICTED BY IDOCK:   -5.42 KCAL/MOL
REMARK 924 INTRA-LIGAND FREE ENERGY PREDICTED BY IDOCK:   -0.26 KCAL/MOL
REMARK 927      BINDING AFFINITY PREDICTED BY RF-SCORE:    0.00 PKD
ROOT
ATOM      1  N   ASN A   1     -12.510  14.337  63.521  1.00  0.00    -1.102 NA 
ATOM      2  H1  ASN A   1     -13.258  15.019  63.647  1.00  0.00     0.000 HD 
ATOM      3  H2  ASN A   1     -12.875  13.393  63.398  1.00  0.00     0.000 HD 
ATOM      4  CA  ASN A   1     -11.530  14.414  64.656  1.00  0.00    -0.387 C  
ATOM      5  OXT ASN A   1     -10.140  16.237  65.514  1.00  0.00    -0.477 OA 
ATOM      6  C   ASN A   1     -10.990  15.849  64.729  1.00  0.00    -0.375 C  
ATOM      7  O   ASN A   1     -11.617  16.666  63.844  1.00  0.00    -1.204 OA 
ENDROOT
BRANCH   4   8
ATOM      8  CB  ASN A   1     -10.412  13.395  64.468  1.00  0.00    -0.431 C  
BRANCH   8   9
ATOM      9  CG  ASN A   1     -10.815  11.950  64.250  1.00  0.00    -0.344 C  
ATOM     10  ND2 ASN A   1     -11.247  11.573  63.016  1.00  0.00    -0.823 N  
ATOM     11  OD1 ASN A   1     -10.646  11.102  65.122  1.00  0.00    -0.284 OA 
ATOM     12 1HD2 ASN A   1     -11.517  10.600  62.870  1.00  0.00     0.000 HD 
ATOM     13 2HD2 ASN A   1     -11.299  12.248  62.253  1.00  0.00     0.000 HD 
ENDBRANCH   8   9
ENDBRANCH   4   8
TORSDOF 2
ENDMDL
MODEL        2
REMARK 921   NORMALIZED FREE ENERGY PREDICTED BY IDOCK:   -4.80 KCAL/MOL
REMARK 922        TOTAL FREE ENERGY PREDICTED BY IDOCK:   -5.62 KCAL/MOL
REMARK 923 INTER-LIGAND FREE ENERGY PREDICTED BY IDOCK:   -5.36 KCAL/MOL
REMARK 924 INTRA-LIGAND FREE ENERGY PREDICTED BY IDOCK:   -0.25 KCAL/MOL
REMARK 927      BINDING AFFINITY PREDICTED BY RF-SCORE:    0.00 PKD
ROOT
ATOM      1  N   ASN A   1     -12.443  14.452  63.476  1.00  0.00    -1.090 NA 
ATOM      2  H1  ASN A   1     -12.559  13.751  62.743  1.00  0.00     0.000 HD 
ATOM      3  H2  ASN A   1     -12.052  15.320  63.111  1.00  0.00     0.000 HD 
ATOM      4  CA  ASN A   1     -11.620  13.901  64.605  1.00  0.00    -0.385 C  
ATOM      5  OXT ASN A   1     -11.923  11.968  66.076  1.00  0.00    -0.559 OA 
ATOM      6  C   ASN A   1     -12.310  12.634  65.130  1.00  0.00    -0.484 C  
ATOM      7  O   ASN A   1     -13.387  12.299  64.372  1.00  0.00    -0.786 OA 
ENDROOT
BRANCH   4   8
ATOM      8  CB  ASN A   1     -11.446  14.948  65.700  1.00  0.00    -0.290 C  
BRANCH   8   9
ATOM      9  CG  ASN A   1     -10.664  16.199  65.352  1.00  0.00    -0.358 C  
ATOM     10  ND2 ASN A   1      -9.403  16.337  65.845  1.00  0.00    -0.312 N  
ATOM     11  OD1 ASN A   1     -11.098  17.019  64.547  1.00  0.00    -1.098 OA 
ATOM     12 1HD2 ASN A   1      -8.877  17.179  65.610  1.00  0.00     0.000 HD 
ATOM     13 2HD2 ASN A   1      -8.993  15.615  66.436  1.00  0.00     0.000 HD 
ENDBRANCH   8   9
ENDBRANCH   4   8
TORSDOF 2
ENDMDL
MODEL        3
REMARK 921   NORMALIZED FREE ENERGY PREDICTED BY IDOCK:   -4.72 KCAL/MOL
REMARK 922        TOTAL FREE ENERGY PREDICTED BY IDOCK:   -5.54 KCAL/MOL
REMARK 923 INTER-LIGAND FREE ENERGY PREDICTED BY IDOCK:   -5.31 KCAL/MOL
REMARK 924 INTRA-LIGAND FREE ENERGY PREDICTED BY IDOCK:   -0.23 KCAL/MOL
REMARK 927      BINDING AFFINITY PREDICTED BY RF-SCORE:    0.00 PKD
ROOT
ATOM      1  N   ASN A   1     -11.433  16.335  64.031  1.00  0.00    -1.521 NA 
ATOM      2  H1  ASN A   1     -11.538  17.311  64.306  1.00  0.00     0.000 HD 
ATOM      3  H2  ASN A   1     -12.207  16.020  63.447  1.00  0.00     0.000 HD 
ATOM      4  CA  ASN A   1     -11.257  15.463  65.241  1.00  0.00    -0.310 C  
ATOM      5  OXT ASN A   1      -9.596  15.454  67.039  1.00  0.00    -0.211 OA 
ATOM      6  C   ASN A   1     -10.039  15.970  66.026  1.00  0.00    -0.341 C  
ATOM      7  O   ASN A   1      -9.537  17.112  65.489  1.00  0.00    -0.508 OA 
ENDROOT
BRANCH   4   8
ATOM      8  CB  ASN A   1     -11.099  14.003  64.830  1.00  0.00    -0.391 C  
BRANCH   8   9
ATOM      9  CG  ASN A   1     -12.302  13.319  64.211  1.00  0.00    -0.340 C  
ATOM     10  ND2 ASN A   1     -12.468  13.388  62.862  1.00  0.00    -0.837 N  
ATOM     11  OD1 ASN A   1     -13.050  12.613  64.882  1.00  0.00    -0.850 OA 
ATOM     12 1HD2 ASN A   1     -13.278  12.927  62.446  1.00  0.00     0.000 HD 
ATOM     13 2HD2 ASN A   1     -11.798  13.890  62.280  1.00  0.00     0.000 HD 
ENDBRANCH   8   9
ENDBRANCH   4   8
TORSDOF 2
ENDMDL
MODEL        4
REMARK 921   NORMALIZED FREE ENERGY PREDICTED BY IDOCK:   -4.55 KCAL/MOL
REMARK 922        TOTAL FREE ENERGY PREDICTED BY IDOCK:   -5.34 KCAL/MOL
REMARK 923 INTER-LIGAND FREE ENERGY PREDICTED BY IDOCK:   -4.88 KCAL/MOL
REMARK 924 INTRA-LIGAND FREE ENERGY PREDICTED BY IDOCK:   -0.46 KCAL/MOL
REMARK 927      BINDING AFFINITY PREDICTED BY RF-SCORE:    0.00 PKD
ROOT
ATOM      1  N   ASN A   1     -12.387  14.789  63.781  1.00  0.00    -1.082 NA 
ATOM      2  H1  ASN A   1     -12.486  15.803  63.818  1.00  0.00     0.000 HD 
ATOM      3  H2  ASN A   1     -13.102  14.359  63.195  1.00  0.00     0.000 HD 
ATOM      4  CA  ASN A   1     -12.379  14.209  65.167  1.00  0.00    -0.451 C  
ATOM      5  OXT ASN A   1     -10.931  14.587  67.104  1.00  0.00    -0.290 OA 
ATOM      6  C   ASN A   1     -11.239  14.868  65.957  1.00  0.00    -0.327 C  
ATOM      7  O   ASN A   1     -10.638  15.854  65.242  1.00  0.00    -0.394 OA 
ENDROOT
BRANCH   4   8
ATOM      8  CB  ASN A   1     -12.229  12.693  65.111  1.00  0.00    -0.539 C  
BRANCH   8   9
ATOM      9  CG  ASN A   1     -11.734  12.088  63.813  1.00  0.00    -0.481 C  
ATOM     10  ND2 ASN A   1     -12.644  11.546  62.958  1.00  0.00    -0.904 N  
ATOM     11  OD1 ASN A   1     -10.559  12.184  63.471  1.00  0.00    -0.414 OA 
ATOM     12 1HD2 ASN A   1     -12.310  11.139  62.084  1.00  0.00     0.000 HD 
ATOM     13 2HD2 ASN A   1     -13.638  11.547  63.185  1.00  0.00     0.000 HD 
ENDBRANCH   8   9
ENDBRANCH   4   8
TORSDOF 2
ENDMDL
MODEL        5
REMARK 921   NORMALIZED FREE ENERGY PREDICTED BY IDOCK:   -4.47 KCAL/MOL
REMARK 922        TOTAL FREE ENERGY PREDICTED BY IDOCK:   -5.25 KCAL/MOL
REMARK 923 INTER-LIGAND FREE ENERGY PREDICTED BY IDOCK:   -5.14 KCAL/MOL
REMARK 924 INTRA-LIGAND FREE ENERGY PREDICTED BY IDOCK:   -0.11 KCAL/MOL
REMARK 927      BINDING AFFINITY PREDICTED BY RF-SCORE:    0.00 PKD
ROOT
ATOM      1  N   ASN A   1     -12.494  13.873  63.091  1.00  0.00    -1.079 NA 
ATOM      2  H1  ASN A   1     -13.508  13.967  63.152  1.00  0.00     0.000 HD 
ATOM      3  H2  ASN A   1     -12.179  13.787  62.126  1.00  0.00     0.000 HD 
ATOM      4  CA  ASN A   1     -12.020  12.727  63.937  1.00  0.00    -0.480 C  
ATOM      5  OXT ASN A   1     -12.228  12.245  66.328  1.00  0.00    -0.628 OA 
ATOM      6  C   ASN A   1     -12.487  12.968  65.380  1.00  0.00    -0.476 C  
ATOM      7  O   ASN A   1     -13.282  14.066  65.472  1.00  0.00    -0.710 OA 
ENDROOT
BRANCH   4   8
ATOM      8  CB  ASN A   1     -10.505  12.587  63.847  1.00  0.00    -0.464 C  
BRANCH   8   9
ATOM      9  CG  ASN A   1      -9.939  11.185  63.734  1.00  0.00    -0.350 C  
ATOM     10  ND2 ASN A   1     -10.096  10.512  62.561  1.00  0.00    -0.752 N  
ATOM     11  OD1 ASN A   1      -9.248  10.701  64.626  1.00  0.00    -0.201 OA 
ATOM     12 1HD2 ASN A   1      -9.715   9.569  62.485  1.00  0.00     0.000 HD 
ATOM     13 2HD2 ASN A   1     -10.584  10.941  61.776  1.00  0.00     0.000 HD 
ENDBRANCH   8   9
ENDBRANCH   4   8
TORSDOF 2
ENDMDL
MODEL        6
REMARK 921   NORMALIZED FREE ENERGY PREDICTED BY IDOCK:   -4.43 KCAL/MOL
REMARK 922        TOTAL FREE ENERGY PREDICTED BY IDOCK:   -5.20 KCAL/MOL
REMARK 923 INTER-LIGAND FREE ENERGY PREDICTED BY IDOCK:   -5.03 KCAL/MOL
REMARK 924 INTRA-LIGAND FREE ENERGY PREDICTED BY IDOCK:   -0.17 KCAL/MOL
REMARK 927      BINDING AFFINITY PREDICTED BY RF-SCORE:    0.00 PKD
ROOT
ATOM      1  N   ASN A   1     -12.166  14.058  67.892  1.00  0.00    -0.520 NA 
ATOM      2  H1  ASN A   1     -12.788  13.396  68.356  1.00  0.00     0.000 HD 
ATOM      3  H2  ASN A   1     -12.354  15.018  68.177  1.00  0.00     0.000 HD 
ATOM      4  CA  ASN A   1     -12.241  13.895  66.401  1.00  0.00    -0.449 C  
ATOM      5  OXT ASN A   1     -11.812  11.988  64.927  1.00  0.00    -0.319 OA 
ATOM      6  C   ASN A   1     -11.888  12.440  66.058  1.00  0.00    -0.395 C  
ATOM      7  O   ASN A   1     -11.722  11.687  67.176  1.00  0.00    -0.566 OA 
ENDROOT
BRANCH   4   8
ATOM      8  CB  ASN A   1     -11.311  14.884  65.707  1.00  0.00    -0.314 C  
BRANCH   8   9
ATOM      9  CG  ASN A   1     -11.717  15.376  64.332  1.00  0.00    -0.258 C  
ATOM     10  ND2 ASN A   1     -12.516  14.584  63.567  1.00  0.00    -1.063 N  
ATOM     11  OD1 ASN A   1     -11.439  16.510  63.952  1.00  0.00    -1.145 OA 
ATOM     12 1HD2 ASN A   1     -12.789  14.915  62.641  1.00  0.00     0.000 HD 
ATOM     13 2HD2 ASN A   1     -12.836  13.679  63.911  1.00  0.00     0.000 HD 
ENDBRANCH   8   9
ENDBRANCH   4   8
TORSDOF 2
ENDMDL
MODEL        7
REMARK 921   NORMALIZED FREE ENERGY PREDICTED BY IDOCK:   -4.42 KCAL/MOL
REMARK 922        TOTAL FREE ENERGY PREDICTED BY IDOCK:   -5.20 KCAL/MOL
REMARK 923 INTER-LIGAND FREE ENERGY PREDICTED BY IDOCK:   -5.02 KCAL/MOL
REMARK 924 INTRA-LIGAND FREE ENERGY PREDICTED BY IDOCK:   -0.18 KCAL/MOL
REMARK 927      BINDING AFFINITY PREDICTED BY RF-SCORE:    0.00 PKD
ROOT
ATOM      1  N   ASN A   1     -10.228  13.964  65.977  1.00  0.00    -0.301 NA 
ATOM      2  H1  ASN A   1      -9.333  14.400  66.200  1.00  0.00     0.000 HD 
ATOM      3  H2  ASN A   1     -10.152  12.949  65.922  1.00  0.00     0.000 HD 
ATOM      4  CA  ASN A   1     -10.800  14.550  64.718  1.00  0.00    -0.393 C  
ATOM      5  OXT ASN A   1     -11.409  16.836  64.091  1.00  0.00    -1.194 OA 
ATOM      6  C   ASN A   1     -10.934  16.067  64.910  1.00  0.00    -0.384 C  
ATOM      7  O   ASN A   1     -10.404  16.471  66.094  1.00  0.00    -0.319 OA 
ENDROOT
BRANCH   4   8
ATOM      8  CB  ASN A   1     -12.137  13.898  64.384  1.00  0.00    -0.477 C  
BRANCH   8   9
ATOM      9  CG  ASN A   1     -12.104  12.584  63.629  1.00  0.00    -0.554 C  
ATOM     10  ND2 ASN A   1     -10.916  12.150  63.129  1.00  0.00    -0.681 N  
ATOM     11  OD1 ASN A   1     -13.093  11.859  63.568  1.00  0.00    -0.715 OA 
ATOM     12 1HD2 ASN A   1     -10.894  11.266  62.621  1.00  0.00     0.000 HD 
ATOM     13 2HD2 ASN A   1     -10.065  12.697  63.259  1.00  0.00     0.000 HD 
ENDBRANCH   8   9
ENDBRANCH   4   8
TORSDOF 2
ENDMDL
MODEL        8
REMARK 921   NORMALIZED FREE ENERGY PREDICTED BY IDOCK:   -4.41 KCAL/MOL
REMARK 922        TOTAL FREE ENERGY PREDICTED BY IDOCK:   -5.19 KCAL/MOL
REMARK 923 INTER-LIGAND FREE ENERGY PREDICTED BY IDOCK:   -4.95 KCAL/MOL
REMARK 924 INTRA-LIGAND FREE ENERGY PREDICTED BY IDOCK:   -0.24 KCAL/MOL
REMARK 927      BINDING AFFINITY PREDICTED BY RF-SCORE:    0.00 PKD
ROOT
ATOM      1  N   ASN A   1     -11.423  16.357  63.927  1.00  0.00    -1.618 NA 
ATOM      2  H1  ASN A   1     -11.423  16.060  62.951  1.00  0.00     0.000 HD 
ATOM      3  H2  ASN A   1     -10.901  17.222  64.061  1.00  0.00     0.000 HD 
ATOM      4  CA  ASN A   1     -10.913  15.256  64.812  1.00  0.00    -0.386 C  
ATOM      5  OXT ASN A   1     -11.670  12.959  65.191  1.00  0.00    -0.318 OA 
ATOM      6  C   ASN A   1     -11.789  14.015  64.591  1.00  0.00    -0.417 C  
ATOM      7  O   ASN A   1     -12.692  14.210  63.594  1.00  0.00    -0.790 OA 
ENDROOT
BRANCH   4   8
ATOM      8  CB  ASN A   1     -10.914  15.699  66.271  1.00  0.00    -0.201 C  
BRANCH   8   9
ATOM      9  CG  ASN A   1     -10.397  17.091  66.578  1.00  0.00    -0.298 C  
ATOM     10  ND2 ASN A   1     -10.587  17.595  67.828  1.00  0.00    -0.386 N  
ATOM     11  OD1 ASN A   1      -9.715  17.712  65.767  1.00  0.00    -0.537 OA 
ATOM     12 1HD2 ASN A   1     -10.239  18.531  68.034  1.00  0.00     0.000 HD 
ATOM     13 2HD2 ASN A   1     -11.067  17.048  68.542  1.00  0.00     0.000 HD 
ENDBRANCH   8   9
ENDBRANCH   4   8
TORSDOF 2
ENDMDL
MODEL        9
REMARK 921   NORMALIZED FREE ENERGY PREDICTED BY IDOCK:   -4.35 KCAL/MOL
REMARK 922        TOTAL FREE ENERGY PREDICTED BY IDOCK:   -5.12 KCAL/MOL
REMARK 923 INTER-LIGAND FREE ENERGY PREDICTED BY IDOCK:   -4.77 KCAL/MOL
REMARK 924 INTRA-LIGAND FREE ENERGY PREDICTED BY IDOCK:   -0.35 KCAL/MOL
REMARK 927      BINDING AFFINITY PREDICTED BY RF-SCORE:    0.00 PKD
ROOT
ATOM      1  N   ASN A   1     -12.389  14.495  64.077  1.00  0.00    -0.974 NA 
ATOM      2  H1  ASN A   1     -12.725  14.513  63.114  1.00  0.00     0.000 HD 
ATOM      3  H2  ASN A   1     -12.157  15.429  64.414  1.00  0.00     0.000 HD 
ATOM      4  CA  ASN A   1     -11.232  13.549  64.214  1.00  0.00    -0.360 C  
ATOM      5  OXT ASN A   1     -10.998  11.153  63.766  1.00  0.00    -0.363 OA 
ATOM      6  C   ASN A   1     -11.687  12.160  63.742  1.00  0.00    -0.485 C  
ATOM      7  O   ASN A   1     -12.945  12.192  63.232  1.00  0.00    -0.735 OA 
ENDROOT
BRANCH   4   8
ATOM      8  CB  ASN A   1     -10.730  13.523  65.653  1.00  0.00    -0.284 C  
BRANCH   8   9
ATOM      9  CG  ASN A   1     -11.756  13.295  66.746  1.00  0.00    -0.385 C  
ATOM     10  ND2 ASN A   1     -12.403  14.373  67.266  1.00  0.00    -0.594 N  
ATOM     11  OD1 ASN A   1     -12.093  12.162  67.079  1.00  0.00    -0.591 OA 
ATOM     12 1HD2 ASN A   1     -13.094  14.219  68.001  1.00  0.00     0.000 HD 
ATOM     13 2HD2 ASN A   1     -12.204  15.314  66.928  1.00  0.00     0.000 HD 
ENDBRANCH   8   9
ENDBRANCH   4   8
TORSDOF 2
ENDMDL
MODEL       10
REMARK 921   NORMALIZED FREE ENERGY PREDICTED BY IDOCK:   -4.29 KCAL/MOL
REMARK 922        TOTAL FREE ENERGY PREDICTED BY IDOCK:   -5.05 KCAL/MOL
REMARK 923 INTER-LIGAND FREE ENERGY PREDICTED BY IDOCK:   -4.69 KCAL/MOL
REMARK 924 INTRA-LIGAND FREE ENERGY PREDICTED BY IDOCK:   -0.37 KCAL/MOL
REMARK 927      BINDING AFFINITY PREDICTED BY RF-SCORE:    0.00 PKD
ROOT
ATOM      1  N   ASN A   1     -10.081  13.808  64.432  1.00  0.00    -0.752 NA 
ATOM      2  H1  ASN A   1     -10.138  14.493  63.679  1.00  0.00     0.000 HD 
ATOM      3  H2  ASN A   1      -9.123  13.684  64.759  1.00  0.00     0.000 HD 
ATOM      4  CA  ASN A   1     -10.699  12.507  64.009  1.00  0.00    -0.415 C  
ATOM      5  OXT ASN A   1     -12.947  11.923  63.237  1.00  0.00    -0.707 OA 
ATOM      6  C   ASN A   1     -12.151  12.777  63.592  1.00  0.00    -0.543 C  
ATOM      7  O   ASN A   1     -12.438  14.105  63.607  1.00  0.00    -0.819 OA 
ENDROOT
BRANCH   4   8
ATOM      8  CB  ASN A   1     -10.613  11.483  65.135  1.00  0.00    -0.350 C  
BRANCH   8   9
ATOM      9  CG  ASN A   1     -10.945  11.956  66.536  1.00  0.00    -0.292 C  
ATOM     10  ND2 ASN A   1      -9.962  12.534  67.278  1.00  0.00    -0.209 N  
ATOM     11  OD1 ASN A   1     -12.097  11.937  66.960  1.00  0.00    -0.600 OA 
ATOM     12 1HD2 ASN A   1     -10.186  12.853  68.221  1.00  0.00     0.000 HD 
ATOM     13 2HD2 ASN A   1      -9.021  12.646  66.901  1.00  0.00     0.000 HD 
ENDBRANCH   8   9
ENDBRANCH   4   8
TORSDOF 2
ENDMDL
MODEL       11
REMARK 921   NORMALIZED FREE ENERGY PREDICTED BY IDOCK:   -4.29 KCAL/MOL
REMARK 922        TOTAL FREE ENERGY PREDICTED BY IDOCK:   -5.05 KCAL/MOL
REMARK 923 INTER-LIGAND FREE ENERGY PREDICTED BY IDOCK:   -4.75 KCAL/MOL
REMARK 924 INTRA-LIGAND FREE ENERGY PREDICTED BY IDOCK:   -0.30 KCAL/MOL
REMARK 927      BINDING AFFINITY PREDICTED BY RF-SCORE:    0.00 PKD
ROOT
ATOM      1  N   ASN A   1      -9.985  13.252  64.650  1.00  0.00    -0.616 NA 
ATOM      2  H1  ASN A   1      -9.207  12.622  64.846  1.00  0.00     0.000 HD 
ATOM      3  H2  ASN A   1      -9.668  14.123  64.225  1.00  0.00     0.000 HD 
ATOM      4  CA  ASN A   1     -10.790  13.498  65.893  1.00  0.00    -0.275 C  
ATOM      5  OXT ASN A   1     -11.991  11.993  67.404  1.00  0.00    -0.583 OA 
ATOM      6  C   ASN A   1     -11.273  12.143  66.429  1.00  0.00    -0.331 C  
ATOM      7  O   ASN A   1     -10.756  11.108  65.716  1.00  0.00    -0.250 OA 
ENDROOT
BRANCH   4   8
ATOM      8  CB  ASN A   1     -11.952  14.440  65.600  1.00  0.00    -0.356 C  
BRANCH   8   9
ATOM      9  CG  ASN A   1     -12.123  14.913  64.170  1.00  0.00    -0.267 C  
ATOM     10  ND2 ASN A   1     -12.497  14.009  63.225  1.00  0.00    -1.112 N  
ATOM     11  OD1 ASN A   1     -12.048  16.104  63.878  1.00  0.00    -0.956 OA 
ATOM     12 1HD2 ASN A   1     -12.612  14.327  62.263  1.00  0.00     0.000 HD 
ATOM     13 2HD2 ASN A   1     -12.659  13.033  63.472  1.00  0.00     0.000 HD 
ENDBRANCH   8   9
ENDBRANCH   4   8
TORSDOF 2
ENDMDL
MODEL       12
REMARK 921   NORMALIZED FREE ENERGY PREDICTED BY IDOCK:   -4.28 KCAL/MOL
REMARK 922        TOTAL FREE ENERGY PREDICTED BY IDOCK:   -5.04 KCAL/MOL
REMARK 923 INTER-LIGAND FREE ENERGY PREDICTED BY IDOCK:   -4.77 KCAL/MOL
REMARK 924 INTRA-LIGAND FREE ENERGY PREDICTED BY IDOCK:   -0.27 KCAL/MOL
REMARK 927      BINDING AFFINITY PREDICTED BY RF-SCORE:    0.00 PKD
ROOT
ATOM      1  N   ASN A   1     -12.469  14.190  63.212  1.00  0.00    -1.098 NA 
ATOM      2  H1  ASN A   1     -13.257  14.833  63.292  1.00  0.00     0.000 HD 
ATOM      3  H2  ASN A   1     -12.772  13.249  62.961  1.00  0.00     0.000 HD 
ATOM      4  CA  ASN A   1     -11.653  14.195  64.472  1.00  0.00    -0.389 C  
ATOM      5  OXT ASN A   1     -10.472  15.977  65.664  1.00  0.00    -0.358 OA 
ATOM      6  C   ASN A   1     -11.192  15.635  64.741  1.00  0.00    -0.382 C  
ATOM      7  O   ASN A   1     -11.732  16.508  63.851  1.00  0.00    -1.148 OA 
ENDROOT
BRANCH   4   8
ATOM      8  CB  ASN A   1     -10.476  13.235  64.352  1.00  0.00    -0.424 C  
BRANCH   8   9
ATOM      9  CG  ASN A   1     -10.038  12.506  65.607  1.00  0.00    -0.269 C  
ATOM     10  ND2 ASN A   1      -9.141  13.112  66.432  1.00  0.00    -0.447 N  
ATOM     11  OD1 ASN A   1     -10.562  11.449  65.947  1.00  0.00    -0.255 OA 
ATOM     12 1HD2 ASN A   1      -8.847  12.621  67.277  1.00  0.00     0.000 HD 
ATOM     13 2HD2 ASN A   1      -8.771  14.036  66.211  1.00  0.00     0.000 HD 
ENDBRANCH   8   9
ENDBRANCH   4   8
TORSDOF 2
ENDMDL
MODEL       13
REMARK 921   NORMALIZED FREE ENERGY PREDICTED BY IDOCK:   -4.25 KCAL/MOL
REMARK 922        TOTAL FREE ENERGY PREDICTED BY IDOCK:   -5.01 KCAL/MOL
REMARK 923 INTER-LIGAND FREE ENERGY PREDICTED BY IDOCK:   -4.66 KCAL/MOL
REMARK 924 INTRA-LIGAND FREE ENERGY PREDICTED BY IDOCK:   -0.35 KCAL/MOL
REMARK 927      BINDING AFFINITY PREDICTED BY RF-SCORE:    0.00 PKD
ROOT
ATOM      1  N   ASN A   1      -9.836  14.000  65.268  1.00  0.00    -0.579 NA 
ATOM      2  H1  ASN A   1      -9.075  14.539  64.856  1.00  0.00     0.000 HD 
ATOM      3  H2  ASN A   1      -9.596  13.014  65.361  1.00  0.00     0.000 HD 
ATOM      4  CA  ASN A   1     -11.103  14.193  64.485  1.00  0.00    -0.330 C  
ATOM      5  OXT ASN A   1     -12.409  16.187  63.927  1.00  0.00    -0.895 OA 
ATOM      6  C   ASN A   1     -11.421  15.695  64.447  1.00  0.00    -0.262 C  
ATOM      7  O   ASN A   1     -10.432  16.431  65.017  1.00  0.00    -0.642 OA 
ENDROOT
BRANCH   4   8
ATOM      8  CB  ASN A   1     -12.241  13.387  65.102  1.00  0.00    -0.473 C  
BRANCH   8   9
ATOM      9  CG  ASN A   1     -12.143  13.059  66.578  1.00  0.00    -0.341 C  
ATOM     10  ND2 ASN A   1     -12.408  14.040  67.483  1.00  0.00    -0.521 N  
ATOM     11  OD1 ASN A   1     -11.950  11.909  66.965  1.00  0.00    -0.615 OA 
ATOM     12 1HD2 ASN A   1     -12.342  13.819  68.476  1.00  0.00     0.000 HD 
ATOM     13 2HD2 ASN A   1     -12.666  14.977  67.175  1.00  0.00     0.000 HD 
ENDBRANCH   8   9
ENDBRANCH   4   8
TORSDOF 2
ENDMDL
MODEL       14
REMARK 921   NORMALIZED FREE ENERGY PREDICTED BY IDOCK:   -4.20 KCAL/MOL
REMARK 922        TOTAL FREE ENERGY PREDICTED BY IDOCK:   -4.95 KCAL/MOL
REMARK 923 INTER-LIGAND FREE ENERGY PREDICTED BY IDOCK:   -4.55 KCAL/MOL
REMARK 924 INTRA-LIGAND FREE ENERGY PREDICTED BY IDOCK:   -0.39 KCAL/MOL
REMARK 927      BINDING AFFINITY PREDICTED BY RF-SCORE:    0.00 PKD
ROOT
ATOM      1  N   ASN A   1     -10.027  12.975  65.096  1.00  0.00    -0.488 NA 
ATOM      2  H1  ASN A   1      -9.170  12.969  65.649  1.00  0.00     0.000 HD 
ATOM      3  H2  ASN A   1     -10.083  13.794  64.492  1.00  0.00     0.000 HD 
ATOM      4  CA  ASN A   1     -11.230  12.856  65.988  1.00  0.00    -0.293 C  
ATOM      5  OXT ASN A   1     -11.920  11.155  67.607  1.00  0.00    -0.613 OA 
ATOM      6  C   ASN A   1     -11.090  11.570  66.815  1.00  0.00    -0.302 C  
ATOM      7  O   ASN A   1      -9.891  10.966  66.605  1.00  0.00    -0.188 OA 
ENDROOT
BRANCH   4   8
ATOM      8  CB  ASN A   1     -12.511  12.864  65.162  1.00  0.00    -0.561 C  
BRANCH   8   9
ATOM      9  CG  ASN A   1     -12.369  12.802  63.654  1.00  0.00    -0.463 C  
ATOM     10  ND2 ASN A   1     -12.329  11.581  63.053  1.00  0.00    -0.935 N  
ATOM     11  OD1 ASN A   1     -12.411  13.819  62.967  1.00  0.00    -0.712 OA 
ATOM     12 1HD2 ASN A   1     -12.234  11.540  62.039  1.00  0.00     0.000 HD 
ATOM     13 2HD2 ASN A   1     -12.393  10.727  63.605  1.00  0.00     0.000 HD 
ENDBRANCH   8   9
ENDBRANCH   4   8
TORSDOF 2
ENDMDL
MODEL       15
REMARK 921   NORMALIZED FREE ENERGY PREDICTED BY IDOCK:   -4.14 KCAL/MOL
REMARK 922        TOTAL FREE ENERGY PREDICTED BY IDOCK:   -4.88 KCAL/MOL
REMARK 923 INTER-LIGAND FREE ENERGY PREDICTED BY IDOCK:   -4.52 KCAL/MOL
REMARK 924 INTRA-LIGAND FREE ENERGY PREDICTED BY IDOCK:   -0.36 KCAL/MOL
REMARK 927      BINDING AFFINITY PREDICTED BY RF-SCORE:    0.00 PKD
ROOT
ATOM      1  N   ASN A   1     -10.148  13.819  64.240  1.00  0.00    -0.734 NA 
ATOM      2  H1  ASN A   1     -10.126  13.657  63.233  1.00  0.00     0.000 HD 
ATOM      3  H2  ASN A   1      -9.211  13.836  64.642  1.00  0.00     0.000 HD 
ATOM      4  CA  ASN A   1     -11.027  12.806  64.916  1.00  0.00    -0.294 C  
ATOM      5  OXT ASN A   1     -13.391  12.231  64.647  1.00  0.00    -0.717 OA 
ATOM      6  C   ASN A   1     -12.427  12.890  64.292  1.00  0.00    -0.349 C  
ATOM      7  O   ASN A   1     -12.457  13.754  63.245  1.00  0.00    -0.819 OA 
ENDROOT
BRANCH   4   8
ATOM      8  CB  ASN A   1     -11.060  13.047  66.421  1.00  0.00    -0.313 C  
BRANCH   8   9
ATOM      9  CG  ASN A   1     -11.552  14.398  66.900  1.00  0.00    -0.388 C  
ATOM     10  ND2 ASN A   1     -12.351  14.448  68.001  1.00  0.00    -0.589 N  
ATOM     11  OD1 ASN A   1     -11.150  15.441  66.392  1.00  0.00    -0.313 OA 
ATOM     12 1HD2 ASN A   1     -12.682  15.357  68.324  1.00  0.00     0.000 HD 
ATOM     13 2HD2 ASN A   1     -12.613  13.594  68.493  1.00  0.00     0.000 HD 
ENDBRANCH   8   9
ENDBRANCH   4   8
TORSDOF 2
ENDMDL
MODEL       16
REMARK 921   NORMALIZED FREE ENERGY PREDICTED BY IDOCK:   -4.13 KCAL/MOL
REMARK 922        TOTAL FREE ENERGY PREDICTED BY IDOCK:   -4.87 KCAL/MOL
REMARK 923 INTER-LIGAND FREE ENERGY PREDICTED BY IDOCK:   -4.43 KCAL/MOL
REMARK 924 INTRA-LIGAND FREE ENERGY PREDICTED BY IDOCK:   -0.45 KCAL/MOL
REMARK 927      BINDING AFFINITY PREDICTED BY RF-SCORE:    0.00 PKD
ROOT
ATOM      1  N   ASN A   1     -10.677  11.294  63.177  1.00  0.00    -0.786 NA 
ATOM      2  H1  ASN A   1     -10.054  10.615  62.738  1.00  0.00     0.000 HD 
ATOM      3  H2  ASN A   1     -11.079  11.936  62.496  1.00  0.00     0.000 HD 
ATOM      4  CA  ASN A   1      -9.965  12.025  64.280  1.00  0.00    -0.240 C  
ATOM      5  OXT ASN A   1      -8.862  11.255  66.325  1.00  0.00    -0.183 OA 
ATOM      6  C   ASN A   1      -9.446  10.989  65.287  1.00  0.00    -0.223 C  
ATOM      7  O   ASN A   1      -9.664   9.719  64.857  1.00  0.00    -0.296 OA 
ENDROOT
BRANCH   4   8
ATOM      8  CB  ASN A   1     -10.896  13.039  64.936  1.00  0.00    -0.343 C  
BRANCH   8   9
ATOM      9  CG  ASN A   1     -12.280  13.203  64.341  1.00  0.00    -0.398 C  
ATOM     10  ND2 ASN A   1     -12.442  14.058  63.295  1.00  0.00    -1.112 N  
ATOM     11  OD1 ASN A   1     -13.218  12.498  64.703  1.00  0.00    -0.848 OA 
ATOM     12 1HD2 ASN A   1     -13.374  14.168  62.894  1.00  0.00     0.000 HD 
ATOM     13 2HD2 ASN A   1     -11.649  14.578  62.919  1.00  0.00     0.000 HD 
ENDBRANCH   8   9
ENDBRANCH   4   8
TORSDOF 2
ENDMDL
MODEL       17
REMARK 921   NORMALIZED FREE ENERGY PREDICTED BY IDOCK:   -4.13 KCAL/MOL
REMARK 922        TOTAL FREE ENERGY PREDICTED BY IDOCK:   -4.87 KCAL/MOL
REMARK 923 INTER-LIGAND FREE ENERGY PREDICTED BY IDOCK:   -4.60 KCAL/MOL
REMARK 924 INTRA-LIGAND FREE ENERGY PREDICTED BY IDOCK:   -0.27 KCAL/MOL
REMARK 927      BINDING AFFINITY PREDICTED BY RF-SCORE:    0.00 PKD
ROOT
ATOM      1  N   ASN A   1     -11.642  11.760  66.457  1.00  0.00    -0.511 NA 
ATOM      2  H1  ASN A   1     -11.626  11.825  67.475  1.00  0.00     0.000 HD 
ATOM      3  H2  ASN A   1     -11.388  10.827  66.133  1.00  0.00     0.000 HD 
ATOM      4  CA  ASN A   1     -10.771  12.819  65.847  1.00  0.00    -0.270 C  
ATOM      5  OXT ASN A   1     -10.795  15.262  65.996  1.00  0.00    -0.322 OA 
ATOM      6  C   ASN A   1     -11.260  14.188  66.341  1.00  0.00    -0.328 C  
ATOM      7  O   ASN A   1     -12.249  14.064  67.264  1.00  0.00    -0.405 OA 
ENDROOT
BRANCH   4   8
ATOM      8  CB  ASN A   1     -10.796  12.722  64.326  1.00  0.00    -0.419 C  
BRANCH   8   9
ATOM      9  CG  ASN A   1     -12.135  12.900  63.637  1.00  0.00    -0.535 C  
ATOM     10  ND2 ASN A   1     -12.493  14.145  63.221  1.00  0.00    -1.098 N  
ATOM     11  OD1 ASN A   1     -12.837  11.935  63.346  1.00  0.00    -0.715 OA 
ATOM     12 1HD2 ASN A   1     -13.394  14.265  62.758  1.00  0.00     0.000 HD 
ATOM     13 2HD2 ASN A   1     -11.874  14.942  63.369  1.00  0.00     0.000 HD 
ENDBRANCH   8   9
ENDBRANCH   4   8
TORSDOF 2
ENDMDL
MODEL       18
REMARK 921   NORMALIZED FREE ENERGY PREDICTED BY IDOCK:   -4.12 KCAL/MOL
REMARK 922        TOTAL FREE ENERGY PREDICTED BY IDOCK:   -4.86 KCAL/MOL
REMARK 923 INTER-LIGAND FREE ENERGY PREDICTED BY IDOCK:   -4.50 KCAL/MOL
REMARK 924 INTRA-LIGAND FREE ENERGY PREDICTED BY IDOCK:   -0.36 KCAL/MOL
REMARK 927      BINDING AFFINITY PREDICTED BY RF-SCORE:    0.00 PKD
ROOT
ATOM      1  N   ASN A   1     -12.889  12.619  65.197  1.00  0.00    -0.743 NA 
ATOM      2  H1  ASN A   1     -13.674  12.511  64.554  1.00  0.00     0.000 HD 
ATOM      3  H2  ASN A   1     -13.024  12.081  66.052  1.00  0.00     0.000 HD 
ATOM      4  CA  ASN A   1     -12.640  14.072  65.485  1.00  0.00    -0.516 C  
ATOM      5  OXT ASN A   1     -12.112  15.973  64.037  1.00  0.00    -0.810 OA 
ATOM      6  C   ASN A   1     -12.391  14.790  64.152  1.00  0.00    -0.231 C  
ATOM      7  O   ASN A   1     -12.574  13.960  63.092  1.00  0.00    -0.775 OA 
ENDROOT
BRANCH   4   8
ATOM      8  CB  ASN A   1     -11.468  14.233  66.446  1.00  0.00    -0.361 C  
BRANCH   8   9
ATOM      9  CG  ASN A   1     -10.123  13.692  66.003  1.00  0.00    -0.312 C  
ATOM     10  ND2 ASN A   1      -9.002  14.394  66.322  1.00  0.00    -0.489 N  
ATOM     11  OD1 ASN A   1     -10.022  12.588  65.475  1.00  0.00    -0.263 OA 
ATOM     12 1HD2 ASN A   1      -8.097  14.029  66.024  1.00  0.00     0.000 HD 
ATOM     13 2HD2 ASN A   1      -9.064  15.265  66.847  1.00  0.00     0.000 HD 
ENDBRANCH   8   9
ENDBRANCH   4   8
TORSDOF 2
ENDMDL
MODEL       19
REMARK 921   NORMALIZED FREE ENERGY PREDICTED BY IDOCK:   -4.01 KCAL/MOL
REMARK 922        TOTAL FREE ENERGY PREDICTED BY IDOCK:   -4.73 KCAL/MOL
REMARK 923 INTER-LIGAND FREE ENERGY PREDICTED BY IDOCK:   -4.39 KCAL/MOL
REMARK 924 INTRA-LIGAND FREE ENERGY PREDICTED BY IDOCK:   -0.34 KCAL/MOL
REMARK 927      BINDING AFFINITY PREDICTED BY RF-SCORE:    0.00 PKD
ROOT
ATOM      1  N   ASN A   1      -9.662  16.085  65.296  1.00  0.00    -0.364 NA 
ATOM      2  H1  ASN A   1      -9.442  16.562  64.422  1.00  0.00     0.000 HD 
ATOM      3  H2  ASN A   1      -8.825  15.896  65.846  1.00  0.00     0.000 HD 
ATOM      4  CA  ASN A   1     -10.448  14.833  65.029  1.00  0.00    -0.416 C  
ATOM      5  OXT ASN A   1     -12.593  14.438  63.917  1.00  0.00    -0.814 OA 
ATOM      6  C   ASN A   1     -11.715  15.217  64.252  1.00  0.00    -0.215 C  
ATOM      7  O   ASN A   1     -11.722  16.536  63.924  1.00  0.00    -1.148 OA 
ENDROOT
BRANCH   4   8
ATOM      8  CB  ASN A   1     -10.778  14.120  66.336  1.00  0.00    -0.288 C  
BRANCH   8   9
ATOM      9  CG  ASN A   1     -11.345  14.958  67.464  1.00  0.00    -0.342 C  
ATOM     10  ND2 ASN A   1     -12.521  14.575  68.032  1.00  0.00    -0.512 N  
ATOM     11  OD1 ASN A   1     -10.711  15.892  67.947  1.00  0.00    -0.294 OA 
ATOM     12 1HD2 ASN A   1     -12.902  15.138  68.792  1.00  0.00     0.000 HD 
ATOM     13 2HD2 ASN A   1     -13.011  13.742  67.705  1.00  0.00     0.000 HD 
ENDBRANCH   8   9
ENDBRANCH   4   8
TORSDOF 2
ENDMDL
MODEL       20
REMARK 921   NORMALIZED FREE ENERGY PREDICTED BY IDOCK:   -4.00 KCAL/MOL
REMARK 922        TOTAL FREE ENERGY PREDICTED BY IDOCK:   -4.73 KCAL/MOL
REMARK 923 INTER-LIGAND FREE ENERGY PREDICTED BY IDOCK:   -4.41 KCAL/MOL
REMARK 924 INTRA-LIGAND FREE ENERGY PREDICTED BY IDOCK:   -0.32 KCAL/MOL
REMARK 927      BINDING AFFINITY PREDICTED BY RF-SCORE:    0.00 PKD
ROOT
ATOM      1  N   ASN A   1     -11.695  12.023  66.264  1.00  0.00    -0.547 NA 
ATOM      2  H1  ASN A   1     -11.994  11.099  65.950  1.00  0.00     0.000 HD 
ATOM      3  H2  ASN A   1     -11.813  12.137  67.270  1.00  0.00     0.000 HD 
ATOM      4  CA  ASN A   1     -12.407  13.097  65.493  1.00  0.00    -0.474 C  
ATOM      5  OXT ASN A   1     -12.523  13.611  63.103  1.00  0.00    -0.786 OA 
ATOM      6  C   ASN A   1     -12.128  12.883  63.999  1.00  0.00    -0.455 C  
ATOM      7  O   ASN A   1     -11.427  11.740  63.779  1.00  0.00    -0.397 OA 
ENDROOT
BRANCH   4   8
ATOM      8  CB  ASN A   1     -11.961  14.477  65.963  1.00  0.00    -0.319 C  
BRANCH   8   9
ATOM      9  CG  ASN A   1     -10.605  14.968  65.496  1.00  0.00    -0.363 C  
ATOM     10  ND2 ASN A   1      -9.505  14.222  65.791  1.00  0.00    -0.529 N  
ATOM     11  OD1 ASN A   1     -10.498  15.948  64.764  1.00  0.00    -0.538 OA 
ATOM     12 1HD2 ASN A   1      -8.593  14.553  65.477  1.00  0.00     0.000 HD 
ATOM     13 2HD2 ASN A   1      -9.591  13.352  66.315  1.00  0.00     0.000 HD 
ENDBRANCH   8   9
ENDBRANCH   4   8
TORSDOF 2
ENDMDL
MODEL       21
REMARK 921   NORMALIZED FREE ENERGY PREDICTED BY IDOCK:   -4.00 KCAL/MOL
REMARK 922        TOTAL FREE ENERGY PREDICTED BY IDOCK:   -4.73 KCAL/MOL
REMARK 923 INTER-LIGAND FREE ENERGY PREDICTED BY IDOCK:   -4.47 KCAL/MOL
REMARK 924 INTRA-LIGAND FREE ENERGY PREDICTED BY IDOCK:   -0.26 KCAL/MOL
REMARK 927      BINDING AFFINITY PREDICTED BY RF-SCORE:    0.00 PKD
ROOT
ATOM      1  N   ASN A   1     -11.529  16.343  63.987  1.00  0.00    -1.573 NA 
ATOM      2  H1  ASN A   1     -11.651  16.173  62.988  1.00  0.00     0.000 HD 
ATOM      3  H2  ASN A   1     -11.042  17.220  64.165  1.00  0.00     0.000 HD 
ATOM      4  CA  ASN A   1     -10.840  15.179  64.639  1.00  0.00    -0.263 C  
ATOM      5  OXT ASN A   1     -11.412  12.804  64.802  1.00  0.00    -0.298 OA 
ATOM      6  C   ASN A   1     -11.671  13.916  64.371  1.00  0.00    -0.404 C  
ATOM      7  O   ASN A   1     -12.714  14.170  63.539  1.00  0.00    -0.794 OA 
ENDROOT
BRANCH   4   8
ATOM      8  CB  ASN A   1     -10.659  15.433  66.131  1.00  0.00    -0.321 C  
BRANCH   8   9
ATOM      9  CG  ASN A   1      -9.389  14.917  66.778  1.00  0.00    -0.250 C  
ATOM     10  ND2 ASN A   1      -9.089  13.595  66.660  1.00  0.00    -0.399 N  
ATOM     11  OD1 ASN A   1      -8.578  15.682  67.293  1.00  0.00    -0.171 OA 
ATOM     12 1HD2 ASN A   1      -8.234  13.248  67.095  1.00  0.00     0.000 HD 
ATOM     13 2HD2 ASN A   1      -9.706  12.964  66.149  1.00  0.00     0.000 HD 
ENDBRANCH   8   9
ENDBRANCH   4   8
TORSDOF 2
ENDMDL
MODEL       22
REMARK 921   NORMALIZED FREE ENERGY PREDICTED BY IDOCK:   -4.00 KCAL/MOL
REMARK 922        TOTAL FREE ENERGY PREDICTED BY IDOCK:   -4.72 KCAL/MOL
REMARK 923 INTER-LIGAND FREE ENERGY PREDICTED BY IDOCK:   -4.39 KCAL/MOL
REMARK 924 INTRA-LIGAND FREE ENERGY PREDICTED BY IDOCK:   -0.33 KCAL/MOL
REMARK 927      BINDING AFFINITY PREDICTED BY RF-SCORE:    0.00 PKD
ROOT
ATOM      1  N   ASN A   1     -13.042  12.222  63.762  1.00  0.00    -0.774 NA 
ATOM      2  H1  ASN A   1     -13.875  12.770  63.549  1.00  0.00     0.000 HD 
ATOM      3  H2  ASN A   1     -13.217  11.220  63.686  1.00  0.00     0.000 HD 
ATOM      4  CA  ASN A   1     -12.499  12.592  65.113  1.00  0.00    -0.463 C  
ATOM      5  OXT ASN A   1     -11.717  14.714  66.050  1.00  0.00    -0.359 OA 
ATOM      6  C   ASN A   1     -12.210  14.100  65.118  1.00  0.00    -0.433 C  
ATOM      7  O   ASN A   1     -12.622  14.693  63.968  1.00  0.00    -0.819 OA 
ENDROOT
BRANCH   4   8
ATOM      8  CB  ASN A   1     -11.253  11.773  65.431  1.00  0.00    -0.310 C  
BRANCH   8   9
ATOM      9  CG  ASN A   1     -10.411  11.300  64.262  1.00  0.00    -0.357 C  
ATOM     10  ND2 ASN A   1     -10.075   9.984  64.193  1.00  0.00    -0.447 N  
ATOM     11  OD1 ASN A   1     -10.135  12.050  63.330  1.00  0.00    -0.430 OA 
ATOM     12 1HD2 ASN A   1      -9.508   9.666  63.406  1.00  0.00     0.000 HD 
ATOM     13 2HD2 ASN A   1     -10.382   9.329  64.912  1.00  0.00     0.000 HD 
ENDBRANCH   8   9
ENDBRANCH   4   8
TORSDOF 2
ENDMDL
MODEL       23
REMARK 921   NORMALIZED FREE ENERGY PREDICTED BY IDOCK:   -3.99 KCAL/MOL
REMARK 922        TOTAL FREE ENERGY PREDICTED BY IDOCK:   -4.71 KCAL/MOL
REMARK 923 INTER-LIGAND FREE ENERGY PREDICTED BY IDOCK:   -4.46 KCAL/MOL
REMARK 924 INTRA-LIGAND FREE ENERGY PREDICTED BY IDOCK:   -0.25 KCAL/MOL
REMARK 927      BINDING AFFINITY PREDICTED BY RF-SCORE:    0.00 PKD
ROOT
ATOM      1  N   ASN A   1     -11.933  11.790  67.228  1.00  0.00    -0.607 NA 
ATOM      2  H1  ASN A   1     -11.328  11.509  68.000  1.00  0.00     0.000 HD 
ATOM      3  H2  ASN A   1     -11.849  11.159  66.432  1.00  0.00     0.000 HD 
ATOM      4  CA  ASN A   1     -11.663  13.216  66.841  1.00  0.00    -0.387 C  
ATOM      5  OXT ASN A   1     -11.774  15.315  68.095  1.00  0.00    -0.345 OA 
ATOM      6  C   ASN A   1     -11.869  14.099  68.080  1.00  0.00    -0.365 C  
ATOM      7  O   ASN A   1     -12.119  13.355  69.189  1.00  0.00    -0.317 OA 
ENDROOT
BRANCH   4   8
ATOM      8  CB  ASN A   1     -12.567  13.636  65.687  1.00  0.00    -0.531 C  
BRANCH   8   9
ATOM      9  CG  ASN A   1     -12.245  13.087  64.312  1.00  0.00    -0.396 C  
ATOM     10  ND2 ASN A   1     -12.390  13.904  63.233  1.00  0.00    -1.148 N  
ATOM     11  OD1 ASN A   1     -11.749  11.972  64.170  1.00  0.00    -0.362 OA 
ATOM     12 1HD2 ASN A   1     -12.172  13.534  62.308  1.00  0.00     0.000 HD 
ATOM     13 2HD2 ASN A   1     -12.708  14.866  63.348  1.00  0.00     0.000 HD 
ENDBRANCH   8   9
ENDBRANCH   4   8
TORSDOF 2
ENDMDL
MODEL       24
REMARK 921   NORMALIZED FREE ENERGY PREDICTED BY IDOCK:   -3.94 KCAL/MOL
REMARK 922        TOTAL FREE ENERGY PREDICTED BY IDOCK:   -4.65 KCAL/MOL
REMARK 923 INTER-LIGAND FREE ENERGY PREDICTED BY IDOCK:   -4.39 KCAL/MOL
REMARK 924 INTRA-LIGAND FREE ENERGY PREDICTED BY IDOCK:   -0.26 KCAL/MOL
REMARK 927      BINDING AFFINITY PREDICTED BY RF-SCORE:    0.00 PKD
ROOT
ATOM      1  N   ASN A   1     -13.080  12.871  65.396  1.00  0.00    -0.486 NA 
ATOM      2  H1  ASN A   1     -13.833  12.755  64.717  1.00  0.00     0.000 HD 
ATOM      3  H2  ASN A   1     -13.298  12.419  66.284  1.00  0.00     0.000 HD 
ATOM      4  CA  ASN A   1     -12.753  14.325  65.577  1.00  0.00    -0.380 C  
ATOM      5  OXT ASN A   1     -12.019  16.057  64.010  1.00  0.00    -0.796 OA 
ATOM      6  C   ASN A   1     -12.381  14.909  64.206  1.00  0.00    -0.277 C  
ATOM      7  O   ASN A   1     -12.559  14.001  63.211  1.00  0.00    -0.801 OA 
ENDROOT
BRANCH   4   8
ATOM      8  CB  ASN A   1     -11.629  14.499  66.592  1.00  0.00    -0.385 C  
BRANCH   8   9
ATOM      9  CG  ASN A   1     -11.835  13.903  67.970  1.00  0.00    -0.375 C  
ATOM     10  ND2 ASN A   1     -12.195  14.730  68.990  1.00  0.00    -0.564 N  
ATOM     11  OD1 ASN A   1     -11.802  12.690  68.153  1.00  0.00    -0.329 OA 
ATOM     12 1HD2 ASN A   1     -12.334  14.330  69.917  1.00  0.00     0.000 HD 
ATOM     13 2HD2 ASN A   1     -12.323  15.729  68.830  1.00  0.00     0.000 HD 
ENDBRANCH   8   9
ENDBRANCH   4   8
TORSDOF 2
ENDMDL
MODEL       25
REMARK 921   NORMALIZED FREE ENERGY PREDICTED BY IDOCK:   -3.92 KCAL/MOL
REMARK 922        TOTAL FREE ENERGY PREDICTED BY IDOCK:   -4.64 KCAL/MOL
REMARK 923 INTER-LIGAND FREE ENERGY PREDICTED BY IDOCK:   -4.31 KCAL/MOL
REMARK 924 INTRA-LIGAND FREE ENERGY PREDICTED BY IDOCK:   -0.33 KCAL/MOL
REMARK 927      BINDING AFFINITY PREDICTED BY RF-SCORE:    0.00 PKD
ROOT
ATOM      1  N   ASN A   1     -10.235  14.160  64.350  1.00  0.00    -0.676 NA 
ATOM      2  H1  ASN A   1     -10.279  14.683  63.475  1.00  0.00     0.000 HD 
ATOM      3  H2  ASN A   1      -9.289  14.136  64.730  1.00  0.00     0.000 HD 
ATOM      4  CA  ASN A   1     -10.799  12.780  64.169  1.00  0.00    -0.406 C  
ATOM      5  OXT ASN A   1     -12.996  11.978  63.445  1.00  0.00    -0.772 OA 
ATOM      6  C   ASN A   1     -12.239  12.913  63.653  1.00  0.00    -0.499 C  
ATOM      7  O   ASN A   1     -12.563  14.207  63.397  1.00  0.00    -0.818 OA 
ENDROOT
BRANCH   4   8
ATOM      8  CB  ASN A   1     -10.733  12.000  65.477  1.00  0.00    -0.318 C  
BRANCH   8   9
ATOM      9  CG  ASN A   1      -9.566  12.285  66.401  1.00  0.00    -0.237 C  
ATOM     10  ND2 ASN A   1      -8.340  11.797  66.071  1.00  0.00    -0.382 N  
ATOM     11  OD1 ASN A   1      -9.684  13.037  67.365  1.00  0.00    -0.205 OA 
ATOM     12 1HD2 ASN A   1      -7.554  11.989  66.693  1.00  0.00     0.000 HD 
ATOM     13 2HD2 ASN A   1      -8.208  11.252  65.220  1.00  0.00     0.000 HD 
ENDBRANCH   8   9
ENDBRANCH   4   8
TORSDOF 2
ENDMDL
MODEL       26
REMARK 921   NORMALIZED FREE ENERGY PREDICTED BY IDOCK:   -3.88 KCAL/MOL
REMARK 922        TOTAL FREE ENERGY PREDICTED BY IDOCK:   -4.59 KCAL/MOL
REMARK 923 INTER-LIGAND FREE ENERGY PREDICTED BY IDOCK:   -4.43 KCAL/MOL
REMARK 924 INTRA-LIGAND FREE ENERGY PREDICTED BY IDOCK:   -0.15 KCAL/MOL
REMARK 927      BINDING AFFINITY PREDICTED BY RF-SCORE:    0.00 PKD
ROOT
ATOM      1  N   ASN A   1     -14.039   8.897  73.152  1.00  0.00    -1.225 NA 
ATOM      2  H1  ASN A   1     -13.859   9.677  73.784  1.00  0.00     0.000 HD 
ATOM      3  H2  ASN A   1     -14.362   8.070  73.652  1.00  0.00     0.000 HD 
ATOM      4  CA  ASN A   1     -12.825   8.605  72.317  1.00  0.00    -0.383 C  
ATOM      5  OXT ASN A   1     -11.531   9.973  70.754  1.00  0.00    -0.303 OA 
ATOM      6  C   ASN A   1     -12.446   9.883  71.556  1.00  0.00    -0.411 C  
ATOM      7  O   ASN A   1     -13.222  10.935  71.925  1.00  0.00    -0.467 OA 
ENDROOT
BRANCH   4   8
ATOM      8  CB  ASN A   1     -13.094   7.440  71.372  1.00  0.00    -0.401 C  
BRANCH   8   9
ATOM      9  CG  ASN A   1     -11.893   6.699  70.818  1.00  0.00    -0.383 C  
ATOM     10  ND2 ASN A   1     -11.588   6.846  69.500  1.00  0.00    -0.594 N  
ATOM     11  OD1 ASN A   1     -11.132   6.075  71.553  1.00  0.00    -0.268 OA 
ATOM     12 1HD2 ASN A   1     -10.779   6.348  69.127  1.00  0.00     0.000 HD 
ATOM     13 2HD2 ASN A   1     -12.155   7.441  68.897  1.00  0.00     0.000 HD 
ENDBRANCH   8   9
ENDBRANCH   4   8
TORSDOF 2
ENDMDL
MODEL       27
REMARK 921   NORMALIZED FREE ENERGY PREDICTED BY IDOCK:   -3.87 KCAL/MOL
REMARK 922        TOTAL FREE ENERGY PREDICTED BY IDOCK:   -4.58 KCAL/MOL
REMARK 923 INTER-LIGAND FREE ENERGY PREDICTED BY IDOCK:   -4.50 KCAL/MOL
REMARK 924 INTRA-LIGAND FREE ENERGY PREDICTED BY IDOCK:   -0.08 KCAL/MOL
REMARK 927      BINDING AFFINITY PREDICTED BY RF-SCORE:    0.00 PKD
ROOT
ATOM      1  N   ASN A   1     -12.334  14.546  66.661  1.00  0.00    -0.460 NA 
ATOM      2  H1  ASN A   1     -12.917  14.625  67.494  1.00  0.00     0.000 HD 
ATOM      3  H2  ASN A   1     -12.638  15.181  65.923  1.00  0.00     0.000 HD 
ATOM      4  CA  ASN A   1     -12.283  13.122  66.186  1.00  0.00    -0.385 C  
ATOM      5  OXT ASN A   1     -11.557  11.049  67.266  1.00  0.00    -0.496 OA 
ATOM      6  C   ASN A   1     -11.761  12.250  67.336  1.00  0.00    -0.335 C  
ATOM      7  O   ASN A   1     -11.601  12.969  68.478  1.00  0.00    -0.283 OA 
ENDROOT
BRANCH   4   8
ATOM      8  CB  ASN A   1     -11.411  13.004  64.942  1.00  0.00    -0.348 C  
BRANCH   8   9
ATOM      9  CG  ASN A   1     -12.115  12.835  63.610  1.00  0.00    -0.543 C  
ATOM     10  ND2 ASN A   1     -12.266  11.579  63.107  1.00  0.00    -0.932 N  
ATOM     11  OD1 ASN A   1     -12.649  13.786  63.045  1.00  0.00    -0.721 OA 
ATOM     12 1HD2 ASN A   1     -12.740  11.466  62.211  1.00  0.00     0.000 HD 
ATOM     13 2HD2 ASN A   1     -11.913  10.769  63.616  1.00  0.00     0.000 HD 
ENDBRANCH   8   9
ENDBRANCH   4   8
TORSDOF 2
ENDMDL
MODEL       28
REMARK 921   NORMALIZED FREE ENERGY PREDICTED BY IDOCK:   -3.82 KCAL/MOL
REMARK 922        TOTAL FREE ENERGY PREDICTED BY IDOCK:   -4.53 KCAL/MOL
REMARK 923 INTER-LIGAND FREE ENERGY PREDICTED BY IDOCK:   -4.16 KCAL/MOL
REMARK 924 INTRA-LIGAND FREE ENERGY PREDICTED BY IDOCK:   -0.37 KCAL/MOL
REMARK 927      BINDING AFFINITY PREDICTED BY RF-SCORE:    0.00 PKD
ROOT
ATOM      1  N   ASN A   1      -9.916  13.291  64.708  1.00  0.00    -0.594 NA 
ATOM      2  H1  ASN A   1      -9.001  12.887  64.910  1.00  0.00     0.000 HD 
ATOM      3  H2  ASN A   1     -10.137  13.251  63.714  1.00  0.00     0.000 HD 
ATOM      4  CA  ASN A   1     -10.003  14.691  65.243  1.00  0.00    -0.294 C  
ATOM      5  OXT ASN A   1      -9.752  15.615  67.496  1.00  0.00    -0.220 OA 
ATOM      6  C   ASN A   1      -9.716  14.649  66.751  1.00  0.00    -0.257 C  
ATOM      7  O   ASN A   1      -9.355  13.404  67.158  1.00  0.00    -0.222 OA 
ENDROOT
BRANCH   4   8
ATOM      8  CB  ASN A   1     -11.370  15.295  64.942  1.00  0.00    -0.387 C  
BRANCH   8   9
ATOM      9  CG  ASN A   1     -12.457  14.355  64.458  1.00  0.00    -0.339 C  
ATOM     10  ND2 ASN A   1     -12.455  13.976  63.150  1.00  0.00    -1.070 N  
ATOM     11  OD1 ASN A   1     -13.253  13.843  65.239  1.00  0.00    -0.774 OA 
ATOM     12 1HD2 ASN A   1     -13.186  13.344  62.825  1.00  0.00     0.000 HD 
ATOM     13 2HD2 ASN A   1     -11.739  14.317  62.510  1.00  0.00     0.000 HD 
ENDBRANCH   8   9
ENDBRANCH   4   8
TORSDOF 2
ENDMDL
MODEL       29
REMARK 921   NORMALIZED FREE ENERGY PREDICTED BY IDOCK:   -3.79 KCAL/MOL
REMARK 922        TOTAL FREE ENERGY PREDICTED BY IDOCK:   -4.50 KCAL/MOL
REMARK 923 INTER-LIGAND FREE ENERGY PREDICTED BY IDOCK:   -4.11 KCAL/MOL
REMARK 924 INTRA-LIGAND FREE ENERGY PREDICTED BY IDOCK:   -0.38 KCAL/MOL
REMARK 927      BINDING AFFINITY PREDICTED BY RF-SCORE:    0.00 PKD
ROOT
ATOM      1  N   ASN A   1     -12.301  14.696  66.898  1.00  0.00    -0.432 NA 
ATOM      2  H1  ASN A   1     -11.839  15.092  67.717  1.00  0.00     0.000 HD 
ATOM      3  H2  ASN A   1     -13.316  14.715  66.989  1.00  0.00     0.000 HD 
ATOM      4  CA  ASN A   1     -11.791  13.310  66.626  1.00  0.00    -0.395 C  
ATOM      5  OXT ASN A   1      -9.552  12.437  66.165  1.00  0.00    -0.244 OA 
ATOM      6  C   ASN A   1     -10.269  13.384  66.444  1.00  0.00    -0.293 C  
ATOM      7  O   ASN A   1      -9.795  14.633  66.689  1.00  0.00    -0.251 OA 
ENDROOT
BRANCH   4   8
ATOM      8  CB  ASN A   1     -12.481  12.718  65.402  1.00  0.00    -0.478 C  
BRANCH   8   9
ATOM      9  CG  ASN A   1     -12.110  13.288  64.047  1.00  0.00    -0.447 C  
ATOM     10  ND2 ASN A   1     -12.342  14.607  63.810  1.00  0.00    -1.092 N  
ATOM     11  OD1 ASN A   1     -11.502  12.617  63.218  1.00  0.00    -0.483 OA 
ATOM     12 1HD2 ASN A   1     -12.091  14.991  62.899  1.00  0.00     0.000 HD 
ATOM     13 2HD2 ASN A   1     -12.757  15.201  64.528  1.00  0.00     0.000 HD 
ENDBRANCH   8   9
ENDBRANCH   4   8
TORSDOF 2
ENDMDL
MODEL       30
REMARK 921   NORMALIZED FREE ENERGY PREDICTED BY IDOCK:   -3.73 KCAL/MOL
REMARK 922        TOTAL FREE ENERGY PREDICTED BY IDOCK:   -4.42 KCAL/MOL
REMARK 923 INTER-LIGAND FREE ENERGY PREDICTED BY IDOCK:   -4.32 KCAL/MOL
REMARK 924 INTRA-LIGAND FREE ENERGY PREDICTED BY IDOCK:   -0.10 KCAL/MOL
REMARK 927      BINDING AFFINITY PREDICTED BY RF-SCORE:    0.00 PKD
ROOT
ATOM      1  N   ASN A   1     -12.357  14.357  68.051  1.00  0.00    -0.589 NA 
ATOM      2  H1  ASN A   1     -11.677  14.527  68.792  1.00  0.00     0.000 HD 
ATOM      3  H2  ASN A   1     -12.967  13.570  68.270  1.00  0.00     0.000 HD 
ATOM      4  CA  ASN A   1     -11.663  14.175  66.732  1.00  0.00    -0.410 C  
ATOM      5  OXT ASN A   1     -10.162  15.618  65.445  1.00  0.00    -0.358 OA 
ATOM      6  C   ASN A   1     -10.816  15.426  66.456  1.00  0.00    -0.298 C  
ATOM      7  O   ASN A   1     -10.834  16.284  67.509  1.00  0.00    -0.321 OA 
ENDROOT
BRANCH   4   8
ATOM      8  CB  ASN A   1     -12.679  13.921  65.624  1.00  0.00    -0.534 C  
BRANCH   8   9
ATOM      9  CG  ASN A   1     -12.214  13.128  64.419  1.00  0.00    -0.398 C  
ATOM     10  ND2 ASN A   1     -12.404  13.656  63.179  1.00  0.00    -1.076 N  
ATOM     11  OD1 ASN A   1     -11.571  12.090  64.547  1.00  0.00    -0.339 OA 
ATOM     12 1HD2 ASN A   1     -12.090  13.122  62.368  1.00  0.00     0.000 HD 
ATOM     13 2HD2 ASN A   1     -12.849  14.566  63.063  1.00  0.00     0.000 HD 
ENDBRANCH   8   9
ENDBRANCH   4   8
TORSDOF 2
ENDMDL
MODEL       31
REMARK 921   NORMALIZED FREE ENERGY PREDICTED BY IDOCK:   -3.72 KCAL/MOL
REMARK 922        TOTAL FREE ENERGY PREDICTED BY IDOCK:   -4.42 KCAL/MOL
REMARK 923 INTER-LIGAND FREE ENERGY PREDICTED BY IDOCK:   -4.13 KCAL/MOL
REMARK 924 INTRA-LIGAND FREE ENERGY PREDICTED BY IDOCK:   -0.28 KCAL/MOL
REMARK 927      BINDING AFFINITY PREDICTED BY RF-SCORE:    0.00 PKD
ROOT
ATOM      1  N   ASN A   1      -9.363  16.161  65.592  1.00  0.00    -0.422 NA 
ATOM      2  H1  ASN A   1      -9.107  16.711  64.771  1.00  0.00     0.000 HD 
ATOM      3  H2  ASN A   1      -8.542  15.838  66.102  1.00  0.00     0.000 HD 
ATOM      4  CA  ASN A   1     -10.262  15.022  65.203  1.00  0.00    -0.365 C  
ATOM      5  OXT ASN A   1     -12.443  14.948  64.094  1.00  0.00    -0.763 OA 
ATOM      6  C   ASN A   1     -11.495  15.603  64.496  1.00  0.00    -0.300 C  
ATOM      7  O   ASN A   1     -11.384  16.945  64.315  1.00  0.00    -1.202 OA 
ENDROOT
BRANCH   4   8
ATOM      8  CB  ASN A   1     -10.645  14.201  66.429  1.00  0.00    -0.280 C  
BRANCH   8   9
ATOM      9  CG  ASN A   1     -10.751  12.699  66.257  1.00  0.00    -0.256 C  
ATOM     10  ND2 ASN A   1     -11.844  12.192  65.624  1.00  0.00    -0.349 N  
ATOM     11  OD1 ASN A   1      -9.826  11.953  66.567  1.00  0.00    -0.198 OA 
ATOM     12 1HD2 ASN A   1     -11.916  11.181  65.508  1.00  0.00     0.000 HD 
ATOM     13 2HD2 ASN A   1     -12.576  12.809  65.274  1.00  0.00     0.000 HD 
ENDBRANCH   8   9
ENDBRANCH   4   8
TORSDOF 2
ENDMDL
MODEL       32
REMARK 921   NORMALIZED FREE ENERGY PREDICTED BY IDOCK:   -3.71 KCAL/MOL
REMARK 922        TOTAL FREE ENERGY PREDICTED BY IDOCK:   -4.41 KCAL/MOL
REMARK 923 INTER-LIGAND FREE ENERGY PREDICTED BY IDOCK:   -4.13 KCAL/MOL
REMARK 924 INTRA-LIGAND FREE ENERGY PREDICTED BY IDOCK:   -0.27 KCAL/MOL
REMARK 927      BINDING AFFINITY PREDICTED BY RF-SCORE:    0.00 PKD
ROOT
ATOM      1  N   ASN A   1     -12.228  13.121  70.926  1.00  0.00    -0.459 NA 
ATOM      2  H1  ASN A   1     -12.142  12.484  71.718  1.00  0.00     0.000 HD 
ATOM      3  H2  ASN A   1     -11.466  13.001  70.259  1.00  0.00     0.000 HD 
ATOM      4  CA  ASN A   1     -12.335  14.542  71.401  1.00  0.00    -0.356 C  
ATOM      5  OXT ASN A   1     -13.930  15.671  72.875  1.00  0.00    -0.541 OA 
ATOM      6  C   ASN A   1     -13.539  14.642  72.349  1.00  0.00    -0.452 C  
ATOM      7  O   ASN A   1     -14.094  13.425  72.585  1.00  0.00    -0.767 OA 
ENDROOT
BRANCH   4   8
ATOM      8  CB  ASN A   1     -12.463  15.493  70.217  1.00  0.00    -0.403 C  
BRANCH   8   9
ATOM      9  CG  ASN A   1     -11.698  15.145  68.956  1.00  0.00    -0.335 C  
ATOM     10  ND2 ASN A   1     -12.250  14.258  68.083  1.00  0.00    -0.580 N  
ATOM     11  OD1 ASN A   1     -10.662  15.731  68.655  1.00  0.00    -0.241 OA 
ATOM     12 1HD2 ASN A   1     -11.735  14.024  67.234  1.00  0.00     0.000 HD 
ATOM     13 2HD2 ASN A   1     -13.159  13.837  68.274  1.00  0.00     0.000 HD 
ENDBRANCH   8   9
ENDBRANCH   4   8
TORSDOF 2
ENDMDL
MODEL       33
REMARK 921   NORMALIZED FREE ENERGY PREDICTED BY IDOCK:   -3.68 KCAL/MOL
REMARK 922        TOTAL FREE ENERGY PREDICTED BY IDOCK:   -4.37 KCAL/MOL
REMARK 923 INTER-LIGAND FREE ENERGY PREDICTED BY IDOCK:   -4.13 KCAL/MOL
REMARK 924 INTRA-LIGAND FREE ENERGY PREDICTED BY IDOCK:   -0.23 KCAL/MOL
REMARK 927      BINDING AFFINITY PREDICTED BY RF-SCORE:    0.00 PKD
ROOT
ATOM      1  N   ASN A   1     -13.556  15.700  70.704  1.00  0.00    -0.798 NA 
ATOM      2  H1  ASN A   1     -13.428  16.710  70.641  1.00  0.00     0.000 HD 
ATOM      3  H2  ASN A   1     -14.221  15.448  71.434  1.00  0.00     0.000 HD 
ATOM      4  CA  ASN A   1     -12.234  15.012  70.891  1.00  0.00    -0.329 C  
ATOM      5  OXT ASN A   1     -10.189  14.976  69.546  1.00  0.00    -0.225 OA 
ATOM      6  C   ASN A   1     -11.320  15.401  69.720  1.00  0.00    -0.306 C  
ATOM      7  O   ASN A   1     -11.901  16.330  68.917  1.00  0.00    -0.284 OA 
ENDROOT
BRANCH   4   8
ATOM      8  CB  ASN A   1     -12.426  13.503  70.985  1.00  0.00    -0.451 C  
BRANCH   8   9
ATOM      9  CG  ASN A   1     -13.398  12.986  72.028  1.00  0.00    -0.492 C  
ATOM     10  ND2 ASN A   1     -13.461  11.646  72.252  1.00  0.00    -0.536 N  
ATOM     11  OD1 ASN A   1     -14.031  13.755  72.747  1.00  0.00    -0.714 OA 
ATOM     12 1HD2 ASN A   1     -14.115  11.298  72.953  1.00  0.00     0.000 HD 
ATOM     13 2HD2 ASN A   1     -12.868  11.002  71.729  1.00  0.00     0.000 HD 
ENDBRANCH   8   9
ENDBRANCH   4   8
TORSDOF 2
ENDMDL
MODEL       34
REMARK 921   NORMALIZED FREE ENERGY PREDICTED BY IDOCK:   -3.64 KCAL/MOL
REMARK 922        TOTAL FREE ENERGY PREDICTED BY IDOCK:   -4.33 KCAL/MOL
REMARK 923 INTER-LIGAND FREE ENERGY PREDICTED BY IDOCK:   -4.10 KCAL/MOL
REMARK 924 INTRA-LIGAND FREE ENERGY PREDICTED BY IDOCK:   -0.22 KCAL/MOL
REMARK 927      BINDING AFFINITY PREDICTED BY RF-SCORE:    0.00 PKD
ROOT
ATOM      1  N   ASN A   1     -11.807  12.156  66.622  1.00  0.00    -0.612 NA 
ATOM      2  H1  ASN A   1     -12.786  11.924  66.787  1.00  0.00     0.000 HD 
ATOM      3  H2  ASN A   1     -11.236  12.003  67.452  1.00  0.00     0.000 HD 
ATOM      4  CA  ASN A   1     -11.678  13.561  66.107  1.00  0.00    -0.365 C  
ATOM      5  OXT ASN A   1     -12.596  14.685  64.136  1.00  0.00    -0.766 OA 
ATOM      6  C   ASN A   1     -12.520  13.684  64.829  1.00  0.00    -0.350 C  
ATOM      7  O   ASN A   1     -13.226  12.550  64.583  1.00  0.00    -0.848 OA 
ENDROOT
BRANCH   4   8
ATOM      8  CB  ASN A   1     -10.214  13.907  65.859  1.00  0.00    -0.326 C  
BRANCH   8   9
ATOM      9  CG  ASN A   1      -9.783  15.338  66.116  1.00  0.00    -0.314 C  
ATOM     10  ND2 ASN A   1     -10.741  16.298  66.223  1.00  0.00    -0.239 N  
ATOM     11  OD1 ASN A   1      -8.610  15.619  66.346  1.00  0.00    -0.285 OA 
ATOM     12 1HD2 ASN A   1     -10.451  17.260  66.396  1.00  0.00     0.000 HD 
ATOM     13 2HD2 ASN A   1     -11.729  16.061  66.132  1.00  0.00     0.000 HD 
ENDBRANCH   8   9
ENDBRANCH   4   8
TORSDOF 2
ENDMDL
MODEL       35
REMARK 921   NORMALIZED FREE ENERGY PREDICTED BY IDOCK:   -3.58 KCAL/MOL
REMARK 922        TOTAL FREE ENERGY PREDICTED BY IDOCK:   -4.26 KCAL/MOL
REMARK 923 INTER-LIGAND FREE ENERGY PREDICTED BY IDOCK:   -4.00 KCAL/MOL
REMARK 924 INTRA-LIGAND FREE ENERGY PREDICTED BY IDOCK:   -0.26 KCAL/MOL
REMARK 927      BINDING AFFINITY PREDICTED BY RF-SCORE:    0.00 PKD
ROOT
ATOM      1  N   ASN A   1     -11.356   7.325  73.039  1.00  0.00    -0.556 NA 
ATOM      2  H1  ASN A   1     -11.226   6.370  73.372  1.00  0.00     0.000 HD 
ATOM      3  H2  ASN A   1     -11.820   7.909  73.733  1.00  0.00     0.000 HD 
ATOM      4  CA  ASN A   1     -12.087   7.330  71.727  1.00  0.00    -0.319 C  
ATOM      5  OXT ASN A   1     -11.588   6.314  69.557  1.00  0.00    -0.423 OA 
ATOM      6  C   ASN A   1     -11.290   6.479  70.728  1.00  0.00    -0.342 C  
ATOM      7  O   ASN A   1     -10.229   5.872  71.322  1.00  0.00    -0.196 OA 
ENDROOT
BRANCH   4   8
ATOM      8  CB  ASN A   1     -12.280   8.758  71.228  1.00  0.00    -0.332 C  
BRANCH   8   9
ATOM      9  CG  ASN A   1     -13.203   9.657  72.027  1.00  0.00    -0.453 C  
ATOM     10  ND2 ASN A   1     -14.031   9.089  72.945  1.00  0.00    -0.896 N  
ATOM     11  OD1 ASN A   1     -13.132  10.880  71.945  1.00  0.00    -0.482 OA 
ATOM     12 1HD2 ASN A   1     -14.652   9.694  73.483  1.00  0.00     0.000 HD 
ATOM     13 2HD2 ASN A   1     -14.031   8.080  73.094  1.00  0.00     0.000 HD 
ENDBRANCH   8   9
ENDBRANCH   4   8
TORSDOF 2
ENDMDL
MODEL       36
REMARK 921   NORMALIZED FREE ENERGY PREDICTED BY IDOCK:   -3.56 KCAL/MOL
REMARK 922        TOTAL FREE ENERGY PREDICTED BY IDOCK:   -4.24 KCAL/MOL
REMARK 923 INTER-LIGAND FREE ENERGY PREDICTED BY IDOCK:   -4.13 KCAL/MOL
REMARK 924 INTRA-LIGAND FREE ENERGY PREDICTED BY IDOCK:   -0.10 KCAL/MOL
REMARK 927      BINDING AFFINITY PREDICTED BY RF-SCORE:    0.00 PKD
ROOT
ATOM      1  N   ASN A   1     -12.011  12.117  65.737  1.00  0.00    -0.550 NA 
ATOM      2  H1  ASN A   1     -11.889  11.248  66.256  1.00  0.00     0.000 HD 
ATOM      3  H2  ASN A   1     -12.892  12.575  65.967  1.00  0.00     0.000 HD 
ATOM      4  CA  ASN A   1     -11.878  11.873  64.261  1.00  0.00    -0.279 C  
ATOM      5  OXT ASN A   1     -10.063  10.956  62.898  1.00  0.00    -0.282 OA 
ATOM      6  C   ASN A   1     -10.504  11.239  64.000  1.00  0.00    -0.378 C  
ATOM      7  O   ASN A   1      -9.848  10.971  65.159  1.00  0.00    -0.233 OA 
ENDROOT
BRANCH   4   8
ATOM      8  CB  ASN A   1     -12.060  13.173  63.485  1.00  0.00    -0.585 C  
BRANCH   8   9
ATOM      9  CG  ASN A   1     -12.335  14.430  64.286  1.00  0.00    -0.373 C  
ATOM     10  ND2 ASN A   1     -11.688  15.576  63.941  1.00  0.00    -0.850 N  
ATOM     11  OD1 ASN A   1     -13.209  14.460  65.148  1.00  0.00    -0.602 OA 
ATOM     12 1HD2 ASN A   1     -11.873  16.422  64.479  1.00  0.00     0.000 HD 
ATOM     13 2HD2 ASN A   1     -11.031  15.589  63.161  1.00  0.00     0.000 HD 
ENDBRANCH   8   9
ENDBRANCH   4   8
TORSDOF 2
ENDMDL
MODEL       37
REMARK 921   NORMALIZED FREE ENERGY PREDICTED BY IDOCK:   -3.55 KCAL/MOL
REMARK 922        TOTAL FREE ENERGY PREDICTED BY IDOCK:   -4.22 KCAL/MOL
REMARK 923 INTER-LIGAND FREE ENERGY PREDICTED BY IDOCK:   -3.95 KCAL/MOL
REMARK 924 INTRA-LIGAND FREE ENERGY PREDICTED BY IDOCK:   -0.28 KCAL/MOL
REMARK 927      BINDING AFFINITY PREDICTED BY RF-SCORE:    0.00 PKD
ROOT
ATOM      1  N   ASN A   1     -10.796  13.852  66.129  1.00  0.00    -0.289 NA 
ATOM      2  H1  ASN A   1     -10.836  14.865  66.019  1.00  0.00     0.000 HD 
ATOM      3  H2  ASN A   1      -9.977  13.561  66.662  1.00  0.00     0.000 HD 
ATOM      4  CA  ASN A   1     -10.859  13.173  64.790  1.00  0.00    -0.352 C  
ATOM      5  OXT ASN A   1     -12.522  13.219  62.995  1.00  0.00    -0.606 OA 
ATOM      6  C   ASN A   1     -12.146  13.622  64.084  1.00  0.00    -0.435 C  
ATOM      7  O   ASN A   1     -12.802  14.575  64.795  1.00  0.00    -0.603 OA 
ENDROOT
BRANCH   4   8
ATOM      8  CB  ASN A   1     -10.799  11.659  64.955  1.00  0.00    -0.359 C  
BRANCH   8   9
ATOM      9  CG  ASN A   1      -9.971  10.880  63.952  1.00  0.00    -0.343 C  
ATOM     10  ND2 ASN A   1     -10.345  10.900  62.644  1.00  0.00    -0.766 N  
ATOM     11  OD1 ASN A   1      -8.917  10.340  64.276  1.00  0.00    -0.195 OA 
ATOM     12 1HD2 ASN A   1      -9.787  10.376  61.969  1.00  0.00     0.000 HD 
ATOM     13 2HD2 ASN A   1     -11.165  11.427  62.344  1.00  0.00     0.000 HD 
ENDBRANCH   8   9
ENDBRANCH   4   8
TORSDOF 2
ENDMDL
MODEL       38
REMARK 921   NORMALIZED FREE ENERGY PREDICTED BY IDOCK:   -3.53 KCAL/MOL
REMARK 922        TOTAL FREE ENERGY PREDICTED BY IDOCK:   -4.20 KCAL/MOL
REMARK 923 INTER-LIGAND FREE ENERGY PREDICTED BY IDOCK:   -3.83 KCAL/MOL
REMARK 924 INTRA-LIGAND FREE ENERGY PREDICTED BY IDOCK:   -0.38 KCAL/MOL
REMARK 927      BINDING AFFINITY PREDICTED BY RF-SCORE:    0.00 PKD
ROOT
ATOM      1  N   ASN A   1     -13.798   8.877  73.166  1.00  0.00    -1.176 NA 
ATOM      2  H1  ASN A   1     -13.673   8.066  73.773  1.00  0.00     0.000 HD 
ATOM      3  H2  ASN A   1     -14.737   9.266  73.243  1.00  0.00     0.000 HD 
ATOM      4  CA  ASN A   1     -13.452   8.530  71.747  1.00  0.00    -0.371 C  
ATOM      5  OXT ASN A   1     -11.404   7.684  70.708  1.00  0.00    -0.276 OA 
ATOM      6  C   ASN A   1     -12.008   8.010  71.716  1.00  0.00    -0.301 C  
ATOM      7  O   ASN A   1     -11.490   7.897  72.967  1.00  0.00    -0.383 OA 
ENDROOT
BRANCH   4   8
ATOM      8  CB  ASN A   1     -13.639   9.742  70.840  1.00  0.00    -0.081 C  
BRANCH   8   9
ATOM      9  CG  ASN A   1     -12.943  11.027  71.242  1.00  0.00    -0.372 C  
ATOM     10  ND2 ASN A   1     -13.491  11.781  72.234  1.00  0.00    -0.547 N  
ATOM     11  OD1 ASN A   1     -11.848  11.333  70.778  1.00  0.00    -0.322 OA 
ATOM     12 1HD2 ASN A   1     -13.022  12.646  72.504  1.00  0.00     0.000 HD 
ATOM     13 2HD2 ASN A   1     -14.350  11.488  72.697  1.00  0.00     0.000 HD 
ENDBRANCH   8   9
ENDBRANCH   4   8
TORSDOF 2
ENDMDL
MODEL       39
REMARK 921   NORMALIZED FREE ENERGY PREDICTED BY IDOCK:   -3.49 KCAL/MOL
REMARK 922        TOTAL FREE ENERGY PREDICTED BY IDOCK:   -4.15 KCAL/MOL
REMARK 923 INTER-LIGAND FREE ENERGY PREDICTED BY IDOCK:   -3.85 KCAL/MOL
REMARK 924 INTRA-LIGAND FREE ENERGY PREDICTED BY IDOCK:   -0.30 KCAL/MOL
REMARK 927      BINDING AFFINITY PREDICTED BY RF-SCORE:    0.00 PKD
ROOT
ATOM      1  N   ASN A   1      -8.595  18.430  66.055  1.00  0.00    -0.511 NA 
ATOM      2  H1  ASN A   1      -7.783  18.078  65.548  1.00  0.00     0.000 HD 
ATOM      3  H2  ASN A   1      -9.469  18.149  65.613  1.00  0.00     0.000 HD 
ATOM      4  CA  ASN A   1      -8.508  19.921  66.220  1.00  0.00    -0.338 C  
ATOM      5  OXT ASN A   1      -6.839  21.368  67.274  1.00  0.00    -0.572 OA 
ATOM      6  C   ASN A   1      -7.194  20.249  66.944  1.00  0.00    -0.270 C  
ATOM      7  O   ASN A   1      -6.433  19.139  67.129  1.00  0.00    -0.188 OA 
ENDROOT
BRANCH   4   8
ATOM      8  CB  ASN A   1      -9.721  20.446  66.978  1.00  0.00    -0.588 C  
BRANCH   8   9
ATOM      9  CG  ASN A   1     -10.376  19.515  67.979  1.00  0.00    -0.445 C  
ATOM     10  ND2 ASN A   1     -10.406  19.883  69.288  1.00  0.00    -0.588 N  
ATOM     11  OD1 ASN A   1     -10.976  18.507  67.615  1.00  0.00    -0.355 OA 
ATOM     12 1HD2 ASN A   1     -10.847  19.257  69.962  1.00  0.00     0.000 HD 
ATOM     13 2HD2 ASN A   1      -9.997  20.767  69.591  1.00  0.00     0.000 HD 
ENDBRANCH   8   9
ENDBRANCH   4   8
TORSDOF 2
ENDMDL
MODEL       40
REMARK 921   NORMALIZED FREE ENERGY PREDICTED BY IDOCK:   -3.48 KCAL/MOL
REMARK 922        TOTAL FREE ENERGY PREDICTED BY IDOCK:   -4.15 KCAL/MOL
REMARK 923 INTER-LIGAND FREE ENERGY PREDICTED BY IDOCK:   -3.93 KCAL/MOL
REMARK 924 INTRA-LIGAND FREE ENERGY PREDICTED BY IDOCK:   -0.22 KCAL/MOL
REMARK 927      BINDING AFFINITY PREDICTED BY RF-SCORE:    0.00 PKD
ROOT
ATOM      1  N   ASN A   1     -10.257  10.611  62.468  1.00  0.00    -0.752 NA 
ATOM      2  H1  ASN A   1      -9.440  10.417  61.888  1.00  0.00     0.000 HD 
ATOM      3  H2  ASN A   1     -10.980  11.109  61.949  1.00  0.00     0.000 HD 
ATOM      4  CA  ASN A   1      -9.856  11.349  63.713  1.00  0.00    -0.319 C  
ATOM      5  OXT ASN A   1      -8.314  10.797  65.532  1.00  0.00    -0.168 OA 
ATOM      6  C   ASN A   1      -8.813  10.504  64.457  1.00  0.00    -0.200 C  
ATOM      7  O   ASN A   1      -8.460   9.401  63.746  1.00  0.00    -0.172 OA 
ENDROOT
BRANCH   4   8
ATOM      8  CB  ASN A   1     -11.076  11.639  64.579  1.00  0.00    -0.365 C  
BRANCH   8   9
ATOM      9  CG  ASN A   1     -12.260  12.313  63.914  1.00  0.00    -0.515 C  
ATOM     10  ND2 ASN A   1     -12.933  11.637  62.943  1.00  0.00    -0.792 N  
ATOM     11  OD1 ASN A   1     -12.688  13.392  64.314  1.00  0.00    -0.644 OA 
ATOM     12 1HD2 ASN A   1     -13.730  12.090  62.496  1.00  0.00     0.000 HD 
ATOM     13 2HD2 ASN A   1     -12.647  10.698  62.669  1.00  0.00     0.000 HD 
ENDBRANCH   8   9
ENDBRANCH   4   8
TORSDOF 2
ENDMDL
MODEL       41
REMARK 921   NORMALIZED FREE ENERGY PREDICTED BY IDOCK:   -3.46 KCAL/MOL
REMARK 922        TOTAL FREE ENERGY PREDICTED BY IDOCK:   -4.13 KCAL/MOL
REMARK 923 INTER-LIGAND FREE ENERGY PREDICTED BY IDOCK:   -3.78 KCAL/MOL
REMARK 924 INTRA-LIGAND FREE ENERGY PREDICTED BY IDOCK:   -0.34 KCAL/MOL
REMARK 927      BINDING AFFINITY PREDICTED BY RF-SCORE:    0.00 PKD
ROOT
ATOM      1  N   ASN A   1     -10.102  20.186  65.647  1.00  0.00    -0.483 NA 
ATOM      2  H1  ASN A   1      -9.777  21.154  65.663  1.00  0.00     0.000 HD 
ATOM      3  H2  ASN A   1     -10.946  20.079  65.086  1.00  0.00     0.000 HD 
ATOM      4  CA  ASN A   1     -10.292  19.671  67.044  1.00  0.00    -0.460 C  
ATOM      5  OXT ASN A   1      -8.763  19.447  68.942  1.00  0.00    -0.365 OA 
ATOM      6  C   ASN A   1      -8.961  19.816  67.796  1.00  0.00    -0.325 C  
ATOM      7  O   ASN A   1      -8.030  20.462  67.047  1.00  0.00    -0.321 OA 
ENDROOT
BRANCH   4   8
ATOM      8  CB  ASN A   1     -10.777  18.226  67.020  1.00  0.00    -0.305 C  
BRANCH   8   9
ATOM      9  CG  ASN A   1     -10.359  17.370  65.840  1.00  0.00    -0.269 C  
ATOM     10  ND2 ASN A   1      -9.330  16.494  66.003  1.00  0.00    -0.291 N  
ATOM     11  OD1 ASN A   1     -11.001  17.367  64.794  1.00  0.00    -0.964 OA 
ATOM     12 1HD2 ASN A   1      -9.049  15.918  65.210  1.00  0.00     0.000 HD 
ATOM     13 2HD2 ASN A   1      -8.849  16.416  66.899  1.00  0.00     0.000 HD 
ENDBRANCH   8   9
ENDBRANCH   4   8
TORSDOF 2
ENDMDL
MODEL       42
REMARK 921   NORMALIZED FREE ENERGY PREDICTED BY IDOCK:   -3.44 KCAL/MOL
REMARK 922        TOTAL FREE ENERGY PREDICTED BY IDOCK:   -4.10 KCAL/MOL
REMARK 923 INTER-LIGAND FREE ENERGY PREDICTED BY IDOCK:   -3.78 KCAL/MOL
REMARK 924 INTRA-LIGAND FREE ENERGY PREDICTED BY IDOCK:   -0.32 KCAL/MOL
REMARK 927      BINDING AFFINITY PREDICTED BY RF-SCORE:    0.00 PKD
ROOT
ATOM      1  N   ASN A   1     -11.657  12.342  69.966  1.00  0.00    -0.524 NA 
ATOM      2  H1  ASN A   1     -11.351  13.020  69.268  1.00  0.00     0.000 HD 
ATOM      3  H2  ASN A   1     -11.499  12.678  70.915  1.00  0.00     0.000 HD 
ATOM      4  CA  ASN A   1     -11.003  11.011  69.730  1.00  0.00    -0.193 C  
ATOM      5  OXT ASN A   1     -11.001   9.492  67.810  1.00  0.00    -0.244 OA 
ATOM      6  C   ASN A   1     -11.341  10.555  68.303  1.00  0.00    -0.264 C  
ATOM      7  O   ASN A   1     -12.025  11.511  67.621  1.00  0.00    -0.630 OA 
ENDROOT
BRANCH   4   8
ATOM      8  CB  ASN A   1     -11.460   9.997  70.773  1.00  0.00    -0.438 C  
BRANCH   8   9
ATOM      9  CG  ASN A   1     -12.892  10.097  71.261  1.00  0.00    -0.410 C  
ATOM     10  ND2 ASN A   1     -13.745   9.072  70.990  1.00  0.00    -0.578 N  
ATOM     11  OD1 ASN A   1     -13.255  11.016  71.990  1.00  0.00    -0.499 OA 
ATOM     12 1HD2 ASN A   1     -14.708   9.139  71.320  1.00  0.00     0.000 HD 
ATOM     13 2HD2 ASN A   1     -13.429   8.255  70.469  1.00  0.00     0.000 HD 
ENDBRANCH   8   9
ENDBRANCH   4   8
TORSDOF 2
ENDMDL
MODEL       43
REMARK 921   NORMALIZED FREE ENERGY PREDICTED BY IDOCK:   -3.44 KCAL/MOL
REMARK 922        TOTAL FREE ENERGY PREDICTED BY IDOCK:   -4.10 KCAL/MOL
REMARK 923 INTER-LIGAND FREE ENERGY PREDICTED BY IDOCK:   -3.72 KCAL/MOL
REMARK 924 INTRA-LIGAND FREE ENERGY PREDICTED BY IDOCK:   -0.38 KCAL/MOL
REMARK 927      BINDING AFFINITY PREDICTED BY RF-SCORE:    0.00 PKD
ROOT
ATOM      1  N   ASN A   1     -12.288   7.028  70.630  1.00  0.00    -0.601 NA 
ATOM      2  H1  ASN A   1     -12.049   6.073  70.363  1.00  0.00     0.000 HD 
ATOM      3  H2  ASN A   1     -12.526   7.599  69.820  1.00  0.00     0.000 HD 
ATOM      4  CA  ASN A   1     -11.183   7.642  71.441  1.00  0.00    -0.246 C  
ATOM      5  OXT ASN A   1     -10.129   6.990  73.552  1.00  0.00    -0.240 OA 
ATOM      6  C   ASN A   1     -10.933   6.751  72.666  1.00  0.00    -0.257 C  
ATOM      7  O   ASN A   1     -11.681   5.617  72.622  1.00  0.00    -0.303 OA 
ENDROOT
BRANCH   4   8
ATOM      8  CB  ASN A   1     -11.541   9.069  71.840  1.00  0.00    -0.441 C  
BRANCH   8   9
ATOM      9  CG  ASN A   1     -13.004   9.462  71.786  1.00  0.00    -0.402 C  
ATOM     10  ND2 ASN A   1     -13.819   9.080  72.808  1.00  0.00    -0.886 N  
ATOM     11  OD1 ASN A   1     -13.433  10.209  70.911  1.00  0.00    -0.345 OA 
ATOM     12 1HD2 ASN A   1     -14.803   9.345  72.772  1.00  0.00     0.000 HD 
ATOM     13 2HD2 ASN A   1     -13.453   8.541  73.592  1.00  0.00     0.000 HD 
ENDBRANCH   8   9
ENDBRANCH   4   8
TORSDOF 2
ENDMDL
MODEL       44
REMARK 921   NORMALIZED FREE ENERGY PREDICTED BY IDOCK:   -3.43 KCAL/MOL
REMARK 922        TOTAL FREE ENERGY PREDICTED BY IDOCK:   -4.09 KCAL/MOL
REMARK 923 INTER-LIGAND FREE ENERGY PREDICTED BY IDOCK:   -3.69 KCAL/MOL
REMARK 924 INTRA-LIGAND FREE ENERGY PREDICTED BY IDOCK:   -0.40 KCAL/MOL
REMARK 927      BINDING AFFINITY PREDICTED BY RF-SCORE:    0.00 PKD
ROOT
ATOM      1  N   ASN A   1     -12.094  12.218  66.701  1.00  0.00    -0.589 NA 
ATOM      2  H1  ASN A   1     -12.824  12.651  67.266  1.00  0.00     0.000 HD 
ATOM      3  H2  ASN A   1     -11.594  11.495  67.218  1.00  0.00     0.000 HD 
ATOM      4  CA  ASN A   1     -11.160  13.261  66.158  1.00  0.00    -0.285 C  
ATOM      5  OXT ASN A   1     -11.523  15.220  64.736  1.00  0.00    -0.401 OA 
ATOM      6  C   ASN A   1     -11.985  14.272  65.349  1.00  0.00    -0.383 C  
ATOM      7  O   ASN A   1     -13.317  14.018  65.440  1.00  0.00    -0.721 OA 
ENDROOT
BRANCH   4   8
ATOM      8  CB  ASN A   1     -10.068  12.614  65.314  1.00  0.00    -0.271 C  
BRANCH   8   9
ATOM      9  CG  ASN A   1     -10.436  11.369  64.532  1.00  0.00    -0.322 C  
ATOM     10  ND2 ASN A   1     -10.032  10.159  65.006  1.00  0.00    -0.332 N  
ATOM     11  OD1 ASN A   1     -11.184  11.424  63.559  1.00  0.00    -0.391 OA 
ATOM     12 1HD2 ASN A   1     -10.280   9.321  64.480  1.00  0.00     0.000 HD 
ATOM     13 2HD2 ASN A   1      -9.492  10.091  65.868  1.00  0.00     0.000 HD 
ENDBRANCH   8   9
ENDBRANCH   4   8
TORSDOF 2
ENDMDL
MODEL       45
REMARK 921   NORMALIZED FREE ENERGY PREDICTED BY IDOCK:   -3.42 KCAL/MOL
REMARK 922        TOTAL FREE ENERGY PREDICTED BY IDOCK:   -4.07 KCAL/MOL
REMARK 923 INTER-LIGAND FREE ENERGY PREDICTED BY IDOCK:   -3.82 KCAL/MOL
REMARK 924 INTRA-LIGAND FREE ENERGY PREDICTED BY IDOCK:   -0.26 KCAL/MOL
REMARK 927      BINDING AFFINITY PREDICTED BY RF-SCORE:    0.00 PKD
ROOT
ATOM      1  N   ASN A   1     -10.246  11.673  62.864  1.00  0.00    -0.643 NA 
ATOM      2  H1  ASN A   1     -10.722  11.816  61.973  1.00  0.00     0.000 HD 
ATOM      3  H2  ASN A   1      -9.519  10.962  62.795  1.00  0.00     0.000 HD 
ATOM      4  CA  ASN A   1     -11.238  11.352  63.945  1.00  0.00    -0.280 C  
ATOM      5  OXT ASN A   1     -13.172  12.569  64.823  1.00  0.00    -0.839 OA 
ATOM      6  C   ASN A   1     -12.258  12.497  64.018  1.00  0.00    -0.480 C  
ATOM      7  O   ASN A   1     -12.058  13.410  63.031  1.00  0.00    -0.386 OA 
ENDROOT
BRANCH   4   8
ATOM      8  CB  ASN A   1     -10.528  11.138  65.277  1.00  0.00    -0.326 C  
BRANCH   8   9
ATOM      9  CG  ASN A   1      -9.412  10.113  65.316  1.00  0.00    -0.248 C  
ATOM     10  ND2 ASN A   1      -9.724   8.822  65.616  1.00  0.00    -0.455 N  
ATOM     11  OD1 ASN A   1      -8.270  10.399  64.968  1.00  0.00    -0.159 OA 
ATOM     12 1HD2 ASN A   1      -8.973   8.132  65.642  1.00  0.00     0.000 HD 
ATOM     13 2HD2 ASN A   1     -10.687   8.551  65.811  1.00  0.00     0.000 HD 
ENDBRANCH   8   9
ENDBRANCH   4   8
TORSDOF 2
ENDMDL
MODEL       46
REMARK 921   NORMALIZED FREE ENERGY PREDICTED BY IDOCK:   -3.41 KCAL/MOL
REMARK 922        TOTAL FREE ENERGY PREDICTED BY IDOCK:   -4.07 KCAL/MOL
REMARK 923 INTER-LIGAND FREE ENERGY PREDICTED BY IDOCK:   -3.68 KCAL/MOL
REMARK 924 INTRA-LIGAND FREE ENERGY PREDICTED BY IDOCK:   -0.38 KCAL/MOL
REMARK 927      BINDING AFFINITY PREDICTED BY RF-SCORE:    0.00 PKD
ROOT
ATOM      1  N   ASN A   1     -10.974   9.315  71.130  1.00  0.00    -0.309 NA 
ATOM      2  H1  ASN A   1     -10.561   8.691  71.824  1.00  0.00     0.000 HD 
ATOM      3  H2  ASN A   1     -10.312  10.024  70.818  1.00  0.00     0.000 HD 
ATOM      4  CA  ASN A   1     -12.239   9.927  71.658  1.00  0.00    -0.395 C  
ATOM      5  OXT ASN A   1     -14.331   8.947  72.470  1.00  0.00    -0.579 OA 
ATOM      6  C   ASN A   1     -13.196   8.791  72.048  1.00  0.00    -0.395 C  
ATOM      7  O   ASN A   1     -12.607   7.574  71.922  1.00  0.00    -0.309 OA 
ENDROOT
BRANCH   4   8
ATOM      8  CB  ASN A   1     -12.856  10.858  70.621  1.00  0.00    -0.340 C  
BRANCH   8   9
ATOM      9  CG  ASN A   1     -11.968  11.320  69.482  1.00  0.00    -0.351 C  
ATOM     10  ND2 ASN A   1     -10.944  12.172  69.759  1.00  0.00    -0.449 N  
ATOM     11  OD1 ASN A   1     -12.083  10.850  68.353  1.00  0.00    -0.559 OA 
ATOM     12 1HD2 ASN A   1     -10.346  12.482  68.993  1.00  0.00     0.000 HD 
ATOM     13 2HD2 ASN A   1     -10.777  12.493  70.712  1.00  0.00     0.000 HD 
ENDBRANCH   8   9
ENDBRANCH   4   8
TORSDOF 2
ENDMDL
MODEL       47
REMARK 921   NORMALIZED FREE ENERGY PREDICTED BY IDOCK:   -3.40 KCAL/MOL
REMARK 922        TOTAL FREE ENERGY PREDICTED BY IDOCK:   -4.06 KCAL/MOL
REMARK 923 INTER-LIGAND FREE ENERGY PREDICTED BY IDOCK:   -3.66 KCAL/MOL
REMARK 924 INTRA-LIGAND FREE ENERGY PREDICTED BY IDOCK:   -0.41 KCAL/MOL
REMARK 927      BINDING AFFINITY PREDICTED BY RF-SCORE:    0.00 PKD
ROOT
ATOM      1  N   ASN A   1     -12.071   9.684  70.034  1.00  0.00    -0.454 NA 
ATOM      2  H1  ASN A   1     -12.144  10.235  69.178  1.00  0.00     0.000 HD 
ATOM      3  H2  ASN A   1     -12.151   8.685  69.849  1.00  0.00     0.000 HD 
ATOM      4  CA  ASN A   1     -13.080  10.146  71.046  1.00  0.00    -0.375 C  
ATOM      5  OXT ASN A   1     -13.471  12.315  72.112  1.00  0.00    -0.509 OA 
ATOM      6  C   ASN A   1     -12.849  11.642  71.306  1.00  0.00    -0.328 C  
ATOM      7  O   ASN A   1     -11.895  12.152  70.484  1.00  0.00    -0.287 OA 
ENDROOT
BRANCH   4   8
ATOM      8  CB  ASN A   1     -12.970   9.324  72.325  1.00  0.00    -0.488 C  
BRANCH   8   9
ATOM      9  CG  ASN A   1     -11.948   8.204  72.349  1.00  0.00    -0.372 C  
ATOM     10  ND2 ASN A   1     -12.369   6.933  72.102  1.00  0.00    -0.504 N  
ATOM     11  OD1 ASN A   1     -10.749   8.437  72.466  1.00  0.00    -0.338 OA 
ATOM     12 1HD2 ASN A   1     -11.681   6.180  72.118  1.00  0.00     0.000 HD 
ATOM     13 2HD2 ASN A   1     -13.350   6.738  71.906  1.00  0.00     0.000 HD 
ENDBRANCH   8   9
ENDBRANCH   4   8
TORSDOF 2
ENDMDL
MODEL       48
REMARK 921   NORMALIZED FREE ENERGY PREDICTED BY IDOCK:   -3.39 KCAL/MOL
REMARK 922        TOTAL FREE ENERGY PREDICTED BY IDOCK:   -4.05 KCAL/MOL
REMARK 923 INTER-LIGAND FREE ENERGY PREDICTED BY IDOCK:   -3.60 KCAL/MOL
REMARK 924 INTRA-LIGAND FREE ENERGY PREDICTED BY IDOCK:   -0.45 KCAL/MOL
REMARK 927      BINDING AFFINITY PREDICTED BY RF-SCORE:    0.00 PKD
ROOT
ATOM      1  N   ASN A   1     -10.670  18.173  67.601  1.00  0.00    -0.399 NA 
ATOM      2  H1  ASN A   1     -10.620  18.980  68.224  1.00  0.00     0.000 HD 
ATOM      3  H2  ASN A   1     -11.097  17.368  68.058  1.00  0.00     0.000 HD 
ATOM      4  CA  ASN A   1      -9.312  17.847  67.050  1.00  0.00    -0.267 C  
ATOM      5  OXT ASN A   1      -7.710  19.149  65.735  1.00  0.00    -0.443 OA 
ATOM      6  C   ASN A   1      -8.772  19.093  66.332  1.00  0.00    -0.328 C  
ATOM      7  O   ASN A   1      -9.600  20.159  66.488  1.00  0.00    -0.394 OA 
ENDROOT
BRANCH   4   8
ATOM      8  CB  ASN A   1      -9.387  16.643  66.119  1.00  0.00    -0.318 C  
BRANCH   8   9
ATOM      9  CG  ASN A   1     -10.737  16.312  65.514  1.00  0.00    -0.313 C  
ATOM     10  ND2 ASN A   1     -11.427  15.246  66.004  1.00  0.00    -0.169 N  
ATOM     11  OD1 ASN A   1     -11.263  17.050  64.685  1.00  0.00    -0.968 OA 
ATOM     12 1HD2 ASN A   1     -12.335  15.024  65.597  1.00  0.00     0.000 HD 
ATOM     13 2HD2 ASN A   1     -11.044  14.682  66.762  1.00  0.00     0.000 HD 
ENDBRANCH   8   9
ENDBRANCH   4   8
TORSDOF 2
ENDMDL
MODEL       49
REMARK 921   NORMALIZED FREE ENERGY PREDICTED BY IDOCK:   -3.36 KCAL/MOL
REMARK 922        TOTAL FREE ENERGY PREDICTED BY IDOCK:   -4.01 KCAL/MOL
REMARK 923 INTER-LIGAND FREE ENERGY PREDICTED BY IDOCK:   -3.66 KCAL/MOL
REMARK 924 INTRA-LIGAND FREE ENERGY PREDICTED BY IDOCK:   -0.35 KCAL/MOL
REMARK 927      BINDING AFFINITY PREDICTED BY RF-SCORE:    0.00 PKD
ROOT
ATOM      1  N   ASN A   1     -12.338   7.323  72.576  1.00  0.00    -0.503 NA 
ATOM      2  H1  ASN A   1     -12.788   7.367  73.491  1.00  0.00     0.000 HD 
ATOM      3  H2  ASN A   1     -11.523   6.711  72.583  1.00  0.00     0.000 HD 
ATOM      4  CA  ASN A   1     -11.996   8.703  72.091  1.00  0.00    -0.379 C  
ATOM      5  OXT ASN A   1     -13.365  10.687  71.664  1.00  0.00    -0.372 OA 
ATOM      6  C   ASN A   1     -13.287   9.534  72.055  1.00  0.00    -0.452 C  
ATOM      7  O   ASN A   1     -14.339   8.847  72.571  1.00  0.00    -0.579 OA 
ENDROOT
BRANCH   4   8
ATOM      8  CB  ASN A   1     -11.325   8.637  70.724  1.00  0.00    -0.299 C  
BRANCH   8   9
ATOM      9  CG  ASN A   1     -10.837   7.282  70.250  1.00  0.00    -0.245 C  
ATOM     10  ND2 ASN A   1     -11.612   6.579  69.380  1.00  0.00    -0.653 N  
ATOM     11  OD1 ASN A   1      -9.717   6.870  70.540  1.00  0.00    -0.173 OA 
ATOM     12 1HD2 ASN A   1     -11.283   5.668  69.061  1.00  0.00     0.000 HD 
ATOM     13 2HD2 ASN A   1     -12.501   6.955  69.053  1.00  0.00     0.000 HD 
ENDBRANCH   8   9
ENDBRANCH   4   8
TORSDOF 2
ENDMDL
MODEL       50
REMARK 921   NORMALIZED FREE ENERGY PREDICTED BY IDOCK:   -3.35 KCAL/MOL
REMARK 922        TOTAL FREE ENERGY PREDICTED BY IDOCK:   -4.00 KCAL/MOL
REMARK 923 INTER-LIGAND FREE ENERGY PREDICTED BY IDOCK:   -3.75 KCAL/MOL
REMARK 924 INTRA-LIGAND FREE ENERGY PREDICTED BY IDOCK:   -0.25 KCAL/MOL
REMARK 927      BINDING AFFINITY PREDICTED BY RF-SCORE:    0.00 PKD
ROOT
ATOM      1  N   ASN A   1     -11.774  13.034  67.444  1.00  0.00    -0.361 NA 
ATOM      2  H1  ASN A   1     -11.837  12.350  68.197  1.00  0.00     0.000 HD 
ATOM      3  H2  ASN A   1     -12.683  13.440  67.224  1.00  0.00     0.000 HD 
ATOM      4  CA  ASN A   1     -11.127  12.426  66.232  1.00  0.00    -0.303 C  
ATOM      5  OXT ASN A   1      -8.941  11.383  65.879  1.00  0.00    -0.207 OA 
ATOM      6  C   ASN A   1      -9.745  11.896  66.640  1.00  0.00    -0.205 C  
ATOM      7  O   ASN A   1      -9.538  12.014  67.978  1.00  0.00    -0.186 OA 
ENDROOT
BRANCH   4   8
ATOM      8  CB  ASN A   1     -11.033  13.449  65.106  1.00  0.00    -0.315 C  
BRANCH   8   9
ATOM      9  CG  ASN A   1     -12.332  13.928  64.488  1.00  0.00    -0.372 C  
ATOM     10  ND2 ASN A   1     -12.402  14.054  63.135  1.00  0.00    -1.094 N  
ATOM     11  OD1 ASN A   1     -13.343  14.086  65.168  1.00  0.00    -0.703 OA 
ATOM     12 1HD2 ASN A   1     -13.277  14.376  62.720  1.00  0.00     0.000 HD 
ATOM     13 2HD2 ASN A   1     -11.599  13.832  62.549  1.00  0.00     0.000 HD 
ENDBRANCH   8   9
ENDBRANCH   4   8
TORSDOF 2
ENDMDL
MODEL       51
REMARK 921   NORMALIZED FREE ENERGY PREDICTED BY IDOCK:   -3.34 KCAL/MOL
REMARK 922        TOTAL FREE ENERGY PREDICTED BY IDOCK:   -3.99 KCAL/MOL
REMARK 923 INTER-LIGAND FREE ENERGY PREDICTED BY IDOCK:   -3.55 KCAL/MOL
REMARK 924 INTRA-LIGAND FREE ENERGY PREDICTED BY IDOCK:   -0.44 KCAL/MOL
REMARK 927      BINDING AFFINITY PREDICTED BY RF-SCORE:    0.00 PKD
ROOT
ATOM      1  N   ASN A   1     -11.428   8.720  70.006  1.00  0.00    -0.455 NA 
ATOM      2  H1  ASN A   1     -10.893   8.434  69.185  1.00  0.00     0.000 HD 
ATOM      3  H2  ASN A   1     -11.363   9.724  70.169  1.00  0.00     0.000 HD 
ATOM      4  CA  ASN A   1     -11.006   7.930  71.211  1.00  0.00    -0.238 C  
ATOM      5  OXT ASN A   1     -10.983   5.528  71.684  1.00  0.00    -0.238 OA 
ATOM      6  C   ASN A   1     -11.191   6.438  70.898  1.00  0.00    -0.326 C  
ATOM      7  O   ASN A   1     -11.566   6.240  69.608  1.00  0.00    -0.430 OA 
ENDROOT
BRANCH   4   8
ATOM      8  CB  ASN A   1     -11.805   8.357  72.437  1.00  0.00    -0.452 C  
BRANCH   8   9
ATOM      9  CG  ASN A   1     -13.183   8.942  72.202  1.00  0.00    -0.429 C  
ATOM     10  ND2 ASN A   1     -13.328  10.295  72.221  1.00  0.00    -0.590 N  
ATOM     11  OD1 ASN A   1     -14.132   8.232  71.880  1.00  0.00    -0.387 OA 
ATOM     12 1HD2 ASN A   1     -14.256  10.689  72.063  1.00  0.00     0.000 HD 
ATOM     13 2HD2 ASN A   1     -12.527  10.903  72.390  1.00  0.00     0.000 HD 
ENDBRANCH   8   9
ENDBRANCH   4   8
TORSDOF 2
ENDMDL
MODEL       52
REMARK 921   NORMALIZED FREE ENERGY PREDICTED BY IDOCK:   -3.32 KCAL/MOL
REMARK 922        TOTAL FREE ENERGY PREDICTED BY IDOCK:   -3.96 KCAL/MOL
REMARK 923 INTER-LIGAND FREE ENERGY PREDICTED BY IDOCK:   -3.73 KCAL/MOL
REMARK 924 INTRA-LIGAND FREE ENERGY PREDICTED BY IDOCK:   -0.23 KCAL/MOL
REMARK 927      BINDING AFFINITY PREDICTED BY RF-SCORE:    0.00 PKD
ROOT
ATOM      1  N   ASN A   1     -13.780  12.487  72.679  1.00  0.00    -0.622 NA 
ATOM      2  H1  ASN A   1     -13.522  13.398  73.060  1.00  0.00     0.000 HD 
ATOM      3  H2  ASN A   1     -14.011  11.820  73.415  1.00  0.00     0.000 HD 
ATOM      4  CA  ASN A   1     -12.699  11.968  71.775  1.00  0.00    -0.168 C  
ATOM      5  OXT ASN A   1     -11.676  12.869  69.742  1.00  0.00    -0.307 OA 
ATOM      6  C   ASN A   1     -12.459  13.004  70.668  1.00  0.00    -0.268 C  
ATOM      7  O   ASN A   1     -13.190  14.131  70.869  1.00  0.00    -0.320 OA 
ENDROOT
BRANCH   4   8
ATOM      8  CB  ASN A   1     -13.085  10.607  71.206  1.00  0.00    -0.456 C  
BRANCH   8   9
ATOM      9  CG  ASN A   1     -13.015   9.415  72.140  1.00  0.00    -0.421 C  
ATOM     10  ND2 ASN A   1     -14.036   9.214  73.017  1.00  0.00    -0.852 N  
ATOM     11  OD1 ASN A   1     -12.125   8.575  72.036  1.00  0.00    -0.316 OA 
ATOM     12 1HD2 ASN A   1     -13.988   8.412  73.645  1.00  0.00     0.000 HD 
ATOM     13 2HD2 ASN A   1     -14.831   9.851  73.046  1.00  0.00     0.000 HD 
ENDBRANCH   8   9
ENDBRANCH   4   8
TORSDOF 2
ENDMDL
MODEL       53
REMARK 921   NORMALIZED FREE ENERGY PREDICTED BY IDOCK:   -3.29 KCAL/MOL
REMARK 922        TOTAL FREE ENERGY PREDICTED BY IDOCK:   -3.93 KCAL/MOL
REMARK 923 INTER-LIGAND FREE ENERGY PREDICTED BY IDOCK:   -3.55 KCAL/MOL
REMARK 924 INTRA-LIGAND FREE ENERGY PREDICTED BY IDOCK:   -0.38 KCAL/MOL
REMARK 927      BINDING AFFINITY PREDICTED BY RF-SCORE:    0.00 PKD
ROOT
ATOM      1  N   ASN A   1     -13.262   9.935  70.582  1.00  0.00    -0.611 NA 
ATOM      2  H1  ASN A   1     -13.698  10.818  70.318  1.00  0.00     0.000 HD 
ATOM      3  H2  ASN A   1     -13.701   9.527  71.406  1.00  0.00     0.000 HD 
ATOM      4  CA  ASN A   1     -11.782  10.113  70.770  1.00  0.00    -0.357 C  
ATOM      5  OXT ASN A   1     -10.011  10.890  69.270  1.00  0.00    -0.196 OA 
ATOM      6  C   ASN A   1     -11.196  10.673  69.467  1.00  0.00    -0.272 C  
ATOM      7  O   ASN A   1     -12.168  10.958  68.562  1.00  0.00    -0.535 OA 
ENDROOT
BRANCH   4   8
ATOM      8  CB  ASN A   1     -11.131   8.792  71.165  1.00  0.00    -0.340 C  
BRANCH   8   9
ATOM      9  CG  ASN A   1     -11.974   7.537  71.055  1.00  0.00    -0.290 C  
ATOM     10  ND2 ASN A   1     -11.924   6.819  69.900  1.00  0.00    -0.659 N  
ATOM     11  OD1 ASN A   1     -12.598   7.101  72.018  1.00  0.00    -0.290 OA 
ATOM     12 1HD2 ASN A   1     -12.492   5.975  69.826  1.00  0.00     0.000 HD 
ATOM     13 2HD2 ASN A   1     -11.333   7.118  69.125  1.00  0.00     0.000 HD 
ENDBRANCH   8   9
ENDBRANCH   4   8
TORSDOF 2
ENDMDL
MODEL       54
REMARK 921   NORMALIZED FREE ENERGY PREDICTED BY IDOCK:   -3.28 KCAL/MOL
REMARK 922        TOTAL FREE ENERGY PREDICTED BY IDOCK:   -3.92 KCAL/MOL
REMARK 923 INTER-LIGAND FREE ENERGY PREDICTED BY IDOCK:   -3.65 KCAL/MOL
REMARK 924 INTRA-LIGAND FREE ENERGY PREDICTED BY IDOCK:   -0.27 KCAL/MOL
REMARK 927      BINDING AFFINITY PREDICTED BY RF-SCORE:    0.00 PKD
ROOT
ATOM      1  N   ASN A   1     -12.648  13.029  65.794  1.00  0.00    -0.504 NA 
ATOM      2  H1  ASN A   1     -12.946  13.832  65.240  1.00  0.00     0.000 HD 
ATOM      3  H2  ASN A   1     -12.729  13.209  66.794  1.00  0.00     0.000 HD 
ATOM      4  CA  ASN A   1     -11.257  12.611  65.413  1.00  0.00    -0.299 C  
ATOM      5  OXT ASN A   1     -10.275  11.894  63.288  1.00  0.00    -0.427 OA 
ATOM      6  C   ASN A   1     -11.243  12.304  63.908  1.00  0.00    -0.421 C  
ATOM      7  O   ASN A   1     -12.434  12.600  63.325  1.00  0.00    -0.648 OA 
ENDROOT
BRANCH   4   8
ATOM      8  CB  ASN A   1     -10.813  11.411  66.241  1.00  0.00    -0.318 C  
BRANCH   8   9
ATOM      9  CG  ASN A   1     -11.179  11.405  67.712  1.00  0.00    -0.283 C  
ATOM     10  ND2 ASN A   1     -11.439  10.213  68.314  1.00  0.00    -0.532 N  
ATOM     11  OD1 ASN A   1     -11.127  12.430  68.387  1.00  0.00    -0.220 OA 
ATOM     12 1HD2 ASN A   1     -11.684  10.209  69.304  1.00  0.00     0.000 HD 
ATOM     13 2HD2 ASN A   1     -11.389   9.341  67.787  1.00  0.00     0.000 HD 
ENDBRANCH   8   9
ENDBRANCH   4   8
TORSDOF 2
ENDMDL
MODEL       55
REMARK 921   NORMALIZED FREE ENERGY PREDICTED BY IDOCK:   -3.28 KCAL/MOL
REMARK 922        TOTAL FREE ENERGY PREDICTED BY IDOCK:   -3.92 KCAL/MOL
REMARK 923 INTER-LIGAND FREE ENERGY PREDICTED BY IDOCK:   -3.68 KCAL/MOL
REMARK 924 INTRA-LIGAND FREE ENERGY PREDICTED BY IDOCK:   -0.24 KCAL/MOL
REMARK 927      BINDING AFFINITY PREDICTED BY RF-SCORE:    0.00 PKD
ROOT
ATOM      1  N   ASN A   1      -9.926   9.713  71.000  1.00  0.00    -0.300 NA 
ATOM      2  H1  ASN A   1      -9.254   9.434  70.286  1.00  0.00     0.000 HD 
ATOM      3  H2  ASN A   1      -9.890   9.102  71.815  1.00  0.00     0.000 HD 
ATOM      4  CA  ASN A   1     -11.310   9.787  70.420  1.00  0.00    -0.297 C  
ATOM      5  OXT ASN A   1     -12.259  11.091  68.579  1.00  0.00    -0.582 OA 
ATOM      6  C   ASN A   1     -11.285  10.769  69.241  1.00  0.00    -0.272 C  
ATOM      7  O   ASN A   1     -10.026  11.204  68.976  1.00  0.00    -0.199 OA 
ENDROOT
BRANCH   4   8
ATOM      8  CB  ASN A   1     -12.315  10.204  71.487  1.00  0.00    -0.505 C  
BRANCH   8   9
ATOM      9  CG  ASN A   1     -12.796   9.136  72.449  1.00  0.00    -0.367 C  
ATOM     10  ND2 ASN A   1     -14.071   9.208  72.918  1.00  0.00    -0.823 N  
ATOM     11  OD1 ASN A   1     -12.103   8.157  72.714  1.00  0.00    -0.337 OA 
ATOM     12 1HD2 ASN A   1     -14.394   8.489  73.566  1.00  0.00     0.000 HD 
ATOM     13 2HD2 ASN A   1     -14.691   9.964  72.629  1.00  0.00     0.000 HD 
ENDBRANCH   8   9
ENDBRANCH   4   8
TORSDOF 2
ENDMDL
MODEL       56
REMARK 921   NORMALIZED FREE ENERGY PREDICTED BY IDOCK:   -3.27 KCAL/MOL
REMARK 922        TOTAL FREE ENERGY PREDICTED BY IDOCK:   -3.91 KCAL/MOL
REMARK 923 INTER-LIGAND FREE ENERGY PREDICTED BY IDOCK:   -3.52 KCAL/MOL
REMARK 924 INTRA-LIGAND FREE ENERGY PREDICTED BY IDOCK:   -0.39 KCAL/MOL
REMARK 927      BINDING AFFINITY PREDICTED BY RF-SCORE:    0.00 PKD
ROOT
ATOM      1  N   ASN A   1     -12.285   8.538  70.549  1.00  0.00    -0.469 NA 
ATOM      2  H1  ASN A   1     -12.479   7.629  70.970  1.00  0.00     0.000 HD 
ATOM      3  H2  ASN A   1     -12.724   8.633  69.634  1.00  0.00     0.000 HD 
ATOM      4  CA  ASN A   1     -10.805   8.783  70.486  1.00  0.00    -0.233 C  
ATOM      5  OXT ASN A   1      -9.072   8.871  72.212  1.00  0.00    -0.381 OA 
ATOM      6  C   ASN A   1     -10.238   8.679  71.909  1.00  0.00    -0.334 C  
ATOM      7  O   ASN A   1     -11.187   8.288  72.799  1.00  0.00    -0.371 OA 
ENDROOT
BRANCH   4   8
ATOM      8  CB  ASN A   1     -10.514  10.141  69.856  1.00  0.00    -0.322 C  
BRANCH   8   9
ATOM      9  CG  ASN A   1     -11.691  11.069  69.627  1.00  0.00    -0.329 C  
ATOM     10  ND2 ASN A   1     -12.010  11.968  70.597  1.00  0.00    -0.485 N  
ATOM     11  OD1 ASN A   1     -12.275  11.105  68.547  1.00  0.00    -0.600 OA 
ATOM     12 1HD2 ASN A   1     -12.801  12.593  70.442  1.00  0.00     0.000 HD 
ATOM     13 2HD2 ASN A   1     -11.470  12.017  71.460  1.00  0.00     0.000 HD 
ENDBRANCH   8   9
ENDBRANCH   4   8
TORSDOF 2
ENDMDL
MODEL       57
REMARK 921   NORMALIZED FREE ENERGY PREDICTED BY IDOCK:   -3.25 KCAL/MOL
REMARK 922        TOTAL FREE ENERGY PREDICTED BY IDOCK:   -3.89 KCAL/MOL
REMARK 923 INTER-LIGAND FREE ENERGY PREDICTED BY IDOCK:   -3.50 KCAL/MOL
REMARK 924 INTRA-LIGAND FREE ENERGY PREDICTED BY IDOCK:   -0.40 KCAL/MOL
REMARK 927      BINDING AFFINITY PREDICTED BY RF-SCORE:    0.00 PKD
ROOT
ATOM      1  N   ASN A   1     -10.020  17.398  65.671  1.00  0.00    -0.569 NA 
ATOM      2  H1  ASN A   1      -9.677  17.540  64.721  1.00  0.00     0.000 HD 
ATOM      3  H2  ASN A   1     -10.942  16.963  65.680  1.00  0.00     0.000 HD 
ATOM      4  CA  ASN A   1     -10.007  18.691  66.435  1.00  0.00    -0.388 C  
ATOM      5  OXT ASN A   1      -8.212  20.260  66.990  1.00  0.00    -0.315 OA 
ATOM      6  C   ASN A   1      -8.575  19.244  66.420  1.00  0.00    -0.343 C  
ATOM      7  O   ASN A   1      -7.755  18.491  65.641  1.00  0.00    -0.509 OA 
ENDROOT
BRANCH   4   8
ATOM      8  CB  ASN A   1     -10.519  18.479  67.855  1.00  0.00    -0.419 C  
BRANCH   8   9
ATOM      9  CG  ASN A   1     -10.227  17.143  68.510  1.00  0.00    -0.346 C  
ATOM     10  ND2 ASN A   1     -11.250  16.261  68.673  1.00  0.00    -0.356 N  
ATOM     11  OD1 ASN A   1      -9.079  16.803  68.780  1.00  0.00    -0.251 OA 
ATOM     12 1HD2 ASN A   1     -11.053  15.362  69.114  1.00  0.00     0.000 HD 
ATOM     13 2HD2 ASN A   1     -12.193  16.492  68.362  1.00  0.00     0.000 HD 
ENDBRANCH   8   9
ENDBRANCH   4   8
TORSDOF 2
ENDMDL
MODEL       58
REMARK 921   NORMALIZED FREE ENERGY PREDICTED BY IDOCK:   -3.25 KCAL/MOL
REMARK 922        TOTAL FREE ENERGY PREDICTED BY IDOCK:   -3.89 KCAL/MOL
REMARK 923 INTER-LIGAND FREE ENERGY PREDICTED BY IDOCK:   -3.65 KCAL/MOL
REMARK 924 INTRA-LIGAND FREE ENERGY PREDICTED BY IDOCK:   -0.23 KCAL/MOL
REMARK 927      BINDING AFFINITY PREDICTED BY RF-SCORE:    0.00 PKD
ROOT
ATOM      1  N   ASN A   1     -11.365  11.290  70.308  1.00  0.00    -0.491 NA 
ATOM      2  H1  ASN A   1     -12.070  11.953  69.986  1.00  0.00     0.000 HD 
ATOM      3  H2  ASN A   1     -10.626  11.159  69.619  1.00  0.00     0.000 HD 
ATOM      4  CA  ASN A   1     -12.004   9.988  70.697  1.00  0.00    -0.313 C  
ATOM      5  OXT ASN A   1     -13.728   9.422  72.340  1.00  0.00    -0.454 OA 
ATOM      6  C   ASN A   1     -13.058  10.272  71.776  1.00  0.00    -0.465 C  
ATOM      7  O   ASN A   1     -13.204  11.605  71.996  1.00  0.00    -0.501 OA 
ENDROOT
BRANCH   4   8
ATOM      8  CB  ASN A   1     -10.950   8.998  71.179  1.00  0.00    -0.371 C  
BRANCH   8   9
ATOM      9  CG  ASN A   1     -11.126   7.544  70.787  1.00  0.00    -0.265 C  
ATOM     10  ND2 ASN A   1     -12.378   7.096  70.496  1.00  0.00    -0.607 N  
ATOM     11  OD1 ASN A   1     -10.159   6.807  70.615  1.00  0.00    -0.187 OA 
ATOM     12 1HD2 ASN A   1     -12.497   6.118  70.232  1.00  0.00     0.000 HD 
ATOM     13 2HD2 ASN A   1     -13.180   7.724  70.540  1.00  0.00     0.000 HD 
ENDBRANCH   8   9
ENDBRANCH   4   8
TORSDOF 2
ENDMDL
MODEL       59
REMARK 921   NORMALIZED FREE ENERGY PREDICTED BY IDOCK:   -3.24 KCAL/MOL
REMARK 922        TOTAL FREE ENERGY PREDICTED BY IDOCK:   -3.88 KCAL/MOL
REMARK 923 INTER-LIGAND FREE ENERGY PREDICTED BY IDOCK:   -3.62 KCAL/MOL
REMARK 924 INTRA-LIGAND FREE ENERGY PREDICTED BY IDOCK:   -0.26 KCAL/MOL
REMARK 927      BINDING AFFINITY PREDICTED BY RF-SCORE:    0.00 PKD
ROOT
ATOM      1  N   ASN A   1      -9.389  15.403  65.789  1.00  0.00    -0.386 NA 
ATOM      2  H1  ASN A   1      -8.736  16.132  66.077  1.00  0.00     0.000 HD 
ATOM      3  H2  ASN A   1      -9.408  15.289  64.777  1.00  0.00     0.000 HD 
ATOM      4  CA  ASN A   1     -10.757  15.671  66.347  1.00  0.00    -0.291 C  
ATOM      5  OXT ASN A   1     -11.583  15.934  68.636  1.00  0.00    -0.382 OA 
ATOM      6  C   ASN A   1     -10.644  15.768  67.875  1.00  0.00    -0.282 C  
ATOM      7  O   ASN A   1      -9.351  15.702  68.287  1.00  0.00    -0.189 OA 
ENDROOT
BRANCH   4   8
ATOM      8  CB  ASN A   1     -11.733  14.580  65.918  1.00  0.00    -0.345 C  
BRANCH   8   9
ATOM      9  CG  ASN A   1     -11.827  14.272  64.437  1.00  0.00    -0.426 C  
ATOM     10  ND2 ASN A   1     -11.002  13.325  63.915  1.00  0.00    -0.554 N  
ATOM     11  OD1 ASN A   1     -12.705  14.769  63.736  1.00  0.00    -0.767 OA 
ATOM     12 1HD2 ASN A   1     -11.066  13.117  62.918  1.00  0.00     0.000 HD 
ATOM     13 2HD2 ASN A   1     -10.334  12.832  64.507  1.00  0.00     0.000 HD 
ENDBRANCH   8   9
ENDBRANCH   4   8
TORSDOF 2
ENDMDL
MODEL       60
REMARK 921   NORMALIZED FREE ENERGY PREDICTED BY IDOCK:   -3.24 KCAL/MOL
REMARK 922        TOTAL FREE ENERGY PREDICTED BY IDOCK:   -3.88 KCAL/MOL
REMARK 923 INTER-LIGAND FREE ENERGY PREDICTED BY IDOCK:   -3.71 KCAL/MOL
REMARK 924 INTRA-LIGAND FREE ENERGY PREDICTED BY IDOCK:   -0.17 KCAL/MOL
REMARK 927      BINDING AFFINITY PREDICTED BY RF-SCORE:    0.00 PKD
ROOT
ATOM      1  N   ASN A   1     -11.543  10.006  69.227  1.00  0.00    -0.464 NA 
ATOM      2  H1  ASN A   1     -10.986  10.605  68.618  1.00  0.00     0.000 HD 
ATOM      3  H2  ASN A   1     -12.518  10.299  69.259  1.00  0.00     0.000 HD 
ATOM      4  CA  ASN A   1     -10.936   9.939  70.599  1.00  0.00    -0.337 C  
ATOM      5  OXT ASN A   1      -8.735   9.223  71.396  1.00  0.00    -0.317 OA 
ATOM      6  C   ASN A   1      -9.492   9.434  70.463  1.00  0.00    -0.269 C  
ATOM      7  O   ASN A   1      -9.129   9.299  69.160  1.00  0.00    -0.139 OA 
ENDROOT
BRANCH   4   8
ATOM      8  CB  ASN A   1     -11.768   9.043  71.509  1.00  0.00    -0.415 C  
BRANCH   8   9
ATOM      9  CG  ASN A   1     -13.035   9.631  72.098  1.00  0.00    -0.406 C  
ATOM     10  ND2 ASN A   1     -13.809   8.844  72.895  1.00  0.00    -0.915 N  
ATOM     11  OD1 ASN A   1     -13.308  10.821  71.966  1.00  0.00    -0.447 OA 
ATOM     12 1HD2 ASN A   1     -14.661   9.240  73.291  1.00  0.00     0.000 HD 
ATOM     13 2HD2 ASN A   1     -13.541   7.881  73.093  1.00  0.00     0.000 HD 
ENDBRANCH   8   9
ENDBRANCH   4   8
TORSDOF 2
ENDMDL
MODEL       61
REMARK 921   NORMALIZED FREE ENERGY PREDICTED BY IDOCK:   -3.22 KCAL/MOL
REMARK 922        TOTAL FREE ENERGY PREDICTED BY IDOCK:   -3.86 KCAL/MOL
REMARK 923 INTER-LIGAND FREE ENERGY PREDICTED BY IDOCK:   -3.46 KCAL/MOL
REMARK 924 INTRA-LIGAND FREE ENERGY PREDICTED BY IDOCK:   -0.40 KCAL/MOL
REMARK 927      BINDING AFFINITY PREDICTED BY RF-SCORE:    0.00 PKD
ROOT
ATOM      1  N   ASN A   1      -8.827  17.202  66.908  1.00  0.00    -0.226 NA 
ATOM      2  H1  ASN A   1      -8.505  18.086  66.514  1.00  0.00     0.000 HD 
ATOM      3  H2  ASN A   1      -8.083  16.714  67.404  1.00  0.00     0.000 HD 
ATOM      4  CA  ASN A   1      -9.441  16.343  65.839  1.00  0.00    -0.254 C  
ATOM      5  OXT ASN A   1     -11.321  16.702  64.313  1.00  0.00    -1.116 OA 
ATOM      6  C   ASN A   1     -10.587  17.132  65.188  1.00  0.00     0.047 C  
ATOM      7  O   ASN A   1     -10.655  18.402  65.663  1.00  0.00    -0.622 OA 
ENDROOT
BRANCH   4   8
ATOM      8  CB  ASN A   1      -9.924  15.022  66.427  1.00  0.00    -0.295 C  
BRANCH   8   9
ATOM      9  CG  ASN A   1     -11.063  15.077  67.426  1.00  0.00    -0.324 C  
ATOM     10  ND2 ASN A   1     -10.896  15.803  68.565  1.00  0.00    -0.274 N  
ATOM     11  OD1 ASN A   1     -12.159  14.584  67.172  1.00  0.00    -0.397 OA 
ATOM     12 1HD2 ASN A   1     -11.663  15.839  69.236  1.00  0.00     0.000 HD 
ATOM     13 2HD2 ASN A   1     -10.023  16.299  68.743  1.00  0.00     0.000 HD 
ENDBRANCH   8   9
ENDBRANCH   4   8
TORSDOF 2
ENDMDL
MODEL       62
REMARK 921   NORMALIZED FREE ENERGY PREDICTED BY IDOCK:   -3.22 KCAL/MOL
REMARK 922        TOTAL FREE ENERGY PREDICTED BY IDOCK:   -3.85 KCAL/MOL
REMARK 923 INTER-LIGAND FREE ENERGY PREDICTED BY IDOCK:   -3.48 KCAL/MOL
REMARK 924 INTRA-LIGAND FREE ENERGY PREDICTED BY IDOCK:   -0.38 KCAL/MOL
REMARK 927      BINDING AFFINITY PREDICTED BY RF-SCORE:    0.00 PKD
ROOT
ATOM      1  N   ASN A   1      -8.117  17.600  65.722  1.00  0.00    -0.538 NA 
ATOM      2  H1  ASN A   1      -8.111  16.838  65.044  1.00  0.00     0.000 HD 
ATOM      3  H2  ASN A   1      -7.190  18.006  65.842  1.00  0.00     0.000 HD 
ATOM      4  CA  ASN A   1      -8.697  17.139  67.028  1.00  0.00    -0.225 C  
ATOM      5  OXT ASN A   1     -10.873  16.188  67.622  1.00  0.00    -0.318 OA 
ATOM      6  C   ASN A   1     -10.109  16.599  66.763  1.00  0.00    -0.291 C  
ATOM      7  O   ASN A   1     -10.397  16.578  65.436  1.00  0.00    -0.558 OA 
ENDROOT
BRANCH   4   8
ATOM      8  CB  ASN A   1      -8.705  18.278  68.041  1.00  0.00    -0.287 C  
BRANCH   8   9
ATOM      9  CG  ASN A   1      -9.361  19.579  67.624  1.00  0.00    -0.316 C  
ATOM     10  ND2 ASN A   1      -8.684  20.410  66.786  1.00  0.00    -0.524 N  
ATOM     11  OD1 ASN A   1     -10.523  19.834  67.928  1.00  0.00    -0.420 OA 
ATOM     12 1HD2 ASN A   1      -9.126  21.286  66.505  1.00  0.00     0.000 HD 
ATOM     13 2HD2 ASN A   1      -7.755  20.164  66.446  1.00  0.00     0.000 HD 
ENDBRANCH   8   9
ENDBRANCH   4   8
TORSDOF 2
ENDMDL
MODEL       63
REMARK 921   NORMALIZED FREE ENERGY PREDICTED BY IDOCK:   -3.22 KCAL/MOL
REMARK 922        TOTAL FREE ENERGY PREDICTED BY IDOCK:   -3.85 KCAL/MOL
REMARK 923 INTER-LIGAND FREE ENERGY PREDICTED BY IDOCK:   -3.52 KCAL/MOL
REMARK 924 INTRA-LIGAND FREE ENERGY PREDICTED BY IDOCK:   -0.33 KCAL/MOL
REMARK 927      BINDING AFFINITY PREDICTED BY RF-SCORE:    0.00 PKD
ROOT
ATOM      1  N   ASN A   1      -9.297  13.915  67.155  1.00  0.00    -0.233 NA 
ATOM      2  H1  ASN A   1      -8.360  13.941  66.751  1.00  0.00     0.000 HD 
ATOM      3  H2  ASN A   1      -9.521  12.996  67.534  1.00  0.00     0.000 HD 
ATOM      4  CA  ASN A   1     -10.316  14.368  66.150  1.00  0.00    -0.298 C  
ATOM      5  OXT ASN A   1     -10.582  16.453  64.895  1.00  0.00    -0.677 OA 
ATOM      6  C   ASN A   1      -9.934  15.779  65.679  1.00  0.00    -0.345 C  
ATOM      7  O   ASN A   1      -8.744  16.175  66.199  1.00  0.00    -0.324 OA 
ENDROOT
BRANCH   4   8
ATOM      8  CB  ASN A   1     -11.716  14.330  66.753  1.00  0.00    -0.424 C  
BRANCH   8   9
ATOM      9  CG  ASN A   1     -11.826  14.388  68.264  1.00  0.00    -0.326 C  
ATOM     10  ND2 ASN A   1     -12.069  15.591  68.854  1.00  0.00    -0.595 N  
ATOM     11  OD1 ASN A   1     -11.819  13.366  68.944  1.00  0.00    -0.302 OA 
ATOM     12 1HD2 ASN A   1     -12.143  15.629  69.870  1.00  0.00     0.000 HD 
ATOM     13 2HD2 ASN A   1     -12.175  16.435  68.291  1.00  0.00     0.000 HD 
ENDBRANCH   8   9
ENDBRANCH   4   8
TORSDOF 2
ENDMDL
MODEL       64
REMARK 921   NORMALIZED FREE ENERGY PREDICTED BY IDOCK:   -3.20 KCAL/MOL
REMARK 922        TOTAL FREE ENERGY PREDICTED BY IDOCK:   -3.83 KCAL/MOL
REMARK 923 INTER-LIGAND FREE ENERGY PREDICTED BY IDOCK:   -3.62 KCAL/MOL
REMARK 924 INTRA-LIGAND FREE ENERGY PREDICTED BY IDOCK:   -0.22 KCAL/MOL
REMARK 927      BINDING AFFINITY PREDICTED BY RF-SCORE:    0.00 PKD
ROOT
ATOM      1  N   ASN A   1     -11.032  12.301  69.511  1.00  0.00    -0.462 NA 
ATOM      2  H1  ASN A   1     -11.169  11.290  69.482  1.00  0.00     0.000 HD 
ATOM      3  H2  ASN A   1     -11.116  12.668  70.458  1.00  0.00     0.000 HD 
ATOM      4  CA  ASN A   1     -11.972  12.987  68.561  1.00  0.00    -0.261 C  
ATOM      5  OXT ASN A   1     -12.306  12.793  66.144  1.00  0.00    -0.542 OA 
ATOM      6  C   ASN A   1     -11.736  12.417  67.155  1.00  0.00    -0.345 C  
ATOM      7  O   ASN A   1     -10.846  11.391  67.173  1.00  0.00    -0.238 OA 
ENDROOT
BRANCH   4   8
ATOM      8  CB  ASN A   1     -11.767  14.497  68.604  1.00  0.00    -0.364 C  
BRANCH   8   9
ATOM      9  CG  ASN A   1     -11.932  15.186  69.944  1.00  0.00    -0.337 C  
ATOM     10  ND2 ASN A   1     -13.189  15.469  70.380  1.00  0.00    -0.757 N  
ATOM     11  OD1 ASN A   1     -10.971  15.381  70.684  1.00  0.00    -0.313 OA 
ATOM     12 1HD2 ASN A   1     -13.300  15.933  71.282  1.00  0.00     0.000 HD 
ATOM     13 2HD2 ASN A   1     -14.003  15.224  69.818  1.00  0.00     0.000 HD 
ENDBRANCH   8   9
ENDBRANCH   4   8
TORSDOF 2
ENDMDL
MODEL       65
REMARK 921   NORMALIZED FREE ENERGY PREDICTED BY IDOCK:   -3.20 KCAL/MOL
REMARK 922        TOTAL FREE ENERGY PREDICTED BY IDOCK:   -3.83 KCAL/MOL
REMARK 923 INTER-LIGAND FREE ENERGY PREDICTED BY IDOCK:   -3.49 KCAL/MOL
REMARK 924 INTRA-LIGAND FREE ENERGY PREDICTED BY IDOCK:   -0.34 KCAL/MOL
REMARK 927      BINDING AFFINITY PREDICTED BY RF-SCORE:    0.00 PKD
ROOT
ATOM      1  N   ASN A   1     -12.198   6.840  72.124  1.00  0.00    -0.483 NA 
ATOM      2  H1  ASN A   1     -13.036   6.466  72.570  1.00  0.00     0.000 HD 
ATOM      3  H2  ASN A   1     -11.376   6.271  72.326  1.00  0.00     0.000 HD 
ATOM      4  CA  ASN A   1     -11.991   8.276  72.512  1.00  0.00    -0.356 C  
ATOM      5  OXT ASN A   1     -13.386  10.270  72.256  1.00  0.00    -0.407 OA 
ATOM      6  C   ASN A   1     -13.247   9.066  72.120  1.00  0.00    -0.446 C  
ATOM      7  O   ASN A   1     -14.225   8.250  71.648  1.00  0.00    -0.415 OA 
ENDROOT
BRANCH   4   8
ATOM      8  CB  ASN A   1     -10.738   8.834  71.846  1.00  0.00    -0.429 C  
BRANCH   8   9
ATOM      9  CG  ASN A   1     -10.817   9.154  70.367  1.00  0.00    -0.242 C  
ATOM     10  ND2 ASN A   1     -11.147   8.157  69.502  1.00  0.00    -0.439 N  
ATOM     11  OD1 ASN A   1     -10.709  10.306  69.956  1.00  0.00    -0.272 OA 
ATOM     12 1HD2 ASN A   1     -11.201   8.372  68.506  1.00  0.00     0.000 HD 
ATOM     13 2HD2 ASN A   1     -11.337   7.214  69.841  1.00  0.00     0.000 HD 
ENDBRANCH   8   9
ENDBRANCH   4   8
TORSDOF 2
ENDMDL
MODEL       66
REMARK 921   NORMALIZED FREE ENERGY PREDICTED BY IDOCK:   -3.18 KCAL/MOL
REMARK 922        TOTAL FREE ENERGY PREDICTED BY IDOCK:   -3.81 KCAL/MOL
REMARK 923 INTER-LIGAND FREE ENERGY PREDICTED BY IDOCK:   -3.36 KCAL/MOL
REMARK 924 INTRA-LIGAND FREE ENERGY PREDICTED BY IDOCK:   -0.45 KCAL/MOL
REMARK 927      BINDING AFFINITY PREDICTED BY RF-SCORE:    0.00 PKD
ROOT
ATOM      1  N   ASN A   1     -11.402   8.986  69.700  1.00  0.00    -0.438 NA 
ATOM      2  H1  ASN A   1     -10.652   9.204  69.044  1.00  0.00     0.000 HD 
ATOM      3  H2  ASN A   1     -12.288   9.401  69.413  1.00  0.00     0.000 HD 
ATOM      4  CA  ASN A   1     -11.019   9.395  71.093  1.00  0.00    -0.360 C  
ATOM      5  OXT ASN A   1      -9.153   8.761  72.544  1.00  0.00    -0.367 OA 
ATOM      6  C   ASN A   1      -9.711   8.681  71.462  1.00  0.00    -0.263 C  
ATOM      7  O   ASN A   1      -9.208   7.982  70.411  1.00  0.00    -0.153 OA 
ENDROOT
BRANCH   4   8
ATOM      8  CB  ASN A   1     -12.141   9.069  72.073  1.00  0.00    -0.440 C  
BRANCH   8   9
ATOM      9  CG  ASN A   1     -13.130   7.995  71.669  1.00  0.00    -0.329 C  
ATOM     10  ND2 ASN A   1     -14.351   8.376  71.203  1.00  0.00    -0.653 N  
ATOM     11  OD1 ASN A   1     -12.810   6.810  71.642  1.00  0.00    -0.358 OA 
ATOM     12 1HD2 ASN A   1     -15.017   7.653  70.931  1.00  0.00     0.000 HD 
ATOM     13 2HD2 ASN A   1     -14.595   9.363  71.127  1.00  0.00     0.000 HD 
ENDBRANCH   8   9
ENDBRANCH   4   8
TORSDOF 2
ENDMDL
MODEL       67
REMARK 921   NORMALIZED FREE ENERGY PREDICTED BY IDOCK:   -3.17 KCAL/MOL
REMARK 922        TOTAL FREE ENERGY PREDICTED BY IDOCK:   -3.80 KCAL/MOL
REMARK 923 INTER-LIGAND FREE ENERGY PREDICTED BY IDOCK:   -3.61 KCAL/MOL
REMARK 924 INTRA-LIGAND FREE ENERGY PREDICTED BY IDOCK:   -0.19 KCAL/MOL
REMARK 927      BINDING AFFINITY PREDICTED BY RF-SCORE:    0.00 PKD
ROOT
ATOM      1  N   ASN A   1     -11.517   9.125  70.288  1.00  0.00    -0.419 NA 
ATOM      2  H1  ASN A   1     -11.274   8.641  71.153  1.00  0.00     0.000 HD 
ATOM      3  H2  ASN A   1     -10.803   9.000  69.571  1.00  0.00     0.000 HD 
ATOM      4  CA  ASN A   1     -11.790  10.577  70.556  1.00  0.00    -0.347 C  
ATOM      5  OXT ASN A   1     -13.405  11.711  72.005  1.00  0.00    -0.481 OA 
ATOM      6  C   ASN A   1     -12.913  10.671  71.600  1.00  0.00    -0.477 C  
ATOM      7  O   ASN A   1     -13.263   9.445  72.070  1.00  0.00    -0.384 OA 
ENDROOT
BRANCH   4   8
ATOM      8  CB  ASN A   1     -12.154  11.300  69.264  1.00  0.00    -0.372 C  
BRANCH   8   9
ATOM      9  CG  ASN A   1     -11.798  12.770  69.163  1.00  0.00    -0.301 C  
ATOM     10  ND2 ASN A   1     -11.472  13.441  70.301  1.00  0.00    -0.509 N  
ATOM     11  OD1 ASN A   1     -11.683  13.326  68.074  1.00  0.00    -0.318 OA 
ATOM     12 1HD2 ASN A   1     -11.232  14.430  70.233  1.00  0.00     0.000 HD 
ATOM     13 2HD2 ASN A   1     -11.467  12.965  71.203  1.00  0.00     0.000 HD 
ENDBRANCH   8   9
ENDBRANCH   4   8
TORSDOF 2
ENDMDL
MODEL       68
REMARK 921   NORMALIZED FREE ENERGY PREDICTED BY IDOCK:   -3.16 KCAL/MOL
REMARK 922        TOTAL FREE ENERGY PREDICTED BY IDOCK:   -3.78 KCAL/MOL
REMARK 923 INTER-LIGAND FREE ENERGY PREDICTED BY IDOCK:   -3.52 KCAL/MOL
REMARK 924 INTRA-LIGAND FREE ENERGY PREDICTED BY IDOCK:   -0.27 KCAL/MOL
REMARK 927      BINDING AFFINITY PREDICTED BY RF-SCORE:    0.00 PKD
ROOT
ATOM      1  N   ASN A   1     -13.182   8.782  73.016  1.00  0.00    -0.854 NA 
ATOM      2  H1  ASN A   1     -13.913   9.172  72.422  1.00  0.00     0.000 HD 
ATOM      3  H2  ASN A   1     -12.854   9.457  73.706  1.00  0.00     0.000 HD 
ATOM      4  CA  ASN A   1     -12.054   8.246  72.181  1.00  0.00    -0.367 C  
ATOM      5  OXT ASN A   1     -11.966   6.539  70.429  1.00  0.00    -0.397 OA 
ATOM      6  C   ASN A   1     -12.626   7.198  71.216  1.00  0.00    -0.380 C  
ATOM      7  O   ASN A   1     -13.980   7.128  71.297  1.00  0.00    -0.343 OA 
ENDROOT
BRANCH   4   8
ATOM      8  CB  ASN A   1     -10.961   7.663  73.069  1.00  0.00    -0.457 C  
BRANCH   8   9
ATOM      9  CG  ASN A   1      -9.537   7.722  72.553  1.00  0.00    -0.192 C  
ATOM     10  ND2 ASN A   1      -9.081   6.699  71.781  1.00  0.00    -0.145 N  
ATOM     11  OD1 ASN A   1      -8.839   8.719  72.718  1.00  0.00    -0.382 OA 
ATOM     12 1HD2 ASN A   1      -8.123   6.739  71.434  1.00  0.00     0.000 HD 
ATOM     13 2HD2 ASN A   1      -9.684   5.909  71.554  1.00  0.00     0.000 HD 
ENDBRANCH   8   9
ENDBRANCH   4   8
TORSDOF 2
ENDMDL
MODEL       69
REMARK 921   NORMALIZED FREE ENERGY PREDICTED BY IDOCK:   -3.15 KCAL/MOL
REMARK 922        TOTAL FREE ENERGY PREDICTED BY IDOCK:   -3.78 KCAL/MOL
REMARK 923 INTER-LIGAND FREE ENERGY PREDICTED BY IDOCK:   -3.46 KCAL/MOL
REMARK 924 INTRA-LIGAND FREE ENERGY PREDICTED BY IDOCK:   -0.31 KCAL/MOL
REMARK 927      BINDING AFFINITY PREDICTED BY RF-SCORE:    0.00 PKD
ROOT
ATOM      1  N   ASN A   1      -9.804  17.669  65.826  1.00  0.00    -0.549 NA 
ATOM      2  H1  ASN A   1      -9.655  18.114  64.920  1.00  0.00     0.000 HD 
ATOM      3  H2  ASN A   1      -9.151  18.014  66.529  1.00  0.00     0.000 HD 
ATOM      4  CA  ASN A   1      -9.744  16.174  65.695  1.00  0.00    -0.204 C  
ATOM      5  OXT ASN A   1     -11.038  14.583  64.358  1.00  0.00    -0.300 OA 
ATOM      6  C   ASN A   1     -10.796  15.739  64.665  1.00  0.00    -0.227 C  
ATOM      7  O   ASN A   1     -11.398  16.808  64.081  1.00  0.00    -1.194 OA 
ENDROOT
BRANCH   4   8
ATOM      8  CB  ASN A   1      -9.967  15.510  67.049  1.00  0.00    -0.240 C  
BRANCH   8   9
ATOM      9  CG  ASN A   1      -9.620  16.314  68.286  1.00  0.00    -0.218 C  
ATOM     10  ND2 ASN A   1      -8.346  16.264  68.760  1.00  0.00    -0.223 N  
ATOM     11  OD1 ASN A   1     -10.427  17.091  68.789  1.00  0.00    -0.309 OA 
ATOM     12 1HD2 ASN A   1      -8.113  16.806  69.592  1.00  0.00     0.000 HD 
ATOM     13 2HD2 ASN A   1      -7.638  15.698  68.293  1.00  0.00     0.000 HD 
ENDBRANCH   8   9
ENDBRANCH   4   8
TORSDOF 2
ENDMDL
MODEL       70
REMARK 921   NORMALIZED FREE ENERGY PREDICTED BY IDOCK:   -3.12 KCAL/MOL
REMARK 922        TOTAL FREE ENERGY PREDICTED BY IDOCK:   -3.75 KCAL/MOL
REMARK 923 INTER-LIGAND FREE ENERGY PREDICTED BY IDOCK:   -3.35 KCAL/MOL
REMARK 924 INTRA-LIGAND FREE ENERGY PREDICTED BY IDOCK:   -0.40 KCAL/MOL
REMARK 927      BINDING AFFINITY PREDICTED BY RF-SCORE:    0.00 PKD
ROOT
ATOM      1  N   ASN A   1      -9.639  15.131  65.723  1.00  0.00    -0.381 NA 
ATOM      2  H1  ASN A   1      -9.584  14.758  64.775  1.00  0.00     0.000 HD 
ATOM      3  H2  ASN A   1      -8.762  15.565  66.010  1.00  0.00     0.000 HD 
ATOM      4  CA  ASN A   1     -10.073  14.063  66.685  1.00  0.00    -0.276 C  
ATOM      5  OXT ASN A   1     -12.074  12.657  66.795  1.00  0.00    -0.504 OA 
ATOM      6  C   ASN A   1     -11.423  13.507  66.210  1.00  0.00    -0.326 C  
ATOM      7  O   ASN A   1     -11.791  14.039  65.015  1.00  0.00    -0.344 OA 
ENDROOT
BRANCH   4   8
ATOM      8  CB  ASN A   1     -10.154  14.620  68.102  1.00  0.00    -0.224 C  
BRANCH   8   9
ATOM      9  CG  ASN A   1     -11.122  15.761  68.348  1.00  0.00    -0.341 C  
ATOM     10  ND2 ASN A   1     -12.195  15.541  69.156  1.00  0.00    -0.598 N  
ATOM     11  OD1 ASN A   1     -10.891  16.894  67.935  1.00  0.00    -0.354 OA 
ATOM     12 1HD2 ASN A   1     -12.846  16.309  69.322  1.00  0.00     0.000 HD 
ATOM     13 2HD2 ASN A   1     -12.346  14.629  69.586  1.00  0.00     0.000 HD 
ENDBRANCH   8   9
ENDBRANCH   4   8
TORSDOF 2
ENDMDL
MODEL       71
REMARK 921   NORMALIZED FREE ENERGY PREDICTED BY IDOCK:   -3.11 KCAL/MOL
REMARK 922        TOTAL FREE ENERGY PREDICTED BY IDOCK:   -3.74 KCAL/MOL
REMARK 923 INTER-LIGAND FREE ENERGY PREDICTED BY IDOCK:   -3.48 KCAL/MOL
REMARK 924 INTRA-LIGAND FREE ENERGY PREDICTED BY IDOCK:   -0.26 KCAL/MOL
REMARK 927      BINDING AFFINITY PREDICTED BY RF-SCORE:    0.00 PKD
ROOT
ATOM      1  N   ASN A   1      -8.148  17.917  65.818  1.00  0.00    -0.526 NA 
ATOM      2  H1  ASN A   1      -8.587  17.009  65.666  1.00  0.00     0.000 HD 
ATOM      3  H2  ASN A   1      -7.145  17.831  65.977  1.00  0.00     0.000 HD 
ATOM      4  CA  ASN A   1      -8.830  18.650  66.938  1.00  0.00    -0.287 C  
ATOM      5  OXT ASN A   1     -11.145  19.371  67.269  1.00  0.00    -0.458 OA 
ATOM      6  C   ASN A   1     -10.319  18.785  66.589  1.00  0.00    -0.420 C  
ATOM      7  O   ASN A   1     -10.628  18.120  65.446  1.00  0.00    -0.636 OA 
ENDROOT
BRANCH   4   8
ATOM      8  CB  ASN A   1      -8.174  20.007  67.166  1.00  0.00    -0.365 C  
BRANCH   8   9
ATOM      9  CG  ASN A   1      -6.728  20.016  67.623  1.00  0.00    -0.241 C  
ATOM     10  ND2 ASN A   1      -6.132  21.213  67.873  1.00  0.00    -0.345 N  
ATOM     11  OD1 ASN A   1      -6.135  18.973  67.883  1.00  0.00    -0.203 OA 
ATOM     12 1HD2 ASN A   1      -5.159  21.218  68.181  1.00  0.00     0.000 HD 
ATOM     13 2HD2 ASN A   1      -6.645  22.086  67.756  1.00  0.00     0.000 HD 
ENDBRANCH   8   9
ENDBRANCH   4   8
TORSDOF 2
ENDMDL
MODEL       72
REMARK 921   NORMALIZED FREE ENERGY PREDICTED BY IDOCK:   -3.11 KCAL/MOL
REMARK 922        TOTAL FREE ENERGY PREDICTED BY IDOCK:   -3.73 KCAL/MOL
REMARK 923 INTER-LIGAND FREE ENERGY PREDICTED BY IDOCK:   -3.37 KCAL/MOL
REMARK 924 INTRA-LIGAND FREE ENERGY PREDICTED BY IDOCK:   -0.36 KCAL/MOL
REMARK 927      BINDING AFFINITY PREDICTED BY RF-SCORE:    0.00 PKD
ROOT
ATOM      1  N   ASN A   1     -10.387  17.077  69.089  1.00  0.00    -0.320 NA 
ATOM      2  H1  ASN A   1     -10.622  16.084  69.102  1.00  0.00     0.000 HD 
ATOM      3  H2  ASN A   1     -10.800  17.574  69.877  1.00  0.00     0.000 HD 
ATOM      4  CA  ASN A   1     -10.773  17.693  67.775  1.00  0.00    -0.332 C  
ATOM      5  OXT ASN A   1     -10.126  17.197  65.467  1.00  0.00    -0.576 OA 
ATOM      6  C   ASN A   1     -10.061  16.922  66.654  1.00  0.00    -0.304 C  
ATOM      7  O   ASN A   1      -9.386  15.847  67.137  1.00  0.00    -0.207 OA 
ENDROOT
BRANCH   4   8
ATOM      8  CB  ASN A   1     -10.421  19.176  67.756  1.00  0.00    -0.512 C  
BRANCH   8   9
ATOM      9  CG  ASN A   1      -8.951  19.545  67.760  1.00  0.00    -0.318 C  
ATOM     10  ND2 ASN A   1      -8.416  20.103  66.640  1.00  0.00    -0.439 N  
ATOM     11  OD1 ASN A   1      -8.275  19.461  68.782  1.00  0.00    -0.360 OA 
ATOM     12 1HD2 ASN A   1      -7.427  20.351  66.643  1.00  0.00     0.000 HD 
ATOM     13 2HD2 ASN A   1      -8.992  20.269  65.816  1.00  0.00     0.000 HD 
ENDBRANCH   8   9
ENDBRANCH   4   8
TORSDOF 2
ENDMDL
MODEL       73
REMARK 921   NORMALIZED FREE ENERGY PREDICTED BY IDOCK:   -3.10 KCAL/MOL
REMARK 922        TOTAL FREE ENERGY PREDICTED BY IDOCK:   -3.72 KCAL/MOL
REMARK 923 INTER-LIGAND FREE ENERGY PREDICTED BY IDOCK:   -3.60 KCAL/MOL
REMARK 924 INTRA-LIGAND FREE ENERGY PREDICTED BY IDOCK:   -0.12 KCAL/MOL
REMARK 927      BINDING AFFINITY PREDICTED BY RF-SCORE:    0.00 PKD
ROOT
ATOM      1  N   ASN A   1      -9.907  10.810  66.189  1.00  0.00    -0.212 NA 
ATOM      2  H1  ASN A   1     -10.001   9.826  65.936  1.00  0.00     0.000 HD 
ATOM      3  H2  ASN A   1      -9.837  10.937  67.198  1.00  0.00     0.000 HD 
ATOM      4  CA  ASN A   1     -11.030  11.615  65.601  1.00  0.00    -0.266 C  
ATOM      5  OXT ASN A   1     -11.780  11.962  63.297  1.00  0.00    -0.400 OA 
ATOM      6  C   ASN A   1     -11.023  11.411  64.079  1.00  0.00    -0.355 C  
ATOM      7  O   ASN A   1     -10.099  10.490  63.701  1.00  0.00    -0.301 OA 
ENDROOT
BRANCH   4   8
ATOM      8  CB  ASN A   1     -10.888  13.085  65.978  1.00  0.00    -0.290 C  
BRANCH   8   9
ATOM      9  CG  ASN A   1     -12.151  13.833  66.356  1.00  0.00    -0.444 C  
ATOM     10  ND2 ASN A   1     -12.233  14.387  67.597  1.00  0.00    -0.623 N  
ATOM     11  OD1 ASN A   1     -13.038  14.047  65.534  1.00  0.00    -0.713 OA 
ATOM     12 1HD2 ASN A   1     -13.083  14.890  67.852  1.00  0.00     0.000 HD 
ATOM     13 2HD2 ASN A   1     -11.462  14.301  68.258  1.00  0.00     0.000 HD 
ENDBRANCH   8   9
ENDBRANCH   4   8
TORSDOF 2
ENDMDL
MODEL       74
REMARK 921   NORMALIZED FREE ENERGY PREDICTED BY IDOCK:   -3.10 KCAL/MOL
REMARK 922        TOTAL FREE ENERGY PREDICTED BY IDOCK:   -3.72 KCAL/MOL
REMARK 923 INTER-LIGAND FREE ENERGY PREDICTED BY IDOCK:   -3.45 KCAL/MOL
REMARK 924 INTRA-LIGAND FREE ENERGY PREDICTED BY IDOCK:   -0.27 KCAL/MOL
REMARK 927      BINDING AFFINITY PREDICTED BY RF-SCORE:    0.00 PKD
ROOT
ATOM      1  N   ASN A   1     -10.642  13.548  68.667  1.00  0.00    -0.248 NA 
ATOM      2  H1  ASN A   1     -11.112  12.754  69.102  1.00  0.00     0.000 HD 
ATOM      3  H2  ASN A   1     -10.166  14.130  69.355  1.00  0.00     0.000 HD 
ATOM      4  CA  ASN A   1     -11.611  14.343  67.838  1.00  0.00    -0.345 C  
ATOM      5  OXT ASN A   1     -13.029  13.746  65.934  1.00  0.00    -0.407 OA 
ATOM      6  C   ASN A   1     -12.234  13.404  66.795  1.00  0.00    -0.312 C  
ATOM      7  O   ASN A   1     -11.836  12.118  66.976  1.00  0.00    -0.547 OA 
ENDROOT
BRANCH   4   8
ATOM      8  CB  ASN A   1     -10.909  15.530  67.188  1.00  0.00    -0.316 C  
BRANCH   8   9
ATOM      9  CG  ASN A   1     -10.104  15.262  65.932  1.00  0.00    -0.334 C  
ATOM     10  ND2 ASN A   1      -9.057  14.396  66.003  1.00  0.00    -0.495 N  
ATOM     11  OD1 ASN A   1     -10.449  15.714  64.844  1.00  0.00    -0.444 OA 
ATOM     12 1HD2 ASN A   1      -8.515  14.215  65.157  1.00  0.00     0.000 HD 
ATOM     13 2HD2 ASN A   1      -8.819  13.936  66.881  1.00  0.00     0.000 HD 
ENDBRANCH   8   9
ENDBRANCH   4   8
TORSDOF 2
ENDMDL
MODEL       75
REMARK 921   NORMALIZED FREE ENERGY PREDICTED BY IDOCK:   -3.08 KCAL/MOL
REMARK 922        TOTAL FREE ENERGY PREDICTED BY IDOCK:   -3.69 KCAL/MOL
REMARK 923 INTER-LIGAND FREE ENERGY PREDICTED BY IDOCK:   -3.45 KCAL/MOL
REMARK 924 INTRA-LIGAND FREE ENERGY PREDICTED BY IDOCK:   -0.25 KCAL/MOL
REMARK 927      BINDING AFFINITY PREDICTED BY RF-SCORE:    0.00 PKD
ROOT
ATOM      1  N   ASN A   1     -10.735  14.586  65.514  1.00  0.00    -0.320 NA 
ATOM      2  H1  ASN A   1     -11.724  14.431  65.321  1.00  0.00     0.000 HD 
ATOM      3  H2  ASN A   1     -10.367  13.906  66.178  1.00  0.00     0.000 HD 
ATOM      4  CA  ASN A   1     -10.504  15.997  65.976  1.00  0.00    -0.345 C  
ATOM      5  OXT ASN A   1     -10.957  18.167  64.938  1.00  0.00    -0.718 OA 
ATOM      6  C   ASN A   1     -11.033  16.950  64.894  1.00  0.00    -0.001 C  
ATOM      7  O   ASN A   1     -11.655  16.275  63.893  1.00  0.00    -0.987 OA 
ENDROOT
BRANCH   4   8
ATOM      8  CB  ASN A   1      -9.025  16.230  66.265  1.00  0.00    -0.366 C  
BRANCH   8   9
ATOM      9  CG  ASN A   1      -8.354  15.303  67.259  1.00  0.00    -0.200 C  
ATOM     10  ND2 ASN A   1      -8.128  14.011  66.895  1.00  0.00    -0.387 N  
ATOM     11  OD1 ASN A   1      -7.910  15.723  68.324  1.00  0.00    -0.126 OA 
ATOM     12 1HD2 ASN A   1      -7.676  13.388  67.565  1.00  0.00     0.000 HD 
ATOM     13 2HD2 ASN A   1      -8.404  13.674  65.974  1.00  0.00     0.000 HD 
ENDBRANCH   8   9
ENDBRANCH   4   8
TORSDOF 2
ENDMDL
MODEL       76
REMARK 921   NORMALIZED FREE ENERGY PREDICTED BY IDOCK:   -3.06 KCAL/MOL
REMARK 922        TOTAL FREE ENERGY PREDICTED BY IDOCK:   -3.67 KCAL/MOL
REMARK 923 INTER-LIGAND FREE ENERGY PREDICTED BY IDOCK:   -3.35 KCAL/MOL
REMARK 924 INTRA-LIGAND FREE ENERGY PREDICTED BY IDOCK:   -0.33 KCAL/MOL
REMARK 927      BINDING AFFINITY PREDICTED BY RF-SCORE:    0.00 PKD
ROOT
ATOM      1  N   ASN A   1     -11.138  12.284  69.607  1.00  0.00    -0.474 NA 
ATOM      2  H1  ASN A   1     -11.719  11.479  69.841  1.00  0.00     0.000 HD 
ATOM      3  H2  ASN A   1     -11.024  12.912  70.402  1.00  0.00     0.000 HD 
ATOM      4  CA  ASN A   1     -11.687  12.999  68.406  1.00  0.00    -0.351 C  
ATOM      5  OXT ASN A   1     -12.131  12.267  66.112  1.00  0.00    -0.625 OA 
ATOM      6  C   ASN A   1     -11.769  11.996  67.246  1.00  0.00    -0.269 C  
ATOM      7  O   ASN A   1     -11.441  10.740  67.645  1.00  0.00    -0.477 OA 
ENDROOT
BRANCH   4   8
ATOM      8  CB  ASN A   1     -10.819  14.202  68.056  1.00  0.00    -0.256 C  
BRANCH   8   9
ATOM      9  CG  ASN A   1      -9.457  13.927  67.450  1.00  0.00    -0.226 C  
ATOM     10  ND2 ASN A   1      -9.250  14.245  66.143  1.00  0.00    -0.510 N  
ATOM     11  OD1 ASN A   1      -8.517  13.541  68.139  1.00  0.00    -0.157 OA 
ATOM     12 1HD2 ASN A   1      -8.333  14.061  65.735  1.00  0.00     0.000 HD 
ATOM     13 2HD2 ASN A   1      -9.995  14.659  65.583  1.00  0.00     0.000 HD 
ENDBRANCH   8   9
ENDBRANCH   4   8
TORSDOF 2
ENDMDL
MODEL       77
REMARK 921   NORMALIZED FREE ENERGY PREDICTED BY IDOCK:   -3.05 KCAL/MOL
REMARK 922        TOTAL FREE ENERGY PREDICTED BY IDOCK:   -3.67 KCAL/MOL
REMARK 923 INTER-LIGAND FREE ENERGY PREDICTED BY IDOCK:   -3.29 KCAL/MOL
REMARK 924 INTRA-LIGAND FREE ENERGY PREDICTED BY IDOCK:   -0.37 KCAL/MOL
REMARK 927      BINDING AFFINITY PREDICTED BY RF-SCORE:    0.00 PKD
ROOT
ATOM      1  N   ASN A   1     -13.261   8.275  71.230  1.00  0.00    -0.517 NA 
ATOM      2  H1  ASN A   1     -13.535   9.217  71.507  1.00  0.00     0.000 HD 
ATOM      3  H2  ASN A   1     -14.065   7.654  71.150  1.00  0.00     0.000 HD 
ATOM      4  CA  ASN A   1     -12.226   7.729  72.172  1.00  0.00    -0.285 C  
ATOM      5  OXT ASN A   1     -10.000   8.519  72.815  1.00  0.00    -0.258 OA 
ATOM      6  C   ASN A   1     -11.031   8.693  72.185  1.00  0.00    -0.364 C  
ATOM      7  O   ASN A   1     -11.278   9.807  71.449  1.00  0.00    -0.366 OA 
ENDROOT
BRANCH   4   8
ATOM      8  CB  ASN A   1     -11.816   6.320  71.758  1.00  0.00    -0.342 C  
BRANCH   8   9
ATOM      9  CG  ASN A   1     -11.143   6.158  70.410  1.00  0.00    -0.352 C  
ATOM     10  ND2 ASN A   1     -11.765   6.657  69.307  1.00  0.00    -0.628 N  
ATOM     11  OD1 ASN A   1     -10.008   5.698  70.314  1.00  0.00    -0.181 OA 
ATOM     12 1HD2 ASN A   1     -11.312   6.547  68.400  1.00  0.00     0.000 HD 
ATOM     13 2HD2 ASN A   1     -12.665   7.130  69.386  1.00  0.00     0.000 HD 
ENDBRANCH   8   9
ENDBRANCH   4   8
TORSDOF 2
ENDMDL
MODEL       78
REMARK 921   NORMALIZED FREE ENERGY PREDICTED BY IDOCK:   -3.04 KCAL/MOL
REMARK 922        TOTAL FREE ENERGY PREDICTED BY IDOCK:   -3.66 KCAL/MOL
REMARK 923 INTER-LIGAND FREE ENERGY PREDICTED BY IDOCK:   -3.35 KCAL/MOL
REMARK 924 INTRA-LIGAND FREE ENERGY PREDICTED BY IDOCK:   -0.31 KCAL/MOL
REMARK 927      BINDING AFFINITY PREDICTED BY RF-SCORE:    0.00 PKD
ROOT
ATOM      1  N   ASN A   1      -7.900  20.568  66.499  1.00  0.00    -0.509 NA 
ATOM      2  H1  ASN A   1      -6.895  20.743  66.525  1.00  0.00     0.000 HD 
ATOM      3  H2  ASN A   1      -8.427  21.418  66.299  1.00  0.00     0.000 HD 
ATOM      4  CA  ASN A   1      -8.355  19.917  67.773  1.00  0.00    -0.303 C  
ATOM      5  OXT ASN A   1      -7.711  17.830  68.879  1.00  0.00    -0.268 OA 
ATOM      6  C   ASN A   1      -7.553  18.621  67.963  1.00  0.00    -0.260 C  
ATOM      7  O   ASN A   1      -6.594  18.481  67.012  1.00  0.00    -0.185 OA 
ENDROOT
BRANCH   4   8
ATOM      8  CB  ASN A   1      -9.856  19.656  67.734  1.00  0.00    -0.498 C  
BRANCH   8   9
ATOM      9  CG  ASN A   1     -10.343  18.509  66.871  1.00  0.00    -0.397 C  
ATOM     10  ND2 ASN A   1     -10.663  17.331  67.473  1.00  0.00    -0.321 N  
ATOM     11  OD1 ASN A   1     -10.564  18.661  65.673  1.00  0.00    -0.610 OA 
ATOM     12 1HD2 ASN A   1     -10.990  16.559  66.892  1.00  0.00     0.000 HD 
ATOM     13 2HD2 ASN A   1     -10.577  17.222  68.483  1.00  0.00     0.000 HD 
ENDBRANCH   8   9
ENDBRANCH   4   8
TORSDOF 2
ENDMDL
MODEL       79
REMARK 921   NORMALIZED FREE ENERGY PREDICTED BY IDOCK:   -3.04 KCAL/MOL
REMARK 922        TOTAL FREE ENERGY PREDICTED BY IDOCK:   -3.66 KCAL/MOL
REMARK 923 INTER-LIGAND FREE ENERGY PREDICTED BY IDOCK:   -3.34 KCAL/MOL
REMARK 924 INTRA-LIGAND FREE ENERGY PREDICTED BY IDOCK:   -0.32 KCAL/MOL
REMARK 927      BINDING AFFINITY PREDICTED BY RF-SCORE:    0.00 PKD
ROOT
ATOM      1  N   ASN A   1     -10.206  14.376  65.092  1.00  0.00    -0.441 NA 
ATOM      2  H1  ASN A   1     -10.644  13.461  64.985  1.00  0.00     0.000 HD 
ATOM      3  H2  ASN A   1      -9.384  14.475  64.497  1.00  0.00     0.000 HD 
ATOM      4  CA  ASN A   1      -9.885  14.640  66.535  1.00  0.00    -0.275 C  
ATOM      5  OXT ASN A   1     -11.281  14.732  68.544  1.00  0.00    -0.253 OA 
ATOM      6  C   ASN A   1     -11.185  14.529  67.345  1.00  0.00    -0.327 C  
ATOM      7  O   ASN A   1     -12.223  14.117  66.572  1.00  0.00    -0.445 OA 
ENDROOT
BRANCH   4   8
ATOM      8  CB  ASN A   1      -9.231  16.008  66.696  1.00  0.00    -0.276 C  
BRANCH   8   9
ATOM      9  CG  ASN A   1     -10.123  17.227  66.568  1.00  0.00    -0.309 C  
ATOM     10  ND2 ASN A   1     -10.522  17.864  67.703  1.00  0.00    -0.386 N  
ATOM     11  OD1 ASN A   1     -10.388  17.713  65.472  1.00  0.00    -0.627 OA 
ATOM     12 1HD2 ASN A   1     -11.122  18.684  67.617  1.00  0.00     0.000 HD 
ATOM     13 2HD2 ASN A   1     -10.228  17.528  68.619  1.00  0.00     0.000 HD 
ENDBRANCH   8   9
ENDBRANCH   4   8
TORSDOF 2
ENDMDL
MODEL       80
REMARK 921   NORMALIZED FREE ENERGY PREDICTED BY IDOCK:   -3.03 KCAL/MOL
REMARK 922        TOTAL FREE ENERGY PREDICTED BY IDOCK:   -3.65 KCAL/MOL
REMARK 923 INTER-LIGAND FREE ENERGY PREDICTED BY IDOCK:   -3.54 KCAL/MOL
REMARK 924 INTRA-LIGAND FREE ENERGY PREDICTED BY IDOCK:   -0.11 KCAL/MOL
REMARK 927      BINDING AFFINITY PREDICTED BY RF-SCORE:    0.00 PKD
ROOT
ATOM      1  N   ASN A   1     -11.470  11.853  70.069  1.00  0.00    -0.516 NA 
ATOM      2  H1  ASN A   1     -12.150  11.103  70.191  1.00  0.00     0.000 HD 
ATOM      3  H2  ASN A   1     -11.422  12.458  70.889  1.00  0.00     0.000 HD 
ATOM      4  CA  ASN A   1     -11.762  12.632  68.818  1.00  0.00    -0.323 C  
ATOM      5  OXT ASN A   1     -11.914  11.974  66.465  1.00  0.00    -0.616 OA 
ATOM      6  C   ASN A   1     -11.756  11.656  67.633  1.00  0.00    -0.228 C  
ATOM      7  O   ASN A   1     -11.607  10.370  68.043  1.00  0.00    -0.392 OA 
ENDROOT
BRANCH   4   8
ATOM      8  CB  ASN A   1     -10.745  13.753  68.637  1.00  0.00    -0.270 C  
BRANCH   8   9
ATOM      9  CG  ASN A   1     -11.250  15.068  68.075  1.00  0.00    -0.316 C  
ATOM     10  ND2 ASN A   1     -12.089  15.821  68.836  1.00  0.00    -0.559 N  
ATOM     11  OD1 ASN A   1     -10.824  15.513  67.013  1.00  0.00    -0.320 OA 
ATOM     12 1HD2 ASN A   1     -12.428  16.706  68.458  1.00  0.00     0.000 HD 
ATOM     13 2HD2 ASN A   1     -12.374  15.509  69.764  1.00  0.00     0.000 HD 
ENDBRANCH   8   9
ENDBRANCH   4   8
TORSDOF 2
ENDMDL
MODEL       81
REMARK 921   NORMALIZED FREE ENERGY PREDICTED BY IDOCK:   -3.02 KCAL/MOL
REMARK 922        TOTAL FREE ENERGY PREDICTED BY IDOCK:   -3.63 KCAL/MOL
REMARK 923 INTER-LIGAND FREE ENERGY PREDICTED BY IDOCK:   -3.25 KCAL/MOL
REMARK 924 INTRA-LIGAND FREE ENERGY PREDICTED BY IDOCK:   -0.38 KCAL/MOL
REMARK 927      BINDING AFFINITY PREDICTED BY RF-SCORE:    0.00 PKD
ROOT
ATOM      1  N   ASN A   1      -9.134  12.973  66.100  1.00  0.00    -0.457 NA 
ATOM      2  H1  ASN A   1      -9.032  13.793  65.502  1.00  0.00     0.000 HD 
ATOM      3  H2  ASN A   1      -8.267  12.441  66.165  1.00  0.00     0.000 HD 
ATOM      4  CA  ASN A   1     -10.278  12.120  65.634  1.00  0.00    -0.256 C  
ATOM      5  OXT ASN A   1     -12.664  12.579  65.337  1.00  0.00    -0.624 OA 
ATOM      6  C   ASN A   1     -11.548  12.982  65.623  1.00  0.00    -0.354 C  
ATOM      7  O   ASN A   1     -11.275  14.280  65.919  1.00  0.00    -0.309 OA 
ENDROOT
BRANCH   4   8
ATOM      8  CB  ASN A   1     -10.431  10.895  66.528  1.00  0.00    -0.308 C  
BRANCH   8   9
ATOM      9  CG  ASN A   1     -10.719  11.134  67.997  1.00  0.00    -0.211 C  
ATOM     10  ND2 ASN A   1     -11.676  10.380  68.604  1.00  0.00    -0.518 N  
ATOM     11  OD1 ASN A   1     -10.032  11.902  68.666  1.00  0.00    -0.207 OA 
ATOM     12 1HD2 ASN A   1     -11.870  10.542  69.593  1.00  0.00     0.000 HD 
ATOM     13 2HD2 ASN A   1     -12.188   9.669  68.083  1.00  0.00     0.000 HD 
ENDBRANCH   8   9
ENDBRANCH   4   8
TORSDOF 2
ENDMDL
MODEL       82
REMARK 921   NORMALIZED FREE ENERGY PREDICTED BY IDOCK:   -3.00 KCAL/MOL
REMARK 922        TOTAL FREE ENERGY PREDICTED BY IDOCK:   -3.61 KCAL/MOL
REMARK 923 INTER-LIGAND FREE ENERGY PREDICTED BY IDOCK:   -3.30 KCAL/MOL
REMARK 924 INTRA-LIGAND FREE ENERGY PREDICTED BY IDOCK:   -0.31 KCAL/MOL
REMARK 927      BINDING AFFINITY PREDICTED BY RF-SCORE:    0.00 PKD
ROOT
ATOM      1  N   ASN A   1      -9.424   9.076  70.905  1.00  0.00    -0.244 NA 
ATOM      2  H1  ASN A   1      -8.771   8.872  70.149  1.00  0.00     0.000 HD 
ATOM      3  H2  ASN A   1      -8.952   9.475  71.716  1.00  0.00     0.000 HD 
ATOM      4  CA  ASN A   1     -10.212   7.849  71.267  1.00  0.00    -0.187 C  
ATOM      5  OXT ASN A   1     -11.695   6.400  69.968  1.00  0.00    -0.429 OA 
ATOM      6  C   ASN A   1     -10.934   7.353  70.007  1.00  0.00    -0.248 C  
ATOM      7  O   ASN A   1     -10.580   8.072  68.910  1.00  0.00    -0.210 OA 
ENDROOT
BRANCH   4   8
ATOM      8  CB  ASN A   1     -11.187   8.155  72.398  1.00  0.00    -0.452 C  
BRANCH   8   9
ATOM      9  CG  ASN A   1     -12.339   9.092  72.092  1.00  0.00    -0.372 C  
ATOM     10  ND2 ASN A   1     -13.527   8.891  72.725  1.00  0.00    -0.800 N  
ATOM     11  OD1 ASN A   1     -12.184  10.084  71.386  1.00  0.00    -0.362 OA 
ATOM     12 1HD2 ASN A   1     -14.302   9.522  72.519  1.00  0.00     0.000 HD 
ATOM     13 2HD2 ASN A   1     -13.641   8.127  73.390  1.00  0.00     0.000 HD 
ENDBRANCH   8   9
ENDBRANCH   4   8
TORSDOF 2
ENDMDL
MODEL       83
REMARK 921   NORMALIZED FREE ENERGY PREDICTED BY IDOCK:   -3.00 KCAL/MOL
REMARK 922        TOTAL FREE ENERGY PREDICTED BY IDOCK:   -3.61 KCAL/MOL
REMARK 923 INTER-LIGAND FREE ENERGY PREDICTED BY IDOCK:   -3.17 KCAL/MOL
REMARK 924 INTRA-LIGAND FREE ENERGY PREDICTED BY IDOCK:   -0.44 KCAL/MOL
REMARK 927      BINDING AFFINITY PREDICTED BY RF-SCORE:    0.00 PKD
ROOT
ATOM      1  N   ASN A   1     -10.436  12.240  67.732  1.00  0.00    -0.206 NA 
ATOM      2  H1  ASN A   1      -9.940  11.381  67.969  1.00  0.00     0.000 HD 
ATOM      3  H2  ASN A   1     -10.929  12.627  68.536  1.00  0.00     0.000 HD 
ATOM      4  CA  ASN A   1     -11.358  12.012  66.569  1.00  0.00    -0.354 C  
ATOM      5  OXT ASN A   1     -10.964  11.245  64.278  1.00  0.00    -0.354 OA 
ATOM      6  C   ASN A   1     -10.525  11.489  65.390  1.00  0.00    -0.281 C  
ATOM      7  O   ASN A   1      -9.233  11.269  65.747  1.00  0.00    -0.212 OA 
ENDROOT
BRANCH   4   8
ATOM      8  CB  ASN A   1     -12.100  13.296  66.214  1.00  0.00    -0.472 C  
BRANCH   8   9
ATOM      9  CG  ASN A   1     -11.768  14.538  67.018  1.00  0.00    -0.393 C  
ATOM     10  ND2 ASN A   1     -12.374  14.715  68.223  1.00  0.00    -0.593 N  
ATOM     11  OD1 ASN A   1     -10.885  15.313  66.659  1.00  0.00    -0.308 OA 
ATOM     12 1HD2 ASN A   1     -12.150  15.551  68.764  1.00  0.00     0.000 HD 
ATOM     13 2HD2 ASN A   1     -13.037  14.028  68.579  1.00  0.00     0.000 HD 
ENDBRANCH   8   9
ENDBRANCH   4   8
TORSDOF 2
ENDMDL
MODEL       84
REMARK 921   NORMALIZED FREE ENERGY PREDICTED BY IDOCK:   -2.95 KCAL/MOL
REMARK 922        TOTAL FREE ENERGY PREDICTED BY IDOCK:   -3.56 KCAL/MOL
REMARK 923 INTER-LIGAND FREE ENERGY PREDICTED BY IDOCK:   -3.19 KCAL/MOL
REMARK 924 INTRA-LIGAND FREE ENERGY PREDICTED BY IDOCK:   -0.37 KCAL/MOL
REMARK 927      BINDING AFFINITY PREDICTED BY RF-SCORE:    0.00 PKD
ROOT
ATOM      1  N   ASN A   1     -10.685  15.261  68.244  1.00  0.00    -0.247 NA 
ATOM      2  H1  ASN A   1     -10.744  15.540  69.223  1.00  0.00     0.000 HD 
ATOM      3  H2  ASN A   1     -10.776  14.252  68.130  1.00  0.00     0.000 HD 
ATOM      4  CA  ASN A   1      -9.419  15.780  67.624  1.00  0.00    -0.218 C  
ATOM      5  OXT ASN A   1      -8.522  18.042  67.354  1.00  0.00    -0.235 OA 
ATOM      6  C   ASN A   1      -9.394  17.307  67.788  1.00  0.00    -0.250 C  
ATOM      7  O   ASN A   1     -10.441  17.748  68.533  1.00  0.00    -0.366 OA 
ENDROOT
BRANCH   4   8
ATOM      8  CB  ASN A   1      -9.330  15.365  66.160  1.00  0.00    -0.367 C  
BRANCH   8   9
ATOM      9  CG  ASN A   1     -10.589  15.483  65.324  1.00  0.00    -0.424 C  
ATOM     10  ND2 ASN A   1     -11.503  14.476  65.377  1.00  0.00    -0.340 N  
ATOM     11  OD1 ASN A   1     -10.848  16.510  64.703  1.00  0.00    -0.741 OA 
ATOM     12 1HD2 ASN A   1     -12.350  14.556  64.814  1.00  0.00     0.000 HD 
ATOM     13 2HD2 ASN A   1     -11.345  13.660  65.966  1.00  0.00     0.000 HD 
ENDBRANCH   8   9
ENDBRANCH   4   8
TORSDOF 2
ENDMDL
MODEL       85
REMARK 921   NORMALIZED FREE ENERGY PREDICTED BY IDOCK:   -2.92 KCAL/MOL
REMARK 922        TOTAL FREE ENERGY PREDICTED BY IDOCK:   -3.52 KCAL/MOL
REMARK 923 INTER-LIGAND FREE ENERGY PREDICTED BY IDOCK:   -3.46 KCAL/MOL
REMARK 924 INTRA-LIGAND FREE ENERGY PREDICTED BY IDOCK:   -0.06 KCAL/MOL
REMARK 927      BINDING AFFINITY PREDICTED BY RF-SCORE:    0.00 PKD
ROOT
ATOM      1  N   ASN A   1     -10.573  14.798  64.271  1.00  0.00    -0.403 NA 
ATOM      2  H1  ASN A   1     -11.003  14.470  63.406  1.00  0.00     0.000 HD 
ATOM      3  H2  ASN A   1      -9.704  15.301  64.095  1.00  0.00     0.000 HD 
ATOM      4  CA  ASN A   1     -10.372  13.655  65.224  1.00  0.00    -0.348 C  
ATOM      5  OXT ASN A   1     -11.928  12.062  66.241  1.00  0.00    -0.596 OA 
ATOM      6  C   ASN A   1     -11.734  12.994  65.477  1.00  0.00    -0.368 C  
ATOM      7  O   ASN A   1     -12.706  13.536  64.698  1.00  0.00    -0.641 OA 
ENDROOT
BRANCH   4   8
ATOM      8  CB  ASN A   1      -9.729  14.144  66.517  1.00  0.00    -0.307 C  
BRANCH   8   9
ATOM      9  CG  ASN A   1      -9.052  13.110  67.395  1.00  0.00    -0.208 C  
ATOM     10  ND2 ASN A   1      -9.371  13.068  68.717  1.00  0.00    -0.407 N  
ATOM     11  OD1 ASN A   1      -8.324  12.245  66.916  1.00  0.00    -0.181 OA 
ATOM     12 1HD2 ASN A   1      -8.916  12.372  69.308  1.00  0.00     0.000 HD 
ATOM     13 2HD2 ASN A   1     -10.051  13.719  69.110  1.00  0.00     0.000 HD 
ENDBRANCH   8   9
ENDBRANCH   4   8
TORSDOF 2
ENDMDL
MODEL       86
REMARK 921   NORMALIZED FREE ENERGY PREDICTED BY IDOCK:   -2.92 KCAL/MOL
REMARK 922        TOTAL FREE ENERGY PREDICTED BY IDOCK:   -3.52 KCAL/MOL
REMARK 923 INTER-LIGAND FREE ENERGY PREDICTED BY IDOCK:   -3.43 KCAL/MOL
REMARK 924 INTRA-LIGAND FREE ENERGY PREDICTED BY IDOCK:   -0.09 KCAL/MOL
REMARK 927      BINDING AFFINITY PREDICTED BY RF-SCORE:    0.00 PKD
ROOT
ATOM      1  N   ASN A   1     -13.155  13.852  65.249  1.00  0.00    -0.770 NA 
ATOM      2  H1  ASN A   1     -13.177  14.234  64.303  1.00  0.00     0.000 HD 
ATOM      3  H2  ASN A   1     -13.601  14.476  65.920  1.00  0.00     0.000 HD 
ATOM      4  CA  ASN A   1     -11.747  13.516  65.649  1.00  0.00    -0.339 C  
ATOM      5  OXT ASN A   1     -10.069  12.022  64.679  1.00  0.00    -0.269 OA 
ATOM      6  C   ASN A   1     -11.177  12.529  64.621  1.00  0.00    -0.312 C  
ATOM      7  O   ASN A   1     -12.039  12.325  63.591  1.00  0.00    -0.469 OA 
ENDROOT
BRANCH   4   8
ATOM      8  CB  ASN A   1     -11.715  12.945  67.063  1.00  0.00    -0.447 C  
BRANCH   8   9
ATOM      9  CG  ASN A   1     -10.432  13.110  67.853  1.00  0.00    -0.240 C  
ATOM     10  ND2 ASN A   1     -10.036  12.097  68.670  1.00  0.00    -0.361 N  
ATOM     11  OD1 ASN A   1      -9.694  14.076  67.678  1.00  0.00    -0.220 OA 
ATOM     12 1HD2 ASN A   1      -9.172  12.208  69.202  1.00  0.00     0.000 HD 
ATOM     13 2HD2 ASN A   1     -10.590  11.245  68.750  1.00  0.00     0.000 HD 
ENDBRANCH   8   9
ENDBRANCH   4   8
TORSDOF 2
ENDMDL
MODEL       87
REMARK 921   NORMALIZED FREE ENERGY PREDICTED BY IDOCK:   -2.91 KCAL/MOL
REMARK 922        TOTAL FREE ENERGY PREDICTED BY IDOCK:   -3.51 KCAL/MOL
REMARK 923 INTER-LIGAND FREE ENERGY PREDICTED BY IDOCK:   -3.25 KCAL/MOL
REMARK 924 INTRA-LIGAND FREE ENERGY PREDICTED BY IDOCK:   -0.26 KCAL/MOL
REMARK 927      BINDING AFFINITY PREDICTED BY RF-SCORE:    0.00 PKD
ROOT
ATOM      1  N   ASN A   1     -11.273   8.912  71.948  1.00  0.00    -0.361 NA 
ATOM      2  H1  ASN A   1     -11.697   9.834  71.838  1.00  0.00     0.000 HD 
ATOM      3  H2  ASN A   1     -10.296   8.908  71.658  1.00  0.00     0.000 HD 
ATOM      4  CA  ASN A   1     -12.076   7.873  71.220  1.00  0.00    -0.296 C  
ATOM      5  OXT ASN A   1     -14.410   7.160  71.411  1.00  0.00    -0.388 OA 
ATOM      6  C   ASN A   1     -13.513   7.910  71.760  1.00  0.00    -0.335 C  
ATOM      7  O   ASN A   1     -13.690   8.926  72.644  1.00  0.00    -0.444 OA 
ENDROOT
BRANCH   4   8
ATOM      8  CB  ASN A   1     -11.443   6.496  71.384  1.00  0.00    -0.360 C  
BRANCH   8   9
ATOM      9  CG  ASN A   1     -11.310   5.953  72.793  1.00  0.00    -0.263 C  
ATOM     10  ND2 ASN A   1     -10.848   6.781  73.770  1.00  0.00    -0.510 N  
ATOM     11  OD1 ASN A   1     -11.719   4.833  73.087  1.00  0.00    -0.298 OA 
ATOM     12 1HD2 ASN A   1     -10.759   6.415  74.718  1.00  0.00     0.000 HD 
ATOM     13 2HD2 ASN A   1     -10.597   7.746  73.558  1.00  0.00     0.000 HD 
ENDBRANCH   8   9
ENDBRANCH   4   8
TORSDOF 2
ENDMDL
MODEL       88
REMARK 921   NORMALIZED FREE ENERGY PREDICTED BY IDOCK:   -2.91 KCAL/MOL
REMARK 922        TOTAL FREE ENERGY PREDICTED BY IDOCK:   -3.51 KCAL/MOL
REMARK 923 INTER-LIGAND FREE ENERGY PREDICTED BY IDOCK:   -3.19 KCAL/MOL
REMARK 924 INTRA-LIGAND FREE ENERGY PREDICTED BY IDOCK:   -0.32 KCAL/MOL
REMARK 927      BINDING AFFINITY PREDICTED BY RF-SCORE:    0.00 PKD
ROOT
ATOM      1  N   ASN A   1      -9.359  14.424  66.156  1.00  0.00    -0.490 NA 
ATOM      2  H1  ASN A   1      -8.579  14.998  65.835  1.00  0.00     0.000 HD 
ATOM      3  H2  ASN A   1      -9.589  13.689  65.488  1.00  0.00     0.000 HD 
ATOM      4  CA  ASN A   1     -10.550  15.283  66.473  1.00  0.00    -0.304 C  
ATOM      5  OXT ASN A   1     -10.875  17.141  68.033  1.00  0.00    -0.378 OA 
ATOM      6  C   ASN A   1     -10.130  16.319  67.526  1.00  0.00    -0.258 C  
ATOM      7  O   ASN A   1      -8.799  16.252  67.791  1.00  0.00    -0.186 OA 
ENDROOT
BRANCH   4   8
ATOM      8  CB  ASN A   1     -11.715  14.426  66.953  1.00  0.00    -0.422 C  
BRANCH   8   9
ATOM      9  CG  ASN A   1     -11.499  12.927  67.016  1.00  0.00    -0.339 C  
ATOM     10  ND2 ASN A   1     -10.810  12.412  68.071  1.00  0.00    -0.212 N  
ATOM     11  OD1 ASN A   1     -12.030  12.170  66.208  1.00  0.00    -0.605 OA 
ATOM     12 1HD2 ASN A   1     -10.665  11.403  68.114  1.00  0.00     0.000 HD 
ATOM     13 2HD2 ASN A   1     -10.447  13.022  68.803  1.00  0.00     0.000 HD 
ENDBRANCH   8   9
ENDBRANCH   4   8
TORSDOF 2
ENDMDL
MODEL       89
REMARK 921   NORMALIZED FREE ENERGY PREDICTED BY IDOCK:   -2.90 KCAL/MOL
REMARK 922        TOTAL FREE ENERGY PREDICTED BY IDOCK:   -3.50 KCAL/MOL
REMARK 923 INTER-LIGAND FREE ENERGY PREDICTED BY IDOCK:   -3.45 KCAL/MOL
REMARK 924 INTRA-LIGAND FREE ENERGY PREDICTED BY IDOCK:   -0.05 KCAL/MOL
REMARK 927      BINDING AFFINITY PREDICTED BY RF-SCORE:    0.00 PKD
ROOT
ATOM      1  N   ASN A   1     -10.372  15.397  66.400  1.00  0.00    -0.285 NA 
ATOM      2  H1  ASN A   1     -11.256  15.115  65.974  1.00  0.00     0.000 HD 
ATOM      3  H2  ASN A   1     -10.133  14.811  67.199  1.00  0.00     0.000 HD 
ATOM      4  CA  ASN A   1     -10.405  16.853  66.765  1.00  0.00    -0.298 C  
ATOM      5  OXT ASN A   1     -10.765  18.878  65.438  1.00  0.00    -0.536 OA 
ATOM      6  C   ASN A   1     -10.713  17.660  65.496  1.00  0.00    -0.037 C  
ATOM      7  O   ASN A   1     -10.981  16.850  64.439  1.00  0.00    -1.016 OA 
ENDROOT
BRANCH   4   8
ATOM      8  CB  ASN A   1      -9.085  17.274  67.400  1.00  0.00    -0.227 C  
BRANCH   8   9
ATOM      9  CG  ASN A   1      -9.099  18.501  68.290  1.00  0.00    -0.317 C  
ATOM     10  ND2 ASN A   1      -7.928  19.157  68.514  1.00  0.00    -0.339 N  
ATOM     11  OD1 ASN A   1     -10.152  18.975  68.708  1.00  0.00    -0.393 OA 
ATOM     12 1HD2 ASN A   1      -7.938  19.983  69.112  1.00  0.00     0.000 HD 
ATOM     13 2HD2 ASN A   1      -7.059  18.831  68.092  1.00  0.00     0.000 HD 
ENDBRANCH   8   9
ENDBRANCH   4   8
TORSDOF 2
ENDMDL
MODEL       90
REMARK 921   NORMALIZED FREE ENERGY PREDICTED BY IDOCK:   -2.90 KCAL/MOL
REMARK 922        TOTAL FREE ENERGY PREDICTED BY IDOCK:   -3.50 KCAL/MOL
REMARK 923 INTER-LIGAND FREE ENERGY PREDICTED BY IDOCK:   -3.11 KCAL/MOL
REMARK 924 INTRA-LIGAND FREE ENERGY PREDICTED BY IDOCK:   -0.39 KCAL/MOL
REMARK 927      BINDING AFFINITY PREDICTED BY RF-SCORE:    0.00 PKD
ROOT
ATOM      1  N   ASN A   1      -9.515  13.937  68.782  1.00  0.00    -0.385 NA 
ATOM      2  H1  ASN A   1      -8.912  13.275  68.292  1.00  0.00     0.000 HD 
ATOM      3  H2  ASN A   1      -9.236  14.055  69.755  1.00  0.00     0.000 HD 
ATOM      4  CA  ASN A   1     -10.955  13.526  68.660  1.00  0.00    -0.263 C  
ATOM      5  OXT ASN A   1     -12.409  13.163  66.725  1.00  0.00    -0.316 OA 
ATOM      6  C   ASN A   1     -11.304  13.430  67.168  1.00  0.00    -0.315 C  
ATOM      7  O   ASN A   1     -10.211  13.624  66.385  1.00  0.00    -0.279 OA 
ENDROOT
BRANCH   4   8
ATOM      8  CB  ASN A   1     -11.856  14.515  69.392  1.00  0.00    -0.367 C  
BRANCH   8   9
ATOM      9  CG  ASN A   1     -11.202  15.446  70.394  1.00  0.00    -0.323 C  
ATOM     10  ND2 ASN A   1     -11.050  15.018  71.676  1.00  0.00    -0.552 N  
ATOM     11  OD1 ASN A   1     -10.707  16.514  70.044  1.00  0.00    -0.312 OA 
ATOM     12 1HD2 ASN A   1     -10.609  15.645  72.350  1.00  0.00     0.000 HD 
ATOM     13 2HD2 ASN A   1     -11.368  14.092  71.958  1.00  0.00     0.000 HD 
ENDBRANCH   8   9
ENDBRANCH   4   8
TORSDOF 2
ENDMDL
MODEL       91
REMARK 921   NORMALIZED FREE ENERGY PREDICTED BY IDOCK:   -2.89 KCAL/MOL
REMARK 922        TOTAL FREE ENERGY PREDICTED BY IDOCK:   -3.49 KCAL/MOL
REMARK 923 INTER-LIGAND FREE ENERGY PREDICTED BY IDOCK:   -3.21 KCAL/MOL
REMARK 924 INTRA-LIGAND FREE ENERGY PREDICTED BY IDOCK:   -0.28 KCAL/MOL
REMARK 927      BINDING AFFINITY PREDICTED BY RF-SCORE:    0.00 PKD
ROOT
ATOM      1  N   ASN A   1     -10.138  17.996  66.502  1.00  0.00    -0.360 NA 
ATOM      2  H1  ASN A   1     -10.306  18.972  66.748  1.00  0.00     0.000 HD 
ATOM      3  H2  ASN A   1     -10.376  17.803  65.530  1.00  0.00     0.000 HD 
ATOM      4  CA  ASN A   1     -10.865  17.083  67.447  1.00  0.00    -0.165 C  
ATOM      5  OXT ASN A   1     -10.769  16.807  69.877  1.00  0.00    -0.292 OA 
ATOM      6  C   ASN A   1     -10.404  17.401  68.876  1.00  0.00    -0.340 C  
ATOM      7  O   ASN A   1      -9.571  18.474  68.906  1.00  0.00    -0.330 OA 
ENDROOT
BRANCH   4   8
ATOM      8  CB  ASN A   1     -10.614  15.624  67.080  1.00  0.00    -0.308 C  
BRANCH   8   9
ATOM      9  CG  ASN A   1     -11.760  14.650  67.266  1.00  0.00    -0.385 C  
ATOM     10  ND2 ASN A   1     -12.164  14.353  68.531  1.00  0.00    -0.588 N  
ATOM     11  OD1 ASN A   1     -12.399  14.226  66.307  1.00  0.00    -0.443 OA 
ATOM     12 1HD2 ASN A   1     -12.935  13.697  68.656  1.00  0.00     0.000 HD 
ATOM     13 2HD2 ASN A   1     -11.705  14.776  69.337  1.00  0.00     0.000 HD 
ENDBRANCH   8   9
ENDBRANCH   4   8
TORSDOF 2
ENDMDL
MODEL       92
REMARK 921   NORMALIZED FREE ENERGY PREDICTED BY IDOCK:   -2.88 KCAL/MOL
REMARK 922        TOTAL FREE ENERGY PREDICTED BY IDOCK:   -3.48 KCAL/MOL
REMARK 923 INTER-LIGAND FREE ENERGY PREDICTED BY IDOCK:   -3.09 KCAL/MOL
REMARK 924 INTRA-LIGAND FREE ENERGY PREDICTED BY IDOCK:   -0.39 KCAL/MOL
REMARK 927      BINDING AFFINITY PREDICTED BY RF-SCORE:    0.00 PKD
ROOT
ATOM      1  N   ASN A   1      -8.583  18.199  65.991  1.00  0.00    -0.511 NA 
ATOM      2  H1  ASN A   1      -8.541  17.844  65.035  1.00  0.00     0.000 HD 
ATOM      3  H2  ASN A   1      -9.461  17.956  66.448  1.00  0.00     0.000 HD 
ATOM      4  CA  ASN A   1      -8.333  19.680  66.014  1.00  0.00    -0.280 C  
ATOM      5  OXT ASN A   1      -6.447  21.046  65.262  1.00  0.00    -0.203 OA 
ATOM      6  C   ASN A   1      -6.969  19.948  65.362  1.00  0.00    -0.293 C  
ATOM      7  O   ASN A   1      -6.427  18.813  64.850  1.00  0.00    -0.492 OA 
ENDROOT
BRANCH   4   8
ATOM      8  CB  ASN A   1      -8.395  20.210  67.442  1.00  0.00    -0.390 C  
BRANCH   8   9
ATOM      9  CG  ASN A   1      -7.483  19.564  68.466  1.00  0.00    -0.333 C  
ATOM     10  ND2 ASN A   1      -6.484  20.310  69.011  1.00  0.00    -0.305 N  
ATOM     11  OD1 ASN A   1      -7.703  18.434  68.894  1.00  0.00    -0.284 OA 
ATOM     12 1HD2 ASN A   1      -5.870  19.875  69.700  1.00  0.00     0.000 HD 
ATOM     13 2HD2 ASN A   1      -6.351  21.283  68.736  1.00  0.00     0.000 HD 
ENDBRANCH   8   9
ENDBRANCH   4   8
TORSDOF 2
ENDMDL
MODEL       93
REMARK 921   NORMALIZED FREE ENERGY PREDICTED BY IDOCK:   -2.88 KCAL/MOL
REMARK 922        TOTAL FREE ENERGY PREDICTED BY IDOCK:   -3.48 KCAL/MOL
REMARK 923 INTER-LIGAND FREE ENERGY PREDICTED BY IDOCK:   -3.21 KCAL/MOL
REMARK 924 INTRA-LIGAND FREE ENERGY PREDICTED BY IDOCK:   -0.27 KCAL/MOL
REMARK 927      BINDING AFFINITY PREDICTED BY RF-SCORE:    0.00 PKD
ROOT
ATOM      1  N   ASN A   1     -11.605   6.689  69.255  1.00  0.00    -0.646 NA 
ATOM      2  H1  ASN A   1     -12.251   7.286  68.740  1.00  0.00     0.000 HD 
ATOM      3  H2  ASN A   1     -11.806   5.700  69.111  1.00  0.00     0.000 HD 
ATOM      4  CA  ASN A   1     -11.603   7.050  70.713  1.00  0.00    -0.338 C  
ATOM      5  OXT ASN A   1     -11.100   9.134  71.895  1.00  0.00    -0.364 OA 
ATOM      6  C   ASN A   1     -11.234   8.535  70.840  1.00  0.00    -0.266 C  
ATOM      7  O   ASN A   1     -11.128   9.131  69.624  1.00  0.00    -0.196 OA 
ENDROOT
BRANCH   4   8
ATOM      8  CB  ASN A   1     -10.637   6.157  71.484  1.00  0.00    -0.288 C  
BRANCH   8   9
ATOM      9  CG  ASN A   1     -10.985   5.830  72.922  1.00  0.00    -0.274 C  
ATOM     10  ND2 ASN A   1     -10.707   6.751  73.885  1.00  0.00    -0.500 N  
ATOM     11  OD1 ASN A   1     -11.613   4.816  73.213  1.00  0.00    -0.333 OA 
ATOM     12 1HD2 ASN A   1     -10.942   6.531  74.853  1.00  0.00     0.000 HD 
ATOM     13 2HD2 ASN A   1     -10.273   7.642  73.644  1.00  0.00     0.000 HD 
ENDBRANCH   8   9
ENDBRANCH   4   8
TORSDOF 2
ENDMDL
MODEL       94
REMARK 921   NORMALIZED FREE ENERGY PREDICTED BY IDOCK:   -2.88 KCAL/MOL
REMARK 922        TOTAL FREE ENERGY PREDICTED BY IDOCK:   -3.48 KCAL/MOL
REMARK 923 INTER-LIGAND FREE ENERGY PREDICTED BY IDOCK:   -3.24 KCAL/MOL
REMARK 924 INTRA-LIGAND FREE ENERGY PREDICTED BY IDOCK:   -0.24 KCAL/MOL
REMARK 927      BINDING AFFINITY PREDICTED BY RF-SCORE:    0.00 PKD
ROOT
ATOM      1  N   ASN A   1      -8.239  18.204  68.629  1.00  0.00    -0.304 NA 
ATOM      2  H1  ASN A   1      -7.400  17.724  68.958  1.00  0.00     0.000 HD 
ATOM      3  H2  ASN A   1      -8.926  17.551  68.253  1.00  0.00     0.000 HD 
ATOM      4  CA  ASN A   1      -7.879  19.270  67.635  1.00  0.00    -0.262 C  
ATOM      5  OXT ASN A   1      -6.437  21.242  67.780  1.00  0.00    -0.375 OA 
ATOM      6  C   ASN A   1      -6.891  20.237  68.302  1.00  0.00    -0.285 C  
ATOM      7  O   ASN A   1      -6.530  19.810  69.540  1.00  0.00    -0.316 OA 
ENDROOT
BRANCH   4   8
ATOM      8  CB  ASN A   1      -9.132  19.987  67.143  1.00  0.00    -0.468 C  
BRANCH   8   9
ATOM      9  CG  ASN A   1     -10.068  19.213  66.236  1.00  0.00    -0.431 C  
ATOM     10  ND2 ASN A   1     -10.093  17.856  66.332  1.00  0.00    -0.355 N  
ATOM     11  OD1 ASN A   1     -10.878  19.788  65.514  1.00  0.00    -0.445 OA 
ATOM     12 1HD2 ASN A   1     -10.723  17.335  65.721  1.00  0.00     0.000 HD 
ATOM     13 2HD2 ASN A   1      -9.495  17.369  66.999  1.00  0.00     0.000 HD 
ENDBRANCH   8   9
ENDBRANCH   4   8
TORSDOF 2
ENDMDL
MODEL       95
REMARK 921   NORMALIZED FREE ENERGY PREDICTED BY IDOCK:   -2.87 KCAL/MOL
REMARK 922        TOTAL FREE ENERGY PREDICTED BY IDOCK:   -3.47 KCAL/MOL
REMARK 923 INTER-LIGAND FREE ENERGY PREDICTED BY IDOCK:   -3.06 KCAL/MOL
REMARK 924 INTRA-LIGAND FREE ENERGY PREDICTED BY IDOCK:   -0.41 KCAL/MOL
REMARK 927      BINDING AFFINITY PREDICTED BY RF-SCORE:    0.00 PKD
ROOT
ATOM      1  N   ASN A   1      -9.615  12.531  68.558  1.00  0.00    -0.367 NA 
ATOM      2  H1  ASN A   1      -8.959  13.063  67.987  1.00  0.00     0.000 HD 
ATOM      3  H2  ASN A   1      -9.139  11.996  69.283  1.00  0.00     0.000 HD 
ATOM      4  CA  ASN A   1     -10.476  11.655  67.694  1.00  0.00    -0.191 C  
ATOM      5  OXT ASN A   1     -12.010  12.153  65.852  1.00  0.00    -0.561 OA 
ATOM      6  C   ASN A   1     -11.198  12.547  66.674  1.00  0.00    -0.307 C  
ATOM      7  O   ASN A   1     -10.783  13.838  66.753  1.00  0.00    -0.275 OA 
ENDROOT
BRANCH   4   8
ATOM      8  CB  ASN A   1     -11.457  10.860  68.548  1.00  0.00    -0.380 C  
BRANCH   8   9
ATOM      9  CG  ASN A   1     -11.555  11.220  70.017  1.00  0.00    -0.321 C  
ATOM     10  ND2 ASN A   1     -10.994  10.383  70.931  1.00  0.00    -0.314 N  
ATOM     11  OD1 ASN A   1     -12.019  12.297  70.380  1.00  0.00    -0.343 OA 
ATOM     12 1HD2 ASN A   1     -11.060  10.625  71.920  1.00  0.00     0.000 HD 
ATOM     13 2HD2 ASN A   1     -10.518   9.531  70.635  1.00  0.00     0.000 HD 
ENDBRANCH   8   9
ENDBRANCH   4   8
TORSDOF 2
ENDMDL
MODEL       96
REMARK 921   NORMALIZED FREE ENERGY PREDICTED BY IDOCK:   -2.87 KCAL/MOL
REMARK 922        TOTAL FREE ENERGY PREDICTED BY IDOCK:   -3.47 KCAL/MOL
REMARK 923 INTER-LIGAND FREE ENERGY PREDICTED BY IDOCK:   -3.21 KCAL/MOL
REMARK 924 INTRA-LIGAND FREE ENERGY PREDICTED BY IDOCK:   -0.25 KCAL/MOL
REMARK 927      BINDING AFFINITY PREDICTED BY RF-SCORE:    0.00 PKD
ROOT
ATOM      1  N   ASN A   1     -10.272  19.125  69.054  1.00  0.00    -0.550 NA 
ATOM      2  H1  ASN A   1      -9.746  19.891  69.474  1.00  0.00     0.000 HD 
ATOM      3  H2  ASN A   1     -10.520  18.414  69.740  1.00  0.00     0.000 HD 
ATOM      4  CA  ASN A   1      -9.518  18.542  67.894  1.00  0.00    -0.296 C  
ATOM      5  OXT ASN A   1      -8.683  19.519  65.810  1.00  0.00    -0.400 OA 
ATOM      6  C   ASN A   1      -9.240  19.667  66.886  1.00  0.00    -0.350 C  
ATOM      7  O   ASN A   1      -9.640  20.875  67.361  1.00  0.00    -0.433 OA 
ENDROOT
BRANCH   4   8
ATOM      8  CB  ASN A   1     -10.304  17.397  67.265  1.00  0.00    -0.336 C  
BRANCH   8   9
ATOM      9  CG  ASN A   1     -10.534  16.161  68.111  1.00  0.00    -0.279 C  
ATOM     10  ND2 ASN A   1      -9.698  15.924  69.159  1.00  0.00    -0.234 N  
ATOM     11  OD1 ASN A   1     -11.517  15.445  67.943  1.00  0.00    -0.335 OA 
ATOM     12 1HD2 ASN A   1      -9.852  15.092  69.728  1.00  0.00     0.000 HD 
ATOM     13 2HD2 ASN A   1      -8.933  16.565  69.371  1.00  0.00     0.000 HD 
ENDBRANCH   8   9
ENDBRANCH   4   8
TORSDOF 2
ENDMDL
MODEL       97
REMARK 921   NORMALIZED FREE ENERGY PREDICTED BY IDOCK:   -2.86 KCAL/MOL
REMARK 922        TOTAL FREE ENERGY PREDICTED BY IDOCK:   -3.45 KCAL/MOL
REMARK 923 INTER-LIGAND FREE ENERGY PREDICTED BY IDOCK:   -3.05 KCAL/MOL
REMARK 924 INTRA-LIGAND FREE ENERGY PREDICTED BY IDOCK:   -0.40 KCAL/MOL
REMARK 927      BINDING AFFINITY PREDICTED BY RF-SCORE:    0.00 PKD
ROOT
ATOM      1  N   ASN A   1     -12.373  13.742  66.422  1.00  0.00    -0.434 NA 
ATOM      2  H1  ASN A   1     -12.809  12.937  65.972  1.00  0.00     0.000 HD 
ATOM      3  H2  ASN A   1     -12.479  14.590  65.868  1.00  0.00     0.000 HD 
ATOM      4  CA  ASN A   1     -10.932  13.454  66.733  1.00  0.00    -0.288 C  
ATOM      5  OXT ASN A   1      -9.849  11.724  68.084  1.00  0.00    -0.178 OA 
ATOM      6  C   ASN A   1     -10.871  12.201  67.617  1.00  0.00    -0.233 C  
ATOM      7  O   ASN A   1     -12.098  11.640  67.777  1.00  0.00    -0.613 OA 
ENDROOT
BRANCH   4   8
ATOM      8  CB  ASN A   1     -10.280  14.657  67.406  1.00  0.00    -0.240 C  
BRANCH   8   9
ATOM      9  CG  ASN A   1     -10.878  15.133  68.714  1.00  0.00    -0.247 C  
ATOM     10  ND2 ASN A   1     -10.110  15.088  69.837  1.00  0.00    -0.473 N  
ATOM     11  OD1 ASN A   1     -11.985  15.664  68.754  1.00  0.00    -0.348 OA 
ATOM     12 1HD2 ASN A   1     -10.513  15.409  70.717  1.00  0.00     0.000 HD 
ATOM     13 2HD2 ASN A   1      -9.153  14.740  69.799  1.00  0.00     0.000 HD 
ENDBRANCH   8   9
ENDBRANCH   4   8
TORSDOF 2
ENDMDL
MODEL       98
REMARK 921   NORMALIZED FREE ENERGY PREDICTED BY IDOCK:   -2.86 KCAL/MOL
REMARK 922        TOTAL FREE ENERGY PREDICTED BY IDOCK:   -3.45 KCAL/MOL
REMARK 923 INTER-LIGAND FREE ENERGY PREDICTED BY IDOCK:   -3.13 KCAL/MOL
REMARK 924 INTRA-LIGAND FREE ENERGY PREDICTED BY IDOCK:   -0.32 KCAL/MOL
REMARK 927      BINDING AFFINITY PREDICTED BY RF-SCORE:    0.00 PKD
ROOT
ATOM      1  N   ASN A   1      -9.539   7.508  70.621  1.00  0.00    -0.171 NA 
ATOM      2  H1  ASN A   1      -9.352   6.510  70.514  1.00  0.00     0.000 HD 
ATOM      3  H2  ASN A   1      -8.723   8.012  70.965  1.00  0.00     0.000 HD 
ATOM      4  CA  ASN A   1     -10.740   7.727  71.496  1.00  0.00    -0.222 C  
ATOM      5  OXT ASN A   1     -13.069   6.997  71.314  1.00  0.00    -0.369 OA 
ATOM      6  C   ASN A   1     -11.931   6.984  70.874  1.00  0.00    -0.364 C  
ATOM      7  O   ASN A   1     -11.556   6.254  69.791  1.00  0.00    -0.436 OA 
ENDROOT
BRANCH   4   8
ATOM      8  CB  ASN A   1     -11.020   9.217  71.656  1.00  0.00    -0.445 C  
BRANCH   8   9
ATOM      9  CG  ASN A   1     -11.488   9.975  70.430  1.00  0.00    -0.314 C  
ATOM     10  ND2 ASN A   1     -12.820  10.214  70.282  1.00  0.00    -0.572 N  
ATOM     11  OD1 ASN A   1     -10.688  10.472  69.643  1.00  0.00    -0.237 OA 
ATOM     12 1HD2 ASN A   1     -13.135  10.724  69.456  1.00  0.00     0.000 HD 
ATOM     13 2HD2 ASN A   1     -13.488   9.891  70.980  1.00  0.00     0.000 HD 
ENDBRANCH   8   9
ENDBRANCH   4   8
TORSDOF 2
ENDMDL
MODEL       99
REMARK 921   NORMALIZED FREE ENERGY PREDICTED BY IDOCK:   -2.85 KCAL/MOL
REMARK 922        TOTAL FREE ENERGY PREDICTED BY IDOCK:   -3.45 KCAL/MOL
REMARK 923 INTER-LIGAND FREE ENERGY PREDICTED BY IDOCK:   -3.06 KCAL/MOL
REMARK 924 INTRA-LIGAND FREE ENERGY PREDICTED BY IDOCK:   -0.39 KCAL/MOL
REMARK 927      BINDING AFFINITY PREDICTED BY RF-SCORE:    0.00 PKD
ROOT
ATOM      1  N   ASN A   1      -9.638  16.398  66.133  1.00  0.00    -0.309 NA 
ATOM      2  H1  ASN A   1     -10.507  16.064  65.718  1.00  0.00     0.000 HD 
ATOM      3  H2  ASN A   1      -9.154  15.661  66.644  1.00  0.00     0.000 HD 
ATOM      4  CA  ASN A   1      -9.895  17.599  66.997  1.00  0.00    -0.307 C  
ATOM      5  OXT ASN A   1     -10.870  19.794  66.523  1.00  0.00    -0.451 OA 
ATOM      6  C   ASN A   1     -10.569  18.677  66.136  1.00  0.00    -0.363 C  
ATOM      7  O   ASN A   1     -10.848  18.218  64.888  1.00  0.00    -0.619 OA 
ENDROOT
BRANCH   4   8
ATOM      8  CB  ASN A   1      -8.595  18.099  67.618  1.00  0.00    -0.252 C  
BRANCH   8   9
ATOM      9  CG  ASN A   1      -7.534  18.635  66.678  1.00  0.00    -0.234 C  
ATOM     10  ND2 ASN A   1      -6.864  17.756  65.883  1.00  0.00    -0.284 N  
ATOM     11  OD1 ASN A   1      -7.356  19.842  66.538  1.00  0.00    -0.237 OA 
ATOM     12 1HD2 ASN A   1      -6.150  18.117  65.251  1.00  0.00     0.000 HD 
ATOM     13 2HD2 ASN A   1      -7.071  16.759  65.919  1.00  0.00     0.000 HD 
ENDBRANCH   8   9
ENDBRANCH   4   8
TORSDOF 2
ENDMDL
MODEL      100
REMARK 921   NORMALIZED FREE ENERGY PREDICTED BY IDOCK:   -2.85 KCAL/MOL
REMARK 922        TOTAL FREE ENERGY PREDICTED BY IDOCK:   -3.44 KCAL/MOL
REMARK 923 INTER-LIGAND FREE ENERGY PREDICTED BY IDOCK:   -3.04 KCAL/MOL
REMARK 924 INTRA-LIGAND FREE ENERGY PREDICTED BY IDOCK:   -0.40 KCAL/MOL
REMARK 927      BINDING AFFINITY PREDICTED BY RF-SCORE:    0.00 PKD
ROOT
ATOM      1  N   ASN A   1     -12.645   7.164  70.553  1.00  0.00    -0.602 NA 
ATOM      2  H1  ASN A   1     -12.777   7.078  69.545  1.00  0.00     0.000 HD 
ATOM      3  H2  ASN A   1     -13.530   7.115  71.056  1.00  0.00     0.000 HD 
ATOM      4  CA  ASN A   1     -11.887   8.419  70.879  1.00  0.00    -0.217 C  
ATOM      5  OXT ASN A   1      -9.676   9.230  70.211  1.00  0.00    -0.198 OA 
ATOM      6  C   ASN A   1     -10.548   8.381  70.127  1.00  0.00    -0.233 C  
ATOM      7  O   ASN A   1     -10.468   7.306  69.301  1.00  0.00    -0.207 OA 
ENDROOT
BRANCH   4   8
ATOM      8  CB  ASN A   1     -11.689   8.547  72.385  1.00  0.00    -0.429 C  
BRANCH   8   9
ATOM      9  CG  ASN A   1     -10.854   7.486  73.072  1.00  0.00    -0.392 C  
ATOM     10  ND2 ASN A   1     -11.313   6.205  73.088  1.00  0.00    -0.473 N  
ATOM     11  OD1 ASN A   1      -9.731   7.736  73.502  1.00  0.00    -0.291 OA 
ATOM     12 1HD2 ASN A   1     -10.751   5.490  73.551  1.00  0.00     0.000 HD 
ATOM     13 2HD2 ASN A   1     -12.200   5.964  72.648  1.00  0.00     0.000 HD 
ENDBRANCH   8   9
ENDBRANCH   4   8
TORSDOF 2
ENDMDL
MODEL      101
REMARK 921   NORMALIZED FREE ENERGY PREDICTED BY IDOCK:   -2.82 KCAL/MOL
REMARK 922        TOTAL FREE ENERGY PREDICTED BY IDOCK:   -3.41 KCAL/MOL
REMARK 923 INTER-LIGAND FREE ENERGY PREDICTED BY IDOCK:   -3.31 KCAL/MOL
REMARK 924 INTRA-LIGAND FREE ENERGY PREDICTED BY IDOCK:   -0.10 KCAL/MOL
REMARK 927      BINDING AFFINITY PREDICTED BY RF-SCORE:    0.00 PKD
ROOT
ATOM      1  N   ASN A   1     -10.336  16.181  69.191  1.00  0.00    -0.241 NA 
ATOM      2  H1  ASN A   1     -10.055  17.065  69.616  1.00  0.00     0.000 HD 
ATOM      3  H2  ASN A   1     -10.087  15.384  69.775  1.00  0.00     0.000 HD 
ATOM      4  CA  ASN A   1      -9.766  16.058  67.807  1.00  0.00    -0.221 C  
ATOM      5  OXT ASN A   1      -9.989  17.445  65.802  1.00  0.00    -0.539 OA 
ATOM      6  C   ASN A   1     -10.238  17.264  66.983  1.00  0.00    -0.320 C  
ATOM      7  O   ASN A   1     -10.929  18.152  67.745  1.00  0.00    -0.315 OA 
ENDROOT
BRANCH   4   8
ATOM      8  CB  ASN A   1     -10.185  14.737  67.171  1.00  0.00    -0.245 C  
BRANCH   8   9
ATOM      9  CG  ASN A   1     -11.662  14.393  67.186  1.00  0.00    -0.400 C  
ATOM     10  ND2 ASN A   1     -12.363  14.583  68.337  1.00  0.00    -0.605 N  
ATOM     11  OD1 ASN A   1     -12.251  14.067  66.160  1.00  0.00    -0.426 OA 
ATOM     12 1HD2 ASN A   1     -13.356  14.352  68.346  1.00  0.00     0.000 HD 
ATOM     13 2HD2 ASN A   1     -11.905  14.948  69.172  1.00  0.00     0.000 HD 
ENDBRANCH   8   9
ENDBRANCH   4   8
TORSDOF 2
ENDMDL
MODEL      102
REMARK 921   NORMALIZED FREE ENERGY PREDICTED BY IDOCK:   -2.82 KCAL/MOL
REMARK 922        TOTAL FREE ENERGY PREDICTED BY IDOCK:   -3.41 KCAL/MOL
REMARK 923 INTER-LIGAND FREE ENERGY PREDICTED BY IDOCK:   -3.10 KCAL/MOL
REMARK 924 INTRA-LIGAND FREE ENERGY PREDICTED BY IDOCK:   -0.31 KCAL/MOL
REMARK 927      BINDING AFFINITY PREDICTED BY RF-SCORE:    0.00 PKD
ROOT
ATOM      1  N   ASN A   1      -9.557  13.222  68.809  1.00  0.00    -0.410 NA 
ATOM      2  H1  ASN A   1      -8.711  13.777  68.678  1.00  0.00     0.000 HD 
ATOM      3  H2  ASN A   1      -9.490  12.315  68.347  1.00  0.00     0.000 HD 
ATOM      4  CA  ASN A   1     -10.766  13.990  68.358  1.00  0.00    -0.251 C  
ATOM      5  OXT ASN A   1     -11.705  16.142  69.049  1.00  0.00    -0.345 OA 
ATOM      6  C   ASN A   1     -10.820  15.308  69.144  1.00  0.00    -0.250 C  
ATOM      7  O   ASN A   1      -9.723  15.468  69.929  1.00  0.00    -0.290 OA 
ENDROOT
BRANCH   4   8
ATOM      8  CB  ASN A   1     -12.030  13.160  68.553  1.00  0.00    -0.324 C  
BRANCH   8   9
ATOM      9  CG  ASN A   1     -11.869  11.656  68.650  1.00  0.00    -0.308 C  
ATOM     10  ND2 ASN A   1     -12.071  11.055  69.855  1.00  0.00    -0.341 N  
ATOM     11  OD1 ASN A   1     -11.681  10.968  67.650  1.00  0.00    -0.576 OA 
ATOM     12 1HD2 ASN A   1     -11.963  10.043  69.919  1.00  0.00     0.000 HD 
ATOM     13 2HD2 ASN A   1     -12.324  11.605  70.675  1.00  0.00     0.000 HD 
ENDBRANCH   8   9
ENDBRANCH   4   8
TORSDOF 2
ENDMDL
MODEL      103
REMARK 921   NORMALIZED FREE ENERGY PREDICTED BY IDOCK:   -2.81 KCAL/MOL
REMARK 922        TOTAL FREE ENERGY PREDICTED BY IDOCK:   -3.39 KCAL/MOL
REMARK 923 INTER-LIGAND FREE ENERGY PREDICTED BY IDOCK:   -2.99 KCAL/MOL
REMARK 924 INTRA-LIGAND FREE ENERGY PREDICTED BY IDOCK:   -0.40 KCAL/MOL
REMARK 927      BINDING AFFINITY PREDICTED BY RF-SCORE:    0.00 PKD
ROOT
ATOM      1  N   ASN A   1      -9.817  13.135  64.829  1.00  0.00    -0.578 NA 
ATOM      2  H1  ASN A   1      -9.289  13.965  64.558  1.00  0.00     0.000 HD 
ATOM      3  H2  ASN A   1     -10.100  12.585  64.019  1.00  0.00     0.000 HD 
ATOM      4  CA  ASN A   1     -10.992  13.515  65.684  1.00  0.00    -0.289 C  
ATOM      5  OXT ASN A   1     -11.164  14.697  67.821  1.00  0.00    -0.283 OA 
ATOM      6  C   ASN A   1     -10.470  14.285  66.905  1.00  0.00    -0.272 C  
ATOM      7  O   ASN A   1      -9.132  14.509  66.822  1.00  0.00    -0.245 OA 
ENDROOT
BRANCH   4   8
ATOM      8  CB  ASN A   1     -11.781  12.275  66.089  1.00  0.00    -0.440 C  
BRANCH   8   9
ATOM      9  CG  ASN A   1     -11.086  11.266  66.982  1.00  0.00    -0.293 C  
ATOM     10  ND2 ASN A   1     -11.733  10.828  68.096  1.00  0.00    -0.401 N  
ATOM     11  OD1 ASN A   1     -10.016  10.756  66.658  1.00  0.00    -0.193 OA 
ATOM     12 1HD2 ASN A   1     -11.265  10.149  68.697  1.00  0.00     0.000 HD 
ATOM     13 2HD2 ASN A   1     -12.665  11.170  68.325  1.00  0.00     0.000 HD 
ENDBRANCH   8   9
ENDBRANCH   4   8
TORSDOF 2
ENDMDL
MODEL      104
REMARK 921   NORMALIZED FREE ENERGY PREDICTED BY IDOCK:   -2.78 KCAL/MOL
REMARK 922        TOTAL FREE ENERGY PREDICTED BY IDOCK:   -3.37 KCAL/MOL
REMARK 923 INTER-LIGAND FREE ENERGY PREDICTED BY IDOCK:   -3.00 KCAL/MOL
REMARK 924 INTRA-LIGAND FREE ENERGY PREDICTED BY IDOCK:   -0.37 KCAL/MOL
REMARK 927      BINDING AFFINITY PREDICTED BY RF-SCORE:    0.00 PKD
ROOT
ATOM      1  N   ASN A   1     -11.417  14.378  70.682  1.00  0.00    -0.497 NA 
ATOM      2  H1  ASN A   1     -12.084  13.633  70.884  1.00  0.00     0.000 HD 
ATOM      3  H2  ASN A   1     -11.312  15.017  71.469  1.00  0.00     0.000 HD 
ATOM      4  CA  ASN A   1     -11.800  15.102  69.423  1.00  0.00    -0.330 C  
ATOM      5  OXT ASN A   1     -12.120  14.344  67.117  1.00  0.00    -0.414 OA 
ATOM      6  C   ASN A   1     -11.876  14.076  68.283  1.00  0.00    -0.371 C  
ATOM      7  O   ASN A   1     -11.695  12.808  68.736  1.00  0.00    -0.286 OA 
ENDROOT
BRANCH   4   8
ATOM      8  CB  ASN A   1     -10.803  16.214  69.121  1.00  0.00    -0.298 C  
BRANCH   8   9
ATOM      9  CG  ASN A   1      -9.360  15.814  68.889  1.00  0.00    -0.228 C  
ATOM     10  ND2 ASN A   1      -8.727  15.077  69.842  1.00  0.00    -0.400 N  
ATOM     11  OD1 ASN A   1      -8.799  16.038  67.820  1.00  0.00    -0.175 OA 
ATOM     12 1HD2 ASN A   1      -7.756  14.807  69.686  1.00  0.00     0.000 HD 
ATOM     13 2HD2 ASN A   1      -9.214  14.799  70.694  1.00  0.00     0.000 HD 
ENDBRANCH   8   9
ENDBRANCH   4   8
TORSDOF 2
ENDMDL
MODEL      105
REMARK 921   NORMALIZED FREE ENERGY PREDICTED BY IDOCK:   -2.78 KCAL/MOL
REMARK 922        TOTAL FREE ENERGY PREDICTED BY IDOCK:   -3.36 KCAL/MOL
REMARK 923 INTER-LIGAND FREE ENERGY PREDICTED BY IDOCK:   -3.15 KCAL/MOL
REMARK 924 INTRA-LIGAND FREE ENERGY PREDICTED BY IDOCK:   -0.21 KCAL/MOL
REMARK 927      BINDING AFFINITY PREDICTED BY RF-SCORE:    0.00 PKD
ROOT
ATOM      1  N   ASN A   1     -10.021   8.115  70.891  1.00  0.00    -0.186 NA 
ATOM      2  H1  ASN A   1     -10.039   9.011  71.381  1.00  0.00     0.000 HD 
ATOM      3  H2  ASN A   1      -9.326   8.104  70.147  1.00  0.00     0.000 HD 
ATOM      4  CA  ASN A   1     -11.390   7.768  70.381  1.00  0.00    -0.207 C  
ATOM      5  OXT ASN A   1     -13.541   7.458  71.508  1.00  0.00    -0.380 OA 
ATOM      6  C   ASN A   1     -12.358   7.750  71.573  1.00  0.00    -0.320 C  
ATOM      7  O   ASN A   1     -11.751   8.158  72.718  1.00  0.00    -0.403 OA 
ENDROOT
BRANCH   4   8
ATOM      8  CB  ASN A   1     -11.365   6.430  69.650  1.00  0.00    -0.479 C  
BRANCH   8   9
ATOM      9  CG  ASN A   1     -10.663   6.382  68.308  1.00  0.00    -0.285 C  
ATOM     10  ND2 ASN A   1     -11.404   6.550  67.179  1.00  0.00    -0.771 N  
ATOM     11  OD1 ASN A   1      -9.439   6.315  68.229  1.00  0.00    -0.119 OA 
ATOM     12 1HD2 ASN A   1     -10.931   6.517  66.276  1.00  0.00     0.000 HD 
ATOM     13 2HD2 ASN A   1     -12.410   6.705  67.234  1.00  0.00     0.000 HD 
ENDBRANCH   8   9
ENDBRANCH   4   8
TORSDOF 2
ENDMDL
MODEL      106
REMARK 921   NORMALIZED FREE ENERGY PREDICTED BY IDOCK:   -2.77 KCAL/MOL
REMARK 922        TOTAL FREE ENERGY PREDICTED BY IDOCK:   -3.36 KCAL/MOL
REMARK 923 INTER-LIGAND FREE ENERGY PREDICTED BY IDOCK:   -3.13 KCAL/MOL
REMARK 924 INTRA-LIGAND FREE ENERGY PREDICTED BY IDOCK:   -0.23 KCAL/MOL
REMARK 927      BINDING AFFINITY PREDICTED BY RF-SCORE:    0.00 PKD
ROOT
ATOM      1  N   ASN A   1      -9.082  16.771  68.482  1.00  0.00    -0.233 NA 
ATOM      2  H1  ASN A   1      -8.650  15.881  68.234  1.00  0.00     0.000 HD 
ATOM      3  H2  ASN A   1      -9.979  16.900  68.014  1.00  0.00     0.000 HD 
ATOM      4  CA  ASN A   1      -8.141  17.908  68.205  1.00  0.00    -0.293 C  
ATOM      5  OXT ASN A   1      -5.892  18.423  69.023  1.00  0.00    -0.203 OA 
ATOM      6  C   ASN A   1      -6.845  17.663  68.992  1.00  0.00    -0.240 C  
ATOM      7  O   ASN A   1      -6.859  16.456  69.616  1.00  0.00    -0.214 OA 
ENDROOT
BRANCH   4   8
ATOM      8  CB  ASN A   1      -8.787  19.239  68.575  1.00  0.00    -0.411 C  
BRANCH   8   9
ATOM      9  CG  ASN A   1      -9.843  19.787  67.636  1.00  0.00    -0.390 C  
ATOM     10  ND2 ASN A   1      -9.538  20.876  66.879  1.00  0.00    -0.669 N  
ATOM     11  OD1 ASN A   1     -10.908  19.201  67.461  1.00  0.00    -0.473 OA 
ATOM     12 1HD2 ASN A   1     -10.249  21.245  66.246  1.00  0.00     0.000 HD 
ATOM     13 2HD2 ASN A   1      -8.620  21.314  66.942  1.00  0.00     0.000 HD 
ENDBRANCH   8   9
ENDBRANCH   4   8
TORSDOF 2
ENDMDL
MODEL      107
REMARK 921   NORMALIZED FREE ENERGY PREDICTED BY IDOCK:   -2.76 KCAL/MOL
REMARK 922        TOTAL FREE ENERGY PREDICTED BY IDOCK:   -3.34 KCAL/MOL
REMARK 923 INTER-LIGAND FREE ENERGY PREDICTED BY IDOCK:   -3.09 KCAL/MOL
REMARK 924 INTRA-LIGAND FREE ENERGY PREDICTED BY IDOCK:   -0.25 KCAL/MOL
REMARK 927      BINDING AFFINITY PREDICTED BY RF-SCORE:    0.00 PKD
ROOT
ATOM      1  N   ASN A   1      -9.294  12.502  66.311  1.00  0.00    -0.348 NA 
ATOM      2  H1  ASN A   1      -8.409  12.755  66.752  1.00  0.00     0.000 HD 
ATOM      3  H2  ASN A   1      -9.471  13.054  65.473  1.00  0.00     0.000 HD 
ATOM      4  CA  ASN A   1     -10.422  12.605  67.296  1.00  0.00    -0.228 C  
ATOM      5  OXT ASN A   1     -10.835  11.519  69.451  1.00  0.00    -0.210 OA 
ATOM      6  C   ASN A   1     -10.100  11.699  68.494  1.00  0.00    -0.206 C  
ATOM      7  O   ASN A   1      -8.859  11.155  68.391  1.00  0.00    -0.145 OA 
ENDROOT
BRANCH   4   8
ATOM      8  CB  ASN A   1     -11.744  12.227  66.637  1.00  0.00    -0.417 C  
BRANCH   8   9
ATOM      9  CG  ASN A   1     -12.047  12.836  65.283  1.00  0.00    -0.457 C  
ATOM     10  ND2 ASN A   1     -13.011  13.793  65.201  1.00  0.00    -0.762 N  
ATOM     11  OD1 ASN A   1     -11.366  12.571  64.296  1.00  0.00    -0.319 OA 
ATOM     12 1HD2 ASN A   1     -13.215  14.203  64.289  1.00  0.00     0.000 HD 
ATOM     13 2HD2 ASN A   1     -13.518  14.095  66.032  1.00  0.00     0.000 HD 
ENDBRANCH   8   9
ENDBRANCH   4   8
TORSDOF 2
ENDMDL
MODEL      108
REMARK 921   NORMALIZED FREE ENERGY PREDICTED BY IDOCK:   -2.76 KCAL/MOL
REMARK 922        TOTAL FREE ENERGY PREDICTED BY IDOCK:   -3.34 KCAL/MOL
REMARK 923 INTER-LIGAND FREE ENERGY PREDICTED BY IDOCK:   -3.33 KCAL/MOL
REMARK 924 INTRA-LIGAND FREE ENERGY PREDICTED BY IDOCK:   -0.01 KCAL/MOL
REMARK 927      BINDING AFFINITY PREDICTED BY RF-SCORE:    0.00 PKD
ROOT
ATOM      1  N   ASN A   1     -11.891   6.311  72.897  1.00  0.00    -0.476 NA 
ATOM      2  H1  ASN A   1     -11.156   5.609  72.816  1.00  0.00     0.000 HD 
ATOM      3  H2  ASN A   1     -12.797   5.946  72.606  1.00  0.00     0.000 HD 
ATOM      4  CA  ASN A   1     -11.520   7.553  72.139  1.00  0.00    -0.291 C  
ATOM      5  OXT ASN A   1      -9.617   9.083  72.311  1.00  0.00    -0.287 OA 
ATOM      6  C   ASN A   1     -10.178   8.065  72.682  1.00  0.00    -0.316 C  
ATOM      7  O   ASN A   1      -9.649   7.211  73.596  1.00  0.00    -0.197 OA 
ENDROOT
BRANCH   4   8
ATOM      8  CB  ASN A   1     -12.619   8.603  72.260  1.00  0.00    -0.457 C  
BRANCH   8   9
ATOM      9  CG  ASN A   1     -12.452   9.883  71.466  1.00  0.00    -0.411 C  
ATOM     10  ND2 ASN A   1     -11.877   9.815  70.235  1.00  0.00    -0.431 N  
ATOM     11  OD1 ASN A   1     -12.930  10.944  71.858  1.00  0.00    -0.458 OA 
ATOM     12 1HD2 ASN A   1     -11.765  10.676  69.700  1.00  0.00     0.000 HD 
ATOM     13 2HD2 ASN A   1     -11.564   8.922  69.855  1.00  0.00     0.000 HD 
ENDBRANCH   8   9
ENDBRANCH   4   8
TORSDOF 2
ENDMDL
MODEL      109
REMARK 921   NORMALIZED FREE ENERGY PREDICTED BY IDOCK:   -2.72 KCAL/MOL
REMARK 922        TOTAL FREE ENERGY PREDICTED BY IDOCK:   -3.29 KCAL/MOL
REMARK 923 INTER-LIGAND FREE ENERGY PREDICTED BY IDOCK:   -2.92 KCAL/MOL
REMARK 924 INTRA-LIGAND FREE ENERGY PREDICTED BY IDOCK:   -0.37 KCAL/MOL
REMARK 927      BINDING AFFINITY PREDICTED BY RF-SCORE:    0.00 PKD
ROOT
ATOM      1  N   ASN A   1      -7.570  20.938  67.037  1.00  0.00    -0.555 NA 
ATOM      2  H1  ASN A   1      -7.439  21.883  67.399  1.00  0.00     0.000 HD 
ATOM      3  H2  ASN A   1      -8.381  20.876  66.423  1.00  0.00     0.000 HD 
ATOM      4  CA  ASN A   1      -7.648  19.948  68.164  1.00  0.00    -0.281 C  
ATOM      5  OXT ASN A   1      -6.091  19.373  69.964  1.00  0.00    -0.261 OA 
ATOM      6  C   ASN A   1      -6.365  20.069  69.000  1.00  0.00    -0.318 C  
ATOM      7  O   ASN A   1      -5.582  21.092  68.570  1.00  0.00    -0.332 OA 
ENDROOT
BRANCH   4   8
ATOM      8  CB  ASN A   1      -7.843  18.536  67.624  1.00  0.00    -0.245 C  
BRANCH   8   9
ATOM      9  CG  ASN A   1      -6.899  18.070  66.534  1.00  0.00    -0.219 C  
ATOM     10  ND2 ASN A   1      -6.058  17.034  66.800  1.00  0.00    -0.194 N  
ATOM     11  OD1 ASN A   1      -6.965  18.524  65.395  1.00  0.00    -0.514 OA 
ATOM     12 1HD2 ASN A   1      -5.423  16.720  66.067  1.00  0.00     0.000 HD 
ATOM     13 2HD2 ASN A   1      -6.062  16.581  67.714  1.00  0.00     0.000 HD 
ENDBRANCH   8   9
ENDBRANCH   4   8
TORSDOF 2
ENDMDL
MODEL      110
REMARK 921   NORMALIZED FREE ENERGY PREDICTED BY IDOCK:   -2.70 KCAL/MOL
REMARK 922        TOTAL FREE ENERGY PREDICTED BY IDOCK:   -3.27 KCAL/MOL
REMARK 923 INTER-LIGAND FREE ENERGY PREDICTED BY IDOCK:   -3.00 KCAL/MOL
REMARK 924 INTRA-LIGAND FREE ENERGY PREDICTED BY IDOCK:   -0.28 KCAL/MOL
REMARK 927      BINDING AFFINITY PREDICTED BY RF-SCORE:    0.00 PKD
ROOT
ATOM      1  N   ASN A   1     -10.342  18.491  66.339  1.00  0.00    -0.408 NA 
ATOM      2  H1  ASN A   1     -10.786  17.744  66.872  1.00  0.00     0.000 HD 
ATOM      3  H2  ASN A   1     -10.373  18.311  65.336  1.00  0.00     0.000 HD 
ATOM      4  CA  ASN A   1      -8.938  18.721  66.821  1.00  0.00    -0.308 C  
ATOM      5  OXT ASN A   1      -8.025  19.324  69.011  1.00  0.00    -0.340 OA 
ATOM      6  C   ASN A   1      -8.992  19.042  68.322  1.00  0.00    -0.332 C  
ATOM      7  O   ASN A   1     -10.251  18.919  68.816  1.00  0.00    -0.377 OA 
ENDROOT
BRANCH   4   8
ATOM      8  CB  ASN A   1      -8.275  19.838  66.024  1.00  0.00    -0.327 C  
BRANCH   8   9
ATOM      9  CG  ASN A   1      -6.796  19.698  65.724  1.00  0.00    -0.284 C  
ATOM     10  ND2 ASN A   1      -5.900  20.040  66.690  1.00  0.00    -0.171 N  
ATOM     11  OD1 ASN A   1      -6.402  19.175  64.685  1.00  0.00    -0.449 OA 
ATOM     12 1HD2 ASN A   1      -4.904  19.946  66.488  1.00  0.00     0.000 HD 
ATOM     13 2HD2 ASN A   1      -6.216  20.384  67.596  1.00  0.00     0.000 HD 
ENDBRANCH   8   9
ENDBRANCH   4   8
TORSDOF 2
ENDMDL
MODEL      111
REMARK 921   NORMALIZED FREE ENERGY PREDICTED BY IDOCK:   -2.70 KCAL/MOL
REMARK 922        TOTAL FREE ENERGY PREDICTED BY IDOCK:   -3.27 KCAL/MOL
REMARK 923 INTER-LIGAND FREE ENERGY PREDICTED BY IDOCK:   -3.14 KCAL/MOL
REMARK 924 INTRA-LIGAND FREE ENERGY PREDICTED BY IDOCK:   -0.13 KCAL/MOL
REMARK 927      BINDING AFFINITY PREDICTED BY RF-SCORE:    0.00 PKD
ROOT
ATOM      1  N   ASN A   1     -11.989  15.964  68.430  1.00  0.00    -0.386 NA 
ATOM      2  H1  ASN A   1     -11.928  14.965  68.629  1.00  0.00     0.000 HD 
ATOM      3  H2  ASN A   1     -12.697  16.167  67.725  1.00  0.00     0.000 HD 
ATOM      4  CA  ASN A   1     -10.643  16.505  68.041  1.00  0.00    -0.328 C  
ATOM      5  OXT ASN A   1      -8.488  16.555  69.200  1.00  0.00    -0.232 OA 
ATOM      6  C   ASN A   1      -9.657  16.207  69.180  1.00  0.00    -0.249 C  
ATOM      7  O   ASN A   1     -10.229  15.451  70.153  1.00  0.00    -0.292 OA 
ENDROOT
BRANCH   4   8
ATOM      8  CB  ASN A   1     -10.733  17.998  67.743  1.00  0.00    -0.350 C  
BRANCH   8   9
ATOM      9  CG  ASN A   1     -10.064  18.499  66.479  1.00  0.00    -0.400 C  
ATOM     10  ND2 ASN A   1      -8.766  18.903  66.545  1.00  0.00    -0.309 N  
ATOM     11  OD1 ASN A   1     -10.627  18.434  65.390  1.00  0.00    -0.595 OA 
ATOM     12 1HD2 ASN A   1      -8.316  19.240  65.694  1.00  0.00     0.000 HD 
ATOM     13 2HD2 ASN A   1      -8.254  18.869  67.426  1.00  0.00     0.000 HD 
ENDBRANCH   8   9
ENDBRANCH   4   8
TORSDOF 2
ENDMDL
MODEL      112
REMARK 921   NORMALIZED FREE ENERGY PREDICTED BY IDOCK:   -2.69 KCAL/MOL
REMARK 922        TOTAL FREE ENERGY PREDICTED BY IDOCK:   -3.27 KCAL/MOL
REMARK 923 INTER-LIGAND FREE ENERGY PREDICTED BY IDOCK:   -3.09 KCAL/MOL
REMARK 924 INTRA-LIGAND FREE ENERGY PREDICTED BY IDOCK:   -0.17 KCAL/MOL
REMARK 927      BINDING AFFINITY PREDICTED BY RF-SCORE:    0.00 PKD
ROOT
ATOM      1  N   ASN A   1     -11.036   5.837  66.369  1.00  0.00    -0.767 NA 
ATOM      2  H1  ASN A   1     -11.404   6.347  65.566  1.00  0.00     0.000 HD 
ATOM      3  H2  ASN A   1     -11.474   4.922  66.469  1.00  0.00     0.000 HD 
ATOM      4  CA  ASN A   1     -11.166   6.658  67.619  1.00  0.00    -0.170 C  
ATOM      5  OXT ASN A   1     -10.307   8.865  68.240  1.00  0.00    -0.199 OA 
ATOM      6  C   ASN A   1     -10.431   7.988  67.400  1.00  0.00    -0.287 C  
ATOM      7  O   ASN A   1      -9.975   8.104  66.126  1.00  0.00    -0.149 OA 
ENDROOT
BRANCH   4   8
ATOM      8  CB  ASN A   1     -10.616   5.896  68.819  1.00  0.00    -0.340 C  
BRANCH   8   9
ATOM      9  CG  ASN A   1     -11.185   6.235  70.182  1.00  0.00    -0.403 C  
ATOM     10  ND2 ASN A   1     -12.047   7.283  70.286  1.00  0.00    -0.557 N  
ATOM     11  OD1 ASN A   1     -10.980   5.517  71.157  1.00  0.00    -0.221 OA 
ATOM     12 1HD2 ASN A   1     -12.431   7.511  71.203  1.00  0.00     0.000 HD 
ATOM     13 2HD2 ASN A   1     -12.304   7.829  69.464  1.00  0.00     0.000 HD 
ENDBRANCH   8   9
ENDBRANCH   4   8
TORSDOF 2
ENDMDL
MODEL      113
REMARK 921   NORMALIZED FREE ENERGY PREDICTED BY IDOCK:   -2.69 KCAL/MOL
REMARK 922        TOTAL FREE ENERGY PREDICTED BY IDOCK:   -3.26 KCAL/MOL
REMARK 923 INTER-LIGAND FREE ENERGY PREDICTED BY IDOCK:   -3.00 KCAL/MOL
REMARK 924 INTRA-LIGAND FREE ENERGY PREDICTED BY IDOCK:   -0.27 KCAL/MOL
REMARK 927      BINDING AFFINITY PREDICTED BY RF-SCORE:    0.00 PKD
ROOT
ATOM      1  N   ASN A   1     -10.624  15.047  69.977  1.00  0.00    -0.437 NA 
ATOM      2  H1  ASN A   1     -11.371  14.419  70.276  1.00  0.00     0.000 HD 
ATOM      3  H2  ASN A   1     -10.382  15.720  70.704  1.00  0.00     0.000 HD 
ATOM      4  CA  ASN A   1     -10.989  15.725  68.688  1.00  0.00    -0.307 C  
ATOM      5  OXT ASN A   1     -11.560  14.855  66.472  1.00  0.00    -0.339 OA 
ATOM      6  C   ASN A   1     -11.278  14.641  67.640  1.00  0.00    -0.321 C  
ATOM      7  O   ASN A   1     -11.240  13.396  68.182  1.00  0.00    -0.248 OA 
ENDROOT
BRANCH   4   8
ATOM      8  CB  ASN A   1      -9.873  16.662  68.242  1.00  0.00    -0.253 C  
BRANCH   8   9
ATOM      9  CG  ASN A   1     -10.267  17.882  67.434  1.00  0.00    -0.360 C  
ATOM     10  ND2 ASN A   1     -10.338  17.771  66.079  1.00  0.00    -0.355 N  
ATOM     11  OD1 ASN A   1     -10.635  18.919  67.980  1.00  0.00    -0.375 OA 
ATOM     12 1HD2 ASN A   1     -10.604  18.592  65.535  1.00  0.00     0.000 HD 
ATOM     13 2HD2 ASN A   1     -10.130  16.886  65.618  1.00  0.00     0.000 HD 
ENDBRANCH   8   9
ENDBRANCH   4   8
TORSDOF 2
ENDMDL
MODEL      114
REMARK 921   NORMALIZED FREE ENERGY PREDICTED BY IDOCK:   -2.66 KCAL/MOL
REMARK 922        TOTAL FREE ENERGY PREDICTED BY IDOCK:   -3.23 KCAL/MOL
REMARK 923 INTER-LIGAND FREE ENERGY PREDICTED BY IDOCK:   -2.97 KCAL/MOL
REMARK 924 INTRA-LIGAND FREE ENERGY PREDICTED BY IDOCK:   -0.26 KCAL/MOL
REMARK 927      BINDING AFFINITY PREDICTED BY RF-SCORE:    0.00 PKD
ROOT
ATOM      1  N   ASN A   1      -9.291   8.633  72.620  1.00  0.00    -0.299 NA 
ATOM      2  H1  ASN A   1      -8.453   8.051  72.598  1.00  0.00     0.000 HD 
ATOM      3  H2  ASN A   1      -9.951   8.319  73.331  1.00  0.00     0.000 HD 
ATOM      4  CA  ASN A   1      -9.925   8.696  71.260  1.00  0.00    -0.246 C  
ATOM      5  OXT ASN A   1      -9.090   9.449  69.086  1.00  0.00    -0.139 OA 
ATOM      6  C   ASN A   1      -8.882   9.233  70.269  1.00  0.00    -0.224 C  
ATOM      7  O   ASN A   1      -7.667   9.389  70.855  1.00  0.00    -0.224 OA 
ENDROOT
BRANCH   4   8
ATOM      8  CB  ASN A   1     -11.177   9.565  71.294  1.00  0.00    -0.452 C  
BRANCH   8   9
ATOM      9  CG  ASN A   1     -12.389   9.014  72.019  1.00  0.00    -0.384 C  
ATOM     10  ND2 ASN A   1     -12.286   7.805  72.633  1.00  0.00    -0.575 N  
ATOM     11  OD1 ASN A   1     -13.407   9.686  72.161  1.00  0.00    -0.427 OA 
ATOM     12 1HD2 ASN A   1     -13.102   7.434  73.121  1.00  0.00     0.000 HD 
ATOM     13 2HD2 ASN A   1     -11.413   7.279  72.606  1.00  0.00     0.000 HD 
ENDBRANCH   8   9
ENDBRANCH   4   8
TORSDOF 2
ENDMDL
MODEL      115
REMARK 921   NORMALIZED FREE ENERGY PREDICTED BY IDOCK:   -2.66 KCAL/MOL
REMARK 922        TOTAL FREE ENERGY PREDICTED BY IDOCK:   -3.22 KCAL/MOL
REMARK 923 INTER-LIGAND FREE ENERGY PREDICTED BY IDOCK:   -2.77 KCAL/MOL
REMARK 924 INTRA-LIGAND FREE ENERGY PREDICTED BY IDOCK:   -0.45 KCAL/MOL
REMARK 927      BINDING AFFINITY PREDICTED BY RF-SCORE:    0.00 PKD
ROOT
ATOM      1  N   ASN A   1      -9.091  18.602  67.754  1.00  0.00    -0.282 NA 
ATOM      2  H1  ASN A   1      -8.594  19.415  67.391  1.00  0.00     0.000 HD 
ATOM      3  H2  ASN A   1      -9.660  18.838  68.567  1.00  0.00     0.000 HD 
ATOM      4  CA  ASN A   1      -8.131  17.486  68.051  1.00  0.00    -0.237 C  
ATOM      5  OXT ASN A   1      -6.536  16.267  66.650  1.00  0.00    -0.273 OA 
ATOM      6  C   ASN A   1      -7.362  17.158  66.763  1.00  0.00    -0.227 C  
ATOM      7  O   ASN A   1      -7.669  18.023  65.762  1.00  0.00    -0.532 OA 
ENDROOT
BRANCH   4   8
ATOM      8  CB  ASN A   1      -8.874  16.271  68.594  1.00  0.00    -0.226 C  
BRANCH   8   9
ATOM      9  CG  ASN A   1     -10.382  16.371  68.713  1.00  0.00    -0.275 C  
ATOM     10  ND2 ASN A   1     -10.915  16.809  69.886  1.00  0.00    -0.401 N  
ATOM     11  OD1 ASN A   1     -11.113  16.181  67.745  1.00  0.00    -0.323 OA 
ATOM     12 1HD2 ASN A   1     -11.929  16.877  69.966  1.00  0.00     0.000 HD 
ATOM     13 2HD2 ASN A   1     -10.313  17.065  70.669  1.00  0.00     0.000 HD 
ENDBRANCH   8   9
ENDBRANCH   4   8
TORSDOF 2
ENDMDL
MODEL      116
REMARK 921   NORMALIZED FREE ENERGY PREDICTED BY IDOCK:   -2.64 KCAL/MOL
REMARK 922        TOTAL FREE ENERGY PREDICTED BY IDOCK:   -3.21 KCAL/MOL
REMARK 923 INTER-LIGAND FREE ENERGY PREDICTED BY IDOCK:   -2.82 KCAL/MOL
REMARK 924 INTRA-LIGAND FREE ENERGY PREDICTED BY IDOCK:   -0.38 KCAL/MOL
REMARK 927      BINDING AFFINITY PREDICTED BY RF-SCORE:    0.00 PKD
ROOT
ATOM      1  N   ASN A   1     -11.717   8.094  72.947  1.00  0.00    -0.510 NA 
ATOM      2  H1  ASN A   1     -12.106   7.247  73.361  1.00  0.00     0.000 HD 
ATOM      3  H2  ASN A   1     -11.991   8.929  73.464  1.00  0.00     0.000 HD 
ATOM      4  CA  ASN A   1     -12.089   8.190  71.495  1.00  0.00    -0.298 C  
ATOM      5  OXT ASN A   1     -11.689   6.707  69.589  1.00  0.00    -0.298 OA 
ATOM      6  C   ASN A   1     -11.588   6.924  70.786  1.00  0.00    -0.349 C  
ATOM      7  O   ASN A   1     -11.062   6.032  71.665  1.00  0.00    -0.262 OA 
ENDROOT
BRANCH   4   8
ATOM      8  CB  ASN A   1     -11.506   9.456  70.876  1.00  0.00    -0.382 C  
BRANCH   8   9
ATOM      9  CG  ASN A   1     -10.005   9.506  70.672  1.00  0.00    -0.276 C  
ATOM     10  ND2 ASN A   1      -9.526   9.779  69.428  1.00  0.00    -0.188 N  
ATOM     11  OD1 ASN A   1      -9.229   9.424  71.620  1.00  0.00    -0.258 OA 
ATOM     12 1HD2 ASN A   1      -8.516   9.813  69.291  1.00  0.00     0.000 HD 
ATOM     13 2HD2 ASN A   1     -10.162   9.947  68.650  1.00  0.00     0.000 HD 
ENDBRANCH   8   9
ENDBRANCH   4   8
TORSDOF 2
ENDMDL
MODEL      117
REMARK 921   NORMALIZED FREE ENERGY PREDICTED BY IDOCK:   -2.62 KCAL/MOL
REMARK 922        TOTAL FREE ENERGY PREDICTED BY IDOCK:   -3.19 KCAL/MOL
REMARK 923 INTER-LIGAND FREE ENERGY PREDICTED BY IDOCK:   -3.11 KCAL/MOL
REMARK 924 INTRA-LIGAND FREE ENERGY PREDICTED BY IDOCK:   -0.08 KCAL/MOL
REMARK 927      BINDING AFFINITY PREDICTED BY RF-SCORE:    0.00 PKD
ROOT
ATOM      1  N   ASN A   1     -12.226   6.753  72.208  1.00  0.00    -0.509 NA 
ATOM      2  H1  ASN A   1     -13.049   6.462  72.737  1.00  0.00     0.000 HD 
ATOM      3  H2  ASN A   1     -11.426   6.147  72.388  1.00  0.00     0.000 HD 
ATOM      4  CA  ASN A   1     -11.906   8.194  72.482  1.00  0.00    -0.376 C  
ATOM      5  OXT ASN A   1     -13.198  10.254  72.193  1.00  0.00    -0.452 OA 
ATOM      6  C   ASN A   1     -13.140   9.036  72.129  1.00  0.00    -0.435 C  
ATOM      7  O   ASN A   1     -14.198   8.256  71.785  1.00  0.00    -0.414 OA 
ENDROOT
BRANCH   4   8
ATOM      8  CB  ASN A   1     -10.677   8.629  71.691  1.00  0.00    -0.374 C  
BRANCH   8   9
ATOM      9  CG  ASN A   1      -9.335   8.077  72.129  1.00  0.00    -0.190 C  
ATOM     10  ND2 ASN A   1      -8.580   7.403  71.219  1.00  0.00    -0.118 N  
ATOM     11  OD1 ASN A   1      -8.873   8.327  73.239  1.00  0.00    -0.242 OA 
ATOM     12 1HD2 ASN A   1      -7.676   7.032  71.514  1.00  0.00     0.000 HD 
ATOM     13 2HD2 ASN A   1      -8.909   7.272  70.263  1.00  0.00     0.000 HD 
ENDBRANCH   8   9
ENDBRANCH   4   8
TORSDOF 2
ENDMDL
MODEL      118
REMARK 921   NORMALIZED FREE ENERGY PREDICTED BY IDOCK:   -2.62 KCAL/MOL
REMARK 922        TOTAL FREE ENERGY PREDICTED BY IDOCK:   -3.19 KCAL/MOL
REMARK 923 INTER-LIGAND FREE ENERGY PREDICTED BY IDOCK:   -2.83 KCAL/MOL
REMARK 924 INTRA-LIGAND FREE ENERGY PREDICTED BY IDOCK:   -0.36 KCAL/MOL
REMARK 927      BINDING AFFINITY PREDICTED BY RF-SCORE:    0.00 PKD
ROOT
ATOM      1  N   ASN A   1      -8.696   9.812  70.266  1.00  0.00    -0.305 NA 
ATOM      2  H1  ASN A   1      -8.185  10.307  70.997  1.00  0.00     0.000 HD 
ATOM      3  H2  ASN A   1      -8.632  10.291  69.368  1.00  0.00     0.000 HD 
ATOM      4  CA  ASN A   1     -10.122   9.588  70.678  1.00  0.00    -0.286 C  
ATOM      5  OXT ASN A   1     -11.124   8.430  72.588  1.00  0.00    -0.359 OA 
ATOM      6  C   ASN A   1     -10.124   8.813  72.004  1.00  0.00    -0.327 C  
ATOM      7  O   ASN A   1      -8.866   8.647  72.489  1.00  0.00    -0.356 OA 
ENDROOT
BRANCH   4   8
ATOM      8  CB  ASN A   1     -10.885   8.847  69.586  1.00  0.00    -0.186 C  
BRANCH   8   9
ATOM      9  CG  ASN A   1     -10.547   7.385  69.368  1.00  0.00    -0.226 C  
ATOM     10  ND2 ASN A   1     -11.567   6.495  69.234  1.00  0.00    -0.643 N  
ATOM     11  OD1 ASN A   1      -9.389   7.017  69.193  1.00  0.00    -0.142 OA 
ATOM     12 1HD2 ASN A   1     -11.340   5.511  69.087  1.00  0.00     0.000 HD 
ATOM     13 2HD2 ASN A   1     -12.538   6.803  69.279  1.00  0.00     0.000 HD 
ENDBRANCH   8   9
ENDBRANCH   4   8
TORSDOF 2
ENDMDL
MODEL      119
REMARK 921   NORMALIZED FREE ENERGY PREDICTED BY IDOCK:   -2.62 KCAL/MOL
REMARK 922        TOTAL FREE ENERGY PREDICTED BY IDOCK:   -3.18 KCAL/MOL
REMARK 923 INTER-LIGAND FREE ENERGY PREDICTED BY IDOCK:   -3.04 KCAL/MOL
REMARK 924 INTRA-LIGAND FREE ENERGY PREDICTED BY IDOCK:   -0.15 KCAL/MOL
REMARK 927      BINDING AFFINITY PREDICTED BY RF-SCORE:    0.00 PKD
ROOT
ATOM      1  N   ASN A   1     -10.511  17.859  65.665  1.00  0.00    -0.619 NA 
ATOM      2  H1  ASN A   1     -11.033  18.669  65.328  1.00  0.00     0.000 HD 
ATOM      3  H2  ASN A   1     -10.941  16.983  65.372  1.00  0.00     0.000 HD 
ATOM      4  CA  ASN A   1     -10.340  17.926  67.156  1.00  0.00    -0.367 C  
ATOM      5  OXT ASN A   1      -9.305  19.589  68.624  1.00  0.00    -0.363 OA 
ATOM      6  C   ASN A   1      -9.635  19.246  67.500  1.00  0.00    -0.313 C  
ATOM      7  O   ASN A   1      -9.467  20.026  66.401  1.00  0.00    -0.388 OA 
ENDROOT
BRANCH   4   8
ATOM      8  CB  ASN A   1      -9.560  16.717  67.659  1.00  0.00    -0.239 C  
BRANCH   8   9
ATOM      9  CG  ASN A   1      -8.286  16.352  66.923  1.00  0.00    -0.228 C  
ATOM     10  ND2 ASN A   1      -7.655  17.315  66.198  1.00  0.00    -0.310 N  
ATOM     11  OD1 ASN A   1      -7.758  15.253  67.066  1.00  0.00    -0.208 OA 
ATOM     12 1HD2 ASN A   1      -6.797  17.070  65.703  1.00  0.00     0.000 HD 
ATOM     13 2HD2 ASN A   1      -8.030  18.262  66.150  1.00  0.00     0.000 HD 
ENDBRANCH   8   9
ENDBRANCH   4   8
TORSDOF 2
ENDMDL
MODEL      120
REMARK 921   NORMALIZED FREE ENERGY PREDICTED BY IDOCK:   -2.62 KCAL/MOL
REMARK 922        TOTAL FREE ENERGY PREDICTED BY IDOCK:   -3.18 KCAL/MOL
REMARK 923 INTER-LIGAND FREE ENERGY PREDICTED BY IDOCK:   -2.80 KCAL/MOL
REMARK 924 INTRA-LIGAND FREE ENERGY PREDICTED BY IDOCK:   -0.38 KCAL/MOL
REMARK 927      BINDING AFFINITY PREDICTED BY RF-SCORE:    0.00 PKD
ROOT
ATOM      1  N   ASN A   1     -11.481   6.817  67.325  1.00  0.00    -0.729 NA 
ATOM      2  H1  ASN A   1     -11.922   5.916  67.515  1.00  0.00     0.000 HD 
ATOM      3  H2  ASN A   1     -11.359   6.975  66.326  1.00  0.00     0.000 HD 
ATOM      4  CA  ASN A   1     -10.184   6.936  68.072  1.00  0.00    -0.176 C  
ATOM      5  OXT ASN A   1      -9.637   6.826  70.455  1.00  0.00    -0.169 OA 
ATOM      6  C   ASN A   1     -10.471   6.744  69.568  1.00  0.00    -0.220 C  
ATOM      7  O   ASN A   1     -11.768   6.410  69.791  1.00  0.00    -0.414 OA 
ENDROOT
BRANCH   4   8
ATOM      8  CB  ASN A   1      -9.526   8.282  67.788  1.00  0.00    -0.171 C  
BRANCH   8   9
ATOM      9  CG  ASN A   1     -10.167   9.514  68.396  1.00  0.00    -0.194 C  
ATOM     10  ND2 ASN A   1     -11.408   9.879  67.974  1.00  0.00    -0.518 N  
ATOM     11  OD1 ASN A   1      -9.643  10.109  69.335  1.00  0.00    -0.210 OA 
ATOM     12 1HD2 ASN A   1     -11.839  10.708  68.383  1.00  0.00     0.000 HD 
ATOM     13 2HD2 ASN A   1     -11.896   9.335  67.263  1.00  0.00     0.000 HD 
ENDBRANCH   8   9
ENDBRANCH   4   8
TORSDOF 2
ENDMDL
MODEL      121
REMARK 921   NORMALIZED FREE ENERGY PREDICTED BY IDOCK:   -2.61 KCAL/MOL
REMARK 922        TOTAL FREE ENERGY PREDICTED BY IDOCK:   -3.18 KCAL/MOL
REMARK 923 INTER-LIGAND FREE ENERGY PREDICTED BY IDOCK:   -3.02 KCAL/MOL
REMARK 924 INTRA-LIGAND FREE ENERGY PREDICTED BY IDOCK:   -0.16 KCAL/MOL
REMARK 927      BINDING AFFINITY PREDICTED BY RF-SCORE:    0.00 PKD
ROOT
ATOM      1  N   ASN A   1      -9.452   7.300  73.436  1.00  0.00    -0.185 NA 
ATOM      2  H1  ASN A   1      -8.492   7.039  73.211  1.00  0.00     0.000 HD 
ATOM      3  H2  ASN A   1      -9.918   6.586  73.994  1.00  0.00     0.000 HD 
ATOM      4  CA  ASN A   1     -10.219   7.617  72.183  1.00  0.00    -0.207 C  
ATOM      5  OXT ASN A   1      -9.864   9.260  70.404  1.00  0.00    -0.205 OA 
ATOM      6  C   ASN A   1      -9.480   8.738  71.438  1.00  0.00    -0.259 C  
ATOM      7  O   ASN A   1      -8.302   9.048  72.039  1.00  0.00    -0.366 OA 
ENDROOT
BRANCH   4   8
ATOM      8  CB  ASN A   1     -11.653   8.008  72.519  1.00  0.00    -0.464 C  
BRANCH   8   9
ATOM      9  CG  ASN A   1     -12.718   7.715  71.481  1.00  0.00    -0.345 C  
ATOM     10  ND2 ASN A   1     -12.375   6.983  70.386  1.00  0.00    -0.618 N  
ATOM     11  OD1 ASN A   1     -13.893   8.020  71.667  1.00  0.00    -0.366 OA 
ATOM     12 1HD2 ASN A   1     -13.092   6.785  69.687  1.00  0.00     0.000 HD 
ATOM     13 2HD2 ASN A   1     -11.423   6.638  70.267  1.00  0.00     0.000 HD 
ENDBRANCH   8   9
ENDBRANCH   4   8
TORSDOF 2
ENDMDL
MODEL      122
REMARK 921   NORMALIZED FREE ENERGY PREDICTED BY IDOCK:   -2.61 KCAL/MOL
REMARK 922        TOTAL FREE ENERGY PREDICTED BY IDOCK:   -3.17 KCAL/MOL
REMARK 923 INTER-LIGAND FREE ENERGY PREDICTED BY IDOCK:   -2.90 KCAL/MOL
REMARK 924 INTRA-LIGAND FREE ENERGY PREDICTED BY IDOCK:   -0.28 KCAL/MOL
REMARK 927      BINDING AFFINITY PREDICTED BY RF-SCORE:    0.00 PKD
ROOT
ATOM      1  N   ASN A   1     -10.579  10.921  64.581  1.00  0.00    -0.313 NA 
ATOM      2  H1  ASN A   1     -11.062  10.479  63.799  1.00  0.00     0.000 HD 
ATOM      3  H2  ASN A   1     -10.097  10.237  65.163  1.00  0.00     0.000 HD 
ATOM      4  CA  ASN A   1     -11.533  11.761  65.382  1.00  0.00    -0.176 C  
ATOM      5  OXT ASN A   1     -12.953  13.663  64.787  1.00  0.00    -0.685 OA 
ATOM      6  C   ASN A   1     -12.167  12.797  64.443  1.00  0.00    -0.428 C  
ATOM      7  O   ASN A   1     -11.789  12.600  63.152  1.00  0.00    -0.470 OA 
ENDROOT
BRANCH   4   8
ATOM      8  CB  ASN A   1     -10.811  12.421  66.552  1.00  0.00    -0.284 C  
BRANCH   8   9
ATOM      9  CG  ASN A   1      -9.462  11.855  66.948  1.00  0.00    -0.199 C  
ATOM     10  ND2 ASN A   1      -8.419  12.713  67.115  1.00  0.00    -0.194 N  
ATOM     11  OD1 ASN A   1      -9.327  10.668  67.234  1.00  0.00    -0.150 OA 
ATOM     12 1HD2 ASN A   1      -7.511  12.332  67.382  1.00  0.00     0.000 HD 
ATOM     13 2HD2 ASN A   1      -8.542  13.715  66.976  1.00  0.00     0.000 HD 
ENDBRANCH   8   9
ENDBRANCH   4   8
TORSDOF 2
ENDMDL
MODEL      123
REMARK 921   NORMALIZED FREE ENERGY PREDICTED BY IDOCK:   -2.59 KCAL/MOL
REMARK 922        TOTAL FREE ENERGY PREDICTED BY IDOCK:   -3.16 KCAL/MOL
REMARK 923 INTER-LIGAND FREE ENERGY PREDICTED BY IDOCK:   -2.85 KCAL/MOL
REMARK 924 INTRA-LIGAND FREE ENERGY PREDICTED BY IDOCK:   -0.31 KCAL/MOL
REMARK 927      BINDING AFFINITY PREDICTED BY RF-SCORE:    0.00 PKD
ROOT
ATOM      1  N   ASN A   1      -8.708  13.956  66.742  1.00  0.00    -0.422 NA 
ATOM      2  H1  ASN A   1      -7.836  13.921  67.271  1.00  0.00     0.000 HD 
ATOM      3  H2  ASN A   1      -8.651  13.412  65.882  1.00  0.00     0.000 HD 
ATOM      4  CA  ASN A   1      -9.108  15.379  66.478  1.00  0.00    -0.300 C  
ATOM      5  OXT ASN A   1      -9.580  17.263  67.968  1.00  0.00    -0.260 OA 
ATOM      6  C   ASN A   1      -9.227  16.104  67.826  1.00  0.00    -0.202 C  
ATOM      7  O   ASN A   1      -8.834  15.311  68.858  1.00  0.00    -0.182 OA 
ENDROOT
BRANCH   4   8
ATOM      8  CB  ASN A   1     -10.411  15.430  65.689  1.00  0.00    -0.391 C  
BRANCH   8   9
ATOM      9  CG  ASN A   1     -11.444  14.358  65.976  1.00  0.00    -0.349 C  
ATOM     10  ND2 ASN A   1     -11.855  13.559  64.954  1.00  0.00    -0.358 N  
ATOM     11  OD1 ASN A   1     -11.819  14.124  67.122  1.00  0.00    -0.383 OA 
ATOM     12 1HD2 ASN A   1     -12.550  12.838  65.148  1.00  0.00     0.000 HD 
ATOM     13 2HD2 ASN A   1     -11.477  13.679  64.015  1.00  0.00     0.000 HD 
ENDBRANCH   8   9
ENDBRANCH   4   8
TORSDOF 2
ENDMDL
MODEL      124
REMARK 921   NORMALIZED FREE ENERGY PREDICTED BY IDOCK:   -2.59 KCAL/MOL
REMARK 922        TOTAL FREE ENERGY PREDICTED BY IDOCK:   -3.15 KCAL/MOL
REMARK 923 INTER-LIGAND FREE ENERGY PREDICTED BY IDOCK:   -2.71 KCAL/MOL
REMARK 924 INTRA-LIGAND FREE ENERGY PREDICTED BY IDOCK:   -0.44 KCAL/MOL
REMARK 927      BINDING AFFINITY PREDICTED BY RF-SCORE:    0.00 PKD
ROOT
ATOM      1  N   ASN A   1     -11.375   6.667  68.740  1.00  0.00    -0.584 NA 
ATOM      2  H1  ASN A   1     -11.850   5.810  69.024  1.00  0.00     0.000 HD 
ATOM      3  H2  ASN A   1     -11.896   7.499  69.016  1.00  0.00     0.000 HD 
ATOM      4  CA  ASN A   1     -11.096   6.649  67.264  1.00  0.00    -0.345 C  
ATOM      5  OXT ASN A   1      -9.826   5.111  65.845  1.00  0.00    -0.164 OA 
ATOM      6  C   ASN A   1     -10.261   5.400  66.948  1.00  0.00    -0.240 C  
ATOM      7  O   ASN A   1     -10.106   4.610  68.043  1.00  0.00    -0.105 OA 
ENDROOT
BRANCH   4   8
ATOM      8  CB  ASN A   1     -10.386   7.930  66.839  1.00  0.00    -0.400 C  
BRANCH   8   9
ATOM      9  CG  ASN A   1     -10.251   9.029  67.874  1.00  0.00    -0.221 C  
ATOM     10  ND2 ASN A   1     -11.297   9.879  68.061  1.00  0.00    -0.518 N  
ATOM     11  OD1 ASN A   1      -9.276   9.090  68.617  1.00  0.00    -0.136 OA 
ATOM     12 1HD2 ASN A   1     -11.206  10.619  68.757  1.00  0.00     0.000 HD 
ATOM     13 2HD2 ASN A   1     -12.154   9.779  67.517  1.00  0.00     0.000 HD 
ENDBRANCH   8   9
ENDBRANCH   4   8
TORSDOF 2
ENDMDL
MODEL      125
REMARK 921   NORMALIZED FREE ENERGY PREDICTED BY IDOCK:   -2.57 KCAL/MOL
REMARK 922        TOTAL FREE ENERGY PREDICTED BY IDOCK:   -3.13 KCAL/MOL
REMARK 923 INTER-LIGAND FREE ENERGY PREDICTED BY IDOCK:   -2.75 KCAL/MOL
REMARK 924 INTRA-LIGAND FREE ENERGY PREDICTED BY IDOCK:   -0.38 KCAL/MOL
REMARK 927      BINDING AFFINITY PREDICTED BY RF-SCORE:    0.00 PKD
ROOT
ATOM      1  N   ASN A   1      -7.339  19.063  68.840  1.00  0.00    -0.326 NA 
ATOM      2  H1  ASN A   1      -6.787  18.825  69.664  1.00  0.00     0.000 HD 
ATOM      3  H2  ASN A   1      -8.204  19.542  69.090  1.00  0.00     0.000 HD 
ATOM      4  CA  ASN A   1      -7.599  17.841  68.008  1.00  0.00    -0.236 C  
ATOM      5  OXT ASN A   1      -6.103  16.240  66.917  1.00  0.00    -0.313 OA 
ATOM      6  C   ASN A   1      -6.247  17.221  67.629  1.00  0.00    -0.150 C  
ATOM      7  O   ASN A   1      -5.214  17.864  68.233  1.00  0.00    -0.151 OA 
ENDROOT
BRANCH   4   8
ATOM      8  CB  ASN A   1      -8.425  18.198  66.777  1.00  0.00    -0.273 C  
BRANCH   8   9
ATOM      9  CG  ASN A   1      -8.757  19.661  66.560  1.00  0.00    -0.362 C  
ATOM     10  ND2 ASN A   1      -7.851  20.445  65.914  1.00  0.00    -0.540 N  
ATOM     11  OD1 ASN A   1      -9.862  20.114  66.845  1.00  0.00    -0.401 OA 
ATOM     12 1HD2 ASN A   1      -8.074  21.429  65.767  1.00  0.00     0.000 HD 
ATOM     13 2HD2 ASN A   1      -6.968  20.057  65.583  1.00  0.00     0.000 HD 
ENDBRANCH   8   9
ENDBRANCH   4   8
TORSDOF 2
ENDMDL
MODEL      126
REMARK 921   NORMALIZED FREE ENERGY PREDICTED BY IDOCK:   -2.56 KCAL/MOL
REMARK 922        TOTAL FREE ENERGY PREDICTED BY IDOCK:   -3.12 KCAL/MOL
REMARK 923 INTER-LIGAND FREE ENERGY PREDICTED BY IDOCK:   -2.77 KCAL/MOL
REMARK 924 INTRA-LIGAND FREE ENERGY PREDICTED BY IDOCK:   -0.35 KCAL/MOL
REMARK 927      BINDING AFFINITY PREDICTED BY RF-SCORE:    0.00 PKD
ROOT
ATOM      1  N   ASN A   1     -11.873   9.076  70.137  1.00  0.00    -0.453 NA 
ATOM      2  H1  ASN A   1     -12.856   9.000  70.399  1.00  0.00     0.000 HD 
ATOM      3  H2  ASN A   1     -11.760   9.302  69.149  1.00  0.00     0.000 HD 
ATOM      4  CA  ASN A   1     -11.129   7.827  70.512  1.00  0.00    -0.257 C  
ATOM      5  OXT ASN A   1     -10.786   6.692  72.654  1.00  0.00    -0.227 OA 
ATOM      6  C   ASN A   1     -11.303   7.598  72.020  1.00  0.00    -0.278 C  
ATOM      7  O   ASN A   1     -12.158   8.500  72.569  1.00  0.00    -0.389 OA 
ENDROOT
BRANCH   4   8
ATOM      8  CB  ASN A   1      -9.660   7.942  70.121  1.00  0.00    -0.175 C  
BRANCH   8   9
ATOM      9  CG  ASN A   1      -8.942   9.229  70.475  1.00  0.00    -0.250 C  
ATOM     10  ND2 ASN A   1      -9.251  10.359  69.782  1.00  0.00    -0.411 N  
ATOM     11  OD1 ASN A   1      -8.186   9.293  71.441  1.00  0.00    -0.330 OA 
ATOM     12 1HD2 ASN A   1      -8.768  11.225  70.021  1.00  0.00     0.000 HD 
ATOM     13 2HD2 ASN A   1      -9.950  10.340  69.041  1.00  0.00     0.000 HD 
ENDBRANCH   8   9
ENDBRANCH   4   8
TORSDOF 2
ENDMDL
MODEL      127
REMARK 921   NORMALIZED FREE ENERGY PREDICTED BY IDOCK:   -2.56 KCAL/MOL
REMARK 922        TOTAL FREE ENERGY PREDICTED BY IDOCK:   -3.12 KCAL/MOL
REMARK 923 INTER-LIGAND FREE ENERGY PREDICTED BY IDOCK:   -2.72 KCAL/MOL
REMARK 924 INTRA-LIGAND FREE ENERGY PREDICTED BY IDOCK:   -0.40 KCAL/MOL
REMARK 927      BINDING AFFINITY PREDICTED BY RF-SCORE:    0.00 PKD
ROOT
ATOM      1  N   ASN A   1     -12.380   6.972  70.337  1.00  0.00    -0.618 NA 
ATOM      2  H1  ASN A   1     -13.212   7.497  70.609  1.00  0.00     0.000 HD 
ATOM      3  H2  ASN A   1     -12.595   6.251  69.649  1.00  0.00     0.000 HD 
ATOM      4  CA  ASN A   1     -11.698   6.402  71.548  1.00  0.00    -0.313 C  
ATOM      5  OXT ASN A   1     -10.760   7.442  73.555  1.00  0.00    -0.385 OA 
ATOM      6  C   ASN A   1     -11.360   7.559  72.499  1.00  0.00    -0.334 C  
ATOM      7  O   ASN A   1     -11.861   8.739  72.051  1.00  0.00    -0.333 OA 
ENDROOT
BRANCH   4   8
ATOM      8  CB  ASN A   1     -10.455   5.618  71.142  1.00  0.00    -0.306 C  
BRANCH   8   9
ATOM      9  CG  ASN A   1      -9.306   6.398  70.535  1.00  0.00    -0.162 C  
ATOM     10  ND2 ASN A   1      -8.071   6.277  71.093  1.00  0.00    -0.116 N  
ATOM     11  OD1 ASN A   1      -9.444   7.032  69.492  1.00  0.00    -0.148 OA 
ATOM     12 1HD2 ASN A   1      -7.297   6.802  70.684  1.00  0.00     0.000 HD 
ATOM     13 2HD2 ASN A   1      -7.921   5.675  71.902  1.00  0.00     0.000 HD 
ENDBRANCH   8   9
ENDBRANCH   4   8
TORSDOF 2
ENDMDL
MODEL      128
REMARK 921   NORMALIZED FREE ENERGY PREDICTED BY IDOCK:   -2.55 KCAL/MOL
REMARK 922        TOTAL FREE ENERGY PREDICTED BY IDOCK:   -3.11 KCAL/MOL
REMARK 923 INTER-LIGAND FREE ENERGY PREDICTED BY IDOCK:   -2.77 KCAL/MOL
REMARK 924 INTRA-LIGAND FREE ENERGY PREDICTED BY IDOCK:   -0.35 KCAL/MOL
REMARK 927      BINDING AFFINITY PREDICTED BY RF-SCORE:    0.00 PKD
ROOT
ATOM      1  N   ASN A   1     -10.552  11.666  69.463  1.00  0.00    -0.441 NA 
ATOM      2  H1  ASN A   1     -10.518  11.020  70.252  1.00  0.00     0.000 HD 
ATOM      3  H2  ASN A   1     -10.998  12.547  69.714  1.00  0.00     0.000 HD 
ATOM      4  CA  ASN A   1     -11.219  11.021  68.282  1.00  0.00    -0.277 C  
ATOM      5  OXT ASN A   1     -10.706   9.000  66.999  1.00  0.00    -0.242 OA 
ATOM      6  C   ASN A   1     -10.450   9.737  67.938  1.00  0.00    -0.239 C  
ATOM      7  O   ASN A   1      -9.472   9.480  68.845  1.00  0.00    -0.150 OA 
ENDROOT
BRANCH   4   8
ATOM      8  CB  ASN A   1     -11.269  11.986  67.103  1.00  0.00    -0.374 C  
BRANCH   8   9
ATOM      9  CG  ASN A   1     -11.138  13.465  67.407  1.00  0.00    -0.278 C  
ATOM     10  ND2 ASN A   1     -12.101  14.064  68.159  1.00  0.00    -0.511 N  
ATOM     11  OD1 ASN A   1     -10.132  14.095  67.092  1.00  0.00    -0.253 OA 
ATOM     12 1HD2 ASN A   1     -12.013  15.059  68.363  1.00  0.00     0.000 HD 
ATOM     13 2HD2 ASN A   1     -12.895  13.529  68.511  1.00  0.00     0.000 HD 
ENDBRANCH   8   9
ENDBRANCH   4   8
TORSDOF 2
ENDMDL
MODEL      129
REMARK 921   NORMALIZED FREE ENERGY PREDICTED BY IDOCK:   -2.55 KCAL/MOL
REMARK 922        TOTAL FREE ENERGY PREDICTED BY IDOCK:   -3.11 KCAL/MOL
REMARK 923 INTER-LIGAND FREE ENERGY PREDICTED BY IDOCK:   -2.86 KCAL/MOL
REMARK 924 INTRA-LIGAND FREE ENERGY PREDICTED BY IDOCK:   -0.25 KCAL/MOL
REMARK 927      BINDING AFFINITY PREDICTED BY RF-SCORE:    0.00 PKD
ROOT
ATOM      1  N   ASN A   1      -7.928  17.640  65.705  1.00  0.00    -0.541 NA 
ATOM      2  H1  ASN A   1      -8.417  17.235  64.906  1.00  0.00     0.000 HD 
ATOM      3  H2  ASN A   1      -6.956  17.336  65.749  1.00  0.00     0.000 HD 
ATOM      4  CA  ASN A   1      -8.664  17.339  66.980  1.00  0.00    -0.231 C  
ATOM      5  OXT ASN A   1     -10.940  17.841  67.728  1.00  0.00    -0.308 OA 
ATOM      6  C   ASN A   1     -10.094  17.881  66.849  1.00  0.00    -0.348 C  
ATOM      7  O   ASN A   1     -10.333  18.369  65.604  1.00  0.00    -0.605 OA 
ENDROOT
BRANCH   4   8
ATOM      8  CB  ASN A   1      -7.934  17.943  68.174  1.00  0.00    -0.265 C  
BRANCH   8   9
ATOM      9  CG  ASN A   1      -6.658  17.263  68.629  1.00  0.00    -0.186 C  
ATOM     10  ND2 ASN A   1      -5.734  16.917  67.691  1.00  0.00    -0.131 N  
ATOM     11  OD1 ASN A   1      -6.395  17.131  69.821  1.00  0.00    -0.240 OA 
ATOM     12 1HD2 ASN A   1      -4.875  16.460  67.998  1.00  0.00     0.000 HD 
ATOM     13 2HD2 ASN A   1      -5.896  17.111  66.704  1.00  0.00     0.000 HD 
ENDBRANCH   8   9
ENDBRANCH   4   8
TORSDOF 2
ENDMDL
MODEL      130
REMARK 921   NORMALIZED FREE ENERGY PREDICTED BY IDOCK:   -2.53 KCAL/MOL
REMARK 922        TOTAL FREE ENERGY PREDICTED BY IDOCK:   -3.09 KCAL/MOL
REMARK 923 INTER-LIGAND FREE ENERGY PREDICTED BY IDOCK:   -2.70 KCAL/MOL
REMARK 924 INTRA-LIGAND FREE ENERGY PREDICTED BY IDOCK:   -0.38 KCAL/MOL
REMARK 927      BINDING AFFINITY PREDICTED BY RF-SCORE:    0.00 PKD
ROOT
ATOM      1  N   ASN A   1      -9.300  18.410  68.558  1.00  0.00    -0.327 NA 
ATOM      2  H1  ASN A   1      -9.339  18.410  69.577  1.00  0.00     0.000 HD 
ATOM      3  H2  ASN A   1     -10.092  17.917  68.148  1.00  0.00     0.000 HD 
ATOM      4  CA  ASN A   1      -7.989  17.854  68.081  1.00  0.00    -0.265 C  
ATOM      5  OXT ASN A   1      -5.670  18.528  68.477  1.00  0.00    -0.184 OA 
ATOM      6  C   ASN A   1      -6.859  18.689  68.698  1.00  0.00    -0.275 C  
ATOM      7  O   ASN A   1      -7.337  19.608  69.578  1.00  0.00    -0.308 OA 
ENDROOT
BRANCH   4   8
ATOM      8  CB  ASN A   1      -7.930  17.855  66.558  1.00  0.00    -0.303 C  
BRANCH   8   9
ATOM      9  CG  ASN A   1      -7.960  19.200  65.860  1.00  0.00    -0.105 C  
ATOM     10  ND2 ASN A   1      -8.990  20.049  66.124  1.00  0.00    -0.531 N  
ATOM     11  OD1 ASN A   1      -7.022  19.579  65.163  1.00  0.00    -0.407 OA 
ATOM     12 1HD2 ASN A   1      -9.010  20.954  65.654  1.00  0.00     0.000 HD 
ATOM     13 2HD2 ASN A   1      -9.727  19.786  66.778  1.00  0.00     0.000 HD 
ENDBRANCH   8   9
ENDBRANCH   4   8
TORSDOF 2
ENDMDL
MODEL      131
REMARK 921   NORMALIZED FREE ENERGY PREDICTED BY IDOCK:   -2.53 KCAL/MOL
REMARK 922        TOTAL FREE ENERGY PREDICTED BY IDOCK:   -3.08 KCAL/MOL
REMARK 923 INTER-LIGAND FREE ENERGY PREDICTED BY IDOCK:   -2.74 KCAL/MOL
REMARK 924 INTRA-LIGAND FREE ENERGY PREDICTED BY IDOCK:   -0.34 KCAL/MOL
REMARK 927      BINDING AFFINITY PREDICTED BY RF-SCORE:    0.00 PKD
ROOT
ATOM      1  N   ASN A   1      -9.208  10.891  69.517  1.00  0.00    -0.385 NA 
ATOM      2  H1  ASN A   1      -8.310  10.507  69.222  1.00  0.00     0.000 HD 
ATOM      3  H2  ASN A   1      -9.093  11.711  70.111  1.00  0.00     0.000 HD 
ATOM      4  CA  ASN A   1     -10.041   9.833  70.182  1.00  0.00    -0.265 C  
ATOM      5  OXT ASN A   1     -10.874   7.664  69.411  1.00  0.00    -0.212 OA 
ATOM      6  C   ASN A   1     -10.212   8.666  69.198  1.00  0.00    -0.208 C  
ATOM      7  O   ASN A   1      -9.484   8.854  68.066  1.00  0.00    -0.141 OA 
ENDROOT
BRANCH   4   8
ATOM      8  CB  ASN A   1     -11.383  10.406  70.621  1.00  0.00    -0.411 C  
BRANCH   8   9
ATOM      9  CG  ASN A   1     -11.893  11.630  69.887  1.00  0.00    -0.358 C  
ATOM     10  ND2 ASN A   1     -12.217  12.736  70.611  1.00  0.00    -0.452 N  
ATOM     11  OD1 ASN A   1     -11.904  11.680  68.660  1.00  0.00    -0.309 OA 
ATOM     12 1HD2 ASN A   1     -12.560  13.560  70.116  1.00  0.00     0.000 HD 
ATOM     13 2HD2 ASN A   1     -12.119  12.742  71.626  1.00  0.00     0.000 HD 
ENDBRANCH   8   9
ENDBRANCH   4   8
TORSDOF 2
ENDMDL
MODEL      132
REMARK 921   NORMALIZED FREE ENERGY PREDICTED BY IDOCK:   -2.53 KCAL/MOL
REMARK 922        TOTAL FREE ENERGY PREDICTED BY IDOCK:   -3.08 KCAL/MOL
REMARK 923 INTER-LIGAND FREE ENERGY PREDICTED BY IDOCK:   -2.86 KCAL/MOL
REMARK 924 INTRA-LIGAND FREE ENERGY PREDICTED BY IDOCK:   -0.22 KCAL/MOL
REMARK 927      BINDING AFFINITY PREDICTED BY RF-SCORE:    0.00 PKD
ROOT
ATOM      1  N   ASN A   1     -10.273   6.410  69.782  1.00  0.00    -0.178 NA 
ATOM      2  H1  ASN A   1      -9.726   6.761  68.995  1.00  0.00     0.000 HD 
ATOM      3  H2  ASN A   1     -10.750   5.539  69.553  1.00  0.00     0.000 HD 
ATOM      4  CA  ASN A   1     -11.230   7.459  70.269  1.00  0.00    -0.247 C  
ATOM      5  OXT ASN A   1     -10.896   9.730  71.120  1.00  0.00    -0.334 OA 
ATOM      6  C   ASN A   1     -10.423   8.709  70.646  1.00  0.00    -0.204 C  
ATOM      7  O   ASN A   1      -9.108   8.570  70.334  1.00  0.00    -0.143 OA 
ENDROOT
BRANCH   4   8
ATOM      8  CB  ASN A   1     -12.047   6.934  71.444  1.00  0.00    -0.408 C  
BRANCH   8   9
ATOM      9  CG  ASN A   1     -13.367   7.618  71.738  1.00  0.00    -0.315 C  
ATOM     10  ND2 ASN A   1     -13.384   8.643  72.633  1.00  0.00    -0.657 N  
ATOM     11  OD1 ASN A   1     -14.382   7.346  71.103  1.00  0.00    -0.373 OA 
ATOM     12 1HD2 ASN A   1     -14.273   9.103  72.831  1.00  0.00     0.000 HD 
ATOM     13 2HD2 ASN A   1     -12.528   8.945  73.096  1.00  0.00     0.000 HD 
ENDBRANCH   8   9
ENDBRANCH   4   8
TORSDOF 2
ENDMDL
MODEL      133
REMARK 921   NORMALIZED FREE ENERGY PREDICTED BY IDOCK:   -2.51 KCAL/MOL
REMARK 922        TOTAL FREE ENERGY PREDICTED BY IDOCK:   -3.06 KCAL/MOL
REMARK 923 INTER-LIGAND FREE ENERGY PREDICTED BY IDOCK:   -2.69 KCAL/MOL
REMARK 924 INTRA-LIGAND FREE ENERGY PREDICTED BY IDOCK:   -0.37 KCAL/MOL
REMARK 927      BINDING AFFINITY PREDICTED BY RF-SCORE:    0.00 PKD
ROOT
ATOM      1  N   ASN A   1     -11.241   6.230  66.704  1.00  0.00    -0.753 NA 
ATOM      2  H1  ASN A   1     -11.290   5.960  65.722  1.00  0.00     0.000 HD 
ATOM      3  H2  ASN A   1     -11.759   7.090  66.887  1.00  0.00     0.000 HD 
ATOM      4  CA  ASN A   1      -9.811   6.335  67.151  1.00  0.00    -0.142 C  
ATOM      5  OXT ASN A   1      -7.973   4.718  67.189  1.00  0.00    -0.101 OA 
ATOM      6  C   ASN A   1      -9.128   4.984  66.895  1.00  0.00    -0.117 C  
ATOM      7  O   ASN A   1      -9.950   4.122  66.243  1.00  0.00    -0.216 OA 
ENDROOT
BRANCH   4   8
ATOM      8  CB  ASN A   1      -9.739   6.739  68.620  1.00  0.00    -0.131 C  
BRANCH   8   9
ATOM      9  CG  ASN A   1     -10.747   6.117  69.566  1.00  0.00    -0.320 C  
ATOM     10  ND2 ASN A   1     -11.958   6.718  69.713  1.00  0.00    -0.647 N  
ATOM     11  OD1 ASN A   1     -10.535   5.032  70.100  1.00  0.00    -0.267 OA 
ATOM     12 1HD2 ASN A   1     -12.637   6.299  70.349  1.00  0.00     0.000 HD 
ATOM     13 2HD2 ASN A   1     -12.184   7.569  69.198  1.00  0.00     0.000 HD 
ENDBRANCH   8   9
ENDBRANCH   4   8
TORSDOF 2
ENDMDL
MODEL      134
REMARK 921   NORMALIZED FREE ENERGY PREDICTED BY IDOCK:   -2.50 KCAL/MOL
REMARK 922        TOTAL FREE ENERGY PREDICTED BY IDOCK:   -3.06 KCAL/MOL
REMARK 923 INTER-LIGAND FREE ENERGY PREDICTED BY IDOCK:   -2.82 KCAL/MOL
REMARK 924 INTRA-LIGAND FREE ENERGY PREDICTED BY IDOCK:   -0.24 KCAL/MOL
REMARK 927      BINDING AFFINITY PREDICTED BY RF-SCORE:    0.00 PKD
ROOT
ATOM      1  N   ASN A   1     -11.046  10.081  68.171  1.00  0.00    -0.457 NA 
ATOM      2  H1  ASN A   1     -10.707   9.497  68.936  1.00  0.00     0.000 HD 
ATOM      3  H2  ASN A   1     -10.450  10.009  67.347  1.00  0.00     0.000 HD 
ATOM      4  CA  ASN A   1     -11.201  11.505  68.624  1.00  0.00    -0.248 C  
ATOM      5  OXT ASN A   1     -12.530  12.533  70.404  1.00  0.00    -0.242 OA 
ATOM      6  C   ASN A   1     -12.156  11.526  69.826  1.00  0.00    -0.306 C  
ATOM      7  O   ASN A   1     -12.500  10.270  70.215  1.00  0.00    -0.252 OA 
ENDROOT
BRANCH   4   8
ATOM      8  CB  ASN A   1     -11.707  12.378  67.481  1.00  0.00    -0.425 C  
BRANCH   8   9
ATOM      9  CG  ASN A   1     -10.969  12.293  66.160  1.00  0.00    -0.293 C  
ATOM     10  ND2 ASN A   1     -11.674  12.462  65.008  1.00  0.00    -0.359 N  
ATOM     11  OD1 ASN A   1      -9.745  12.198  66.117  1.00  0.00    -0.232 OA 
ATOM     12 1HD2 ASN A   1     -11.177  12.405  64.119  1.00  0.00     0.000 HD 
ATOM     13 2HD2 ASN A   1     -12.678  12.640  65.033  1.00  0.00     0.000 HD 
ENDBRANCH   8   9
ENDBRANCH   4   8
TORSDOF 2
ENDMDL
MODEL      135
REMARK 921   NORMALIZED FREE ENERGY PREDICTED BY IDOCK:   -2.50 KCAL/MOL
REMARK 922        TOTAL FREE ENERGY PREDICTED BY IDOCK:   -3.05 KCAL/MOL
REMARK 923 INTER-LIGAND FREE ENERGY PREDICTED BY IDOCK:   -2.66 KCAL/MOL
REMARK 924 INTRA-LIGAND FREE ENERGY PREDICTED BY IDOCK:   -0.39 KCAL/MOL
REMARK 927      BINDING AFFINITY PREDICTED BY RF-SCORE:    0.00 PKD
ROOT
ATOM      1  N   ASN A   1     -10.008   4.468  71.304  1.00  0.00    -0.195 NA 
ATOM      2  H1  ASN A   1      -9.961   3.718  71.994  1.00  0.00     0.000 HD 
ATOM      3  H2  ASN A   1      -9.415   4.279  70.497  1.00  0.00     0.000 HD 
ATOM      4  CA  ASN A   1      -9.682   5.789  71.939  1.00  0.00    -0.159 C  
ATOM      5  OXT ASN A   1     -10.693   7.019  73.798  1.00  0.00    -0.360 OA 
ATOM      6  C   ASN A   1     -10.658   6.018  73.102  1.00  0.00    -0.246 C  
ATOM      7  O   ASN A   1     -11.456   4.937  73.307  1.00  0.00    -0.336 OA 
ENDROOT
BRANCH   4   8
ATOM      8  CB  ASN A   1      -9.752   6.910  70.909  1.00  0.00    -0.183 C  
BRANCH   8   9
ATOM      9  CG  ASN A   1     -11.056   7.085  70.156  1.00  0.00    -0.285 C  
ATOM     10  ND2 ASN A   1     -11.720   8.268  70.271  1.00  0.00    -0.470 N  
ATOM     11  OD1 ASN A   1     -11.455   6.237  69.364  1.00  0.00    -0.427 OA 
ATOM     12 1HD2 ASN A   1     -12.598   8.386  69.764  1.00  0.00     0.000 HD 
ATOM     13 2HD2 ASN A   1     -11.349   9.020  70.850  1.00  0.00     0.000 HD 
ENDBRANCH   8   9
ENDBRANCH   4   8
TORSDOF 2
ENDMDL
MODEL      136
REMARK 921   NORMALIZED FREE ENERGY PREDICTED BY IDOCK:   -2.50 KCAL/MOL
REMARK 922        TOTAL FREE ENERGY PREDICTED BY IDOCK:   -3.05 KCAL/MOL
REMARK 923 INTER-LIGAND FREE ENERGY PREDICTED BY IDOCK:   -2.98 KCAL/MOL
REMARK 924 INTRA-LIGAND FREE ENERGY PREDICTED BY IDOCK:   -0.07 KCAL/MOL
REMARK 927      BINDING AFFINITY PREDICTED BY RF-SCORE:    0.00 PKD
ROOT
ATOM      1  N   ASN A   1      -8.705  10.009  70.089  1.00  0.00    -0.347 NA 
ATOM      2  H1  ASN A   1      -8.414  10.338  71.010  1.00  0.00     0.000 HD 
ATOM      3  H2  ASN A   1      -8.197  10.481  69.341  1.00  0.00     0.000 HD 
ATOM      4  CA  ASN A   1     -10.192  10.146  69.926  1.00  0.00    -0.237 C  
ATOM      5  OXT ASN A   1     -12.079   9.230  71.187  1.00  0.00    -0.297 OA 
ATOM      6  C   ASN A   1     -10.873   9.360  71.056  1.00  0.00    -0.336 C  
ATOM      7  O   ASN A   1      -9.968   8.865  71.939  1.00  0.00    -0.322 OA 
ENDROOT
BRANCH   4   8
ATOM      8  CB  ASN A   1     -10.626   9.655  68.550  1.00  0.00    -0.253 C  
BRANCH   8   9
ATOM      9  CG  ASN A   1     -11.017  10.703  67.527  1.00  0.00    -0.310 C  
ATOM     10  ND2 ASN A   1     -10.334  10.750  66.350  1.00  0.00    -0.246 N  
ATOM     11  OD1 ASN A   1     -12.001  11.419  67.689  1.00  0.00    -0.630 OA 
ATOM     12 1HD2 ASN A   1     -10.597  11.455  65.662  1.00  0.00     0.000 HD 
ATOM     13 2HD2 ASN A   1      -9.576  10.095  66.161  1.00  0.00     0.000 HD 
ENDBRANCH   8   9
ENDBRANCH   4   8
TORSDOF 2
ENDMDL
MODEL      137
REMARK 921   NORMALIZED FREE ENERGY PREDICTED BY IDOCK:   -2.49 KCAL/MOL
REMARK 922        TOTAL FREE ENERGY PREDICTED BY IDOCK:   -3.04 KCAL/MOL
REMARK 923 INTER-LIGAND FREE ENERGY PREDICTED BY IDOCK:   -2.91 KCAL/MOL
REMARK 924 INTRA-LIGAND FREE ENERGY PREDICTED BY IDOCK:   -0.13 KCAL/MOL
REMARK 927      BINDING AFFINITY PREDICTED BY RF-SCORE:    0.00 PKD
ROOT
ATOM      1  N   ASN A   1     -10.574   5.414  72.160  1.00  0.00    -0.222 NA 
ATOM      2  H1  ASN A   1      -9.947   5.462  72.964  1.00  0.00     0.000 HD 
ATOM      3  H2  ASN A   1     -10.395   4.590  71.588  1.00  0.00     0.000 HD 
ATOM      4  CA  ASN A   1     -10.498   6.680  71.355  1.00  0.00    -0.214 C  
ATOM      5  OXT ASN A   1     -10.911   9.024  71.925  1.00  0.00    -0.350 OA 
ATOM      6  C   ASN A   1     -10.839   7.858  72.278  1.00  0.00    -0.293 C  
ATOM      7  O   ASN A   1     -10.999   7.456  73.566  1.00  0.00    -0.344 OA 
ENDROOT
BRANCH   4   8
ATOM      8  CB  ASN A   1     -11.435   6.608  70.155  1.00  0.00    -0.444 C  
BRANCH   8   9
ATOM      9  CG  ASN A   1     -10.887   7.055  68.815  1.00  0.00    -0.157 C  
ATOM     10  ND2 ASN A   1     -11.379   6.477  67.685  1.00  0.00    -0.702 N  
ATOM     11  OD1 ASN A   1     -10.108   7.999  68.726  1.00  0.00    -0.185 OA 
ATOM     12 1HD2 ASN A   1     -11.011   6.778  66.783  1.00  0.00     0.000 HD 
ATOM     13 2HD2 ASN A   1     -12.100   5.758  67.739  1.00  0.00     0.000 HD 
ENDBRANCH   8   9
ENDBRANCH   4   8
TORSDOF 2
ENDMDL
MODEL      138
REMARK 921   NORMALIZED FREE ENERGY PREDICTED BY IDOCK:   -2.48 KCAL/MOL
REMARK 922        TOTAL FREE ENERGY PREDICTED BY IDOCK:   -3.03 KCAL/MOL
REMARK 923 INTER-LIGAND FREE ENERGY PREDICTED BY IDOCK:   -2.57 KCAL/MOL
REMARK 924 INTRA-LIGAND FREE ENERGY PREDICTED BY IDOCK:   -0.46 KCAL/MOL
REMARK 927      BINDING AFFINITY PREDICTED BY RF-SCORE:    0.00 PKD
ROOT
ATOM      1  N   ASN A   1     -10.966   8.224  68.241  1.00  0.00    -0.435 NA 
ATOM      2  H1  ASN A   1     -10.935   7.339  67.735  1.00  0.00     0.000 HD 
ATOM      3  H2  ASN A   1     -10.682   9.007  67.653  1.00  0.00     0.000 HD 
ATOM      4  CA  ASN A   1     -10.146   8.143  69.496  1.00  0.00    -0.193 C  
ATOM      5  OXT ASN A   1     -10.261   6.672  71.449  1.00  0.00    -0.198 OA 
ATOM      6  C   ASN A   1     -10.679   6.980  70.345  1.00  0.00    -0.234 C  
ATOM      7  O   ASN A   1     -11.647   6.286  69.692  1.00  0.00    -0.430 OA 
ENDROOT
BRANCH   4   8
ATOM      8  CB  ASN A   1     -10.192   9.466  70.252  1.00  0.00    -0.295 C  
BRANCH   8   9
ATOM      9  CG  ASN A   1     -11.119  10.541  69.720  1.00  0.00    -0.295 C  
ATOM     10  ND2 ASN A   1     -10.625  11.446  68.831  1.00  0.00    -0.203 N  
ATOM     11  OD1 ASN A   1     -12.319  10.536  69.981  1.00  0.00    -0.284 OA 
ATOM     12 1HD2 ASN A   1     -11.250  12.169  68.473  1.00  0.00     0.000 HD 
ATOM     13 2HD2 ASN A   1      -9.653  11.402  68.529  1.00  0.00     0.000 HD 
ENDBRANCH   8   9
ENDBRANCH   4   8
TORSDOF 2
ENDMDL
MODEL      139
REMARK 921   NORMALIZED FREE ENERGY PREDICTED BY IDOCK:   -2.47 KCAL/MOL
REMARK 922        TOTAL FREE ENERGY PREDICTED BY IDOCK:   -3.02 KCAL/MOL
REMARK 923 INTER-LIGAND FREE ENERGY PREDICTED BY IDOCK:   -2.94 KCAL/MOL
REMARK 924 INTRA-LIGAND FREE ENERGY PREDICTED BY IDOCK:   -0.08 KCAL/MOL
REMARK 927      BINDING AFFINITY PREDICTED BY RF-SCORE:    0.00 PKD
ROOT
ATOM      1  N   ASN A   1     -11.224  15.388  69.668  1.00  0.00    -0.260 NA 
ATOM      2  H1  ASN A   1     -10.653  16.159  70.014  1.00  0.00     0.000 HD 
ATOM      3  H2  ASN A   1     -11.421  14.704  70.398  1.00  0.00     0.000 HD 
ATOM      4  CA  ASN A   1     -10.580  14.752  68.469  1.00  0.00    -0.248 C  
ATOM      5  OXT ASN A   1      -9.916  15.643  66.288  1.00  0.00    -0.260 OA 
ATOM      6  C   ASN A   1     -10.375  15.836  67.401  1.00  0.00    -0.282 C  
ATOM      7  O   ASN A   1     -10.717  17.067  67.865  1.00  0.00    -0.356 OA 
ENDROOT
BRANCH   4   8
ATOM      8  CB  ASN A   1     -11.432  13.599  67.952  1.00  0.00    -0.348 C  
BRANCH   8   9
ATOM      9  CG  ASN A   1     -11.205  12.232  68.566  1.00  0.00    -0.271 C  
ATOM     10  ND2 ASN A   1     -10.012  11.981  69.171  1.00  0.00    -0.397 N  
ATOM     11  OD1 ASN A   1     -12.108  11.403  68.632  1.00  0.00    -0.518 OA 
ATOM     12 1HD2 ASN A   1      -9.859  11.061  69.585  1.00  0.00     0.000 HD 
ATOM     13 2HD2 ASN A   1      -9.287  12.697  69.211  1.00  0.00     0.000 HD 
ENDBRANCH   8   9
ENDBRANCH   4   8
TORSDOF 2
ENDMDL
MODEL      140
REMARK 921   NORMALIZED FREE ENERGY PREDICTED BY IDOCK:   -2.46 KCAL/MOL
REMARK 922        TOTAL FREE ENERGY PREDICTED BY IDOCK:   -3.01 KCAL/MOL
REMARK 923 INTER-LIGAND FREE ENERGY PREDICTED BY IDOCK:   -2.76 KCAL/MOL
REMARK 924 INTRA-LIGAND FREE ENERGY PREDICTED BY IDOCK:   -0.24 KCAL/MOL
REMARK 927      BINDING AFFINITY PREDICTED BY RF-SCORE:    0.00 PKD
ROOT
ATOM      1  N   ASN A   1      -9.914  17.235  65.605  1.00  0.00    -0.567 NA 
ATOM      2  H1  ASN A   1     -10.680  16.727  65.162  1.00  0.00     0.000 HD 
ATOM      3  H2  ASN A   1      -9.460  17.878  64.957  1.00  0.00     0.000 HD 
ATOM      4  CA  ASN A   1      -8.934  16.279  66.221  1.00  0.00    -0.331 C  
ATOM      5  OXT ASN A   1      -9.176  14.541  67.928  1.00  0.00    -0.187 OA 
ATOM      6  C   ASN A   1      -9.690  15.394  67.223  1.00  0.00    -0.212 C  
ATOM      7  O   ASN A   1     -11.027  15.634  67.194  1.00  0.00    -0.319 OA 
ENDROOT
BRANCH   4   8
ATOM      8  CB  ASN A   1      -7.790  17.038  66.883  1.00  0.00    -0.249 C  
BRANCH   8   9
ATOM      9  CG  ASN A   1      -7.133  18.146  66.085  1.00  0.00    -0.281 C  
ATOM     10  ND2 ASN A   1      -5.861  17.961  65.637  1.00  0.00    -0.175 N  
ATOM     11  OD1 ASN A   1      -7.762  19.142  65.738  1.00  0.00    -0.443 OA 
ATOM     12 1HD2 ASN A   1      -5.420  18.706  65.100  1.00  0.00     0.000 HD 
ATOM     13 2HD2 ASN A   1      -5.361  17.095  65.835  1.00  0.00     0.000 HD 
ENDBRANCH   8   9
ENDBRANCH   4   8
TORSDOF 2
ENDMDL
MODEL      141
REMARK 921   NORMALIZED FREE ENERGY PREDICTED BY IDOCK:   -2.46 KCAL/MOL
REMARK 922        TOTAL FREE ENERGY PREDICTED BY IDOCK:   -3.01 KCAL/MOL
REMARK 923 INTER-LIGAND FREE ENERGY PREDICTED BY IDOCK:   -2.75 KCAL/MOL
REMARK 924 INTRA-LIGAND FREE ENERGY PREDICTED BY IDOCK:   -0.25 KCAL/MOL
REMARK 927      BINDING AFFINITY PREDICTED BY RF-SCORE:    0.00 PKD
ROOT
ATOM      1  N   ASN A   1      -9.574   5.945  70.529  1.00  0.00    -0.170 NA 
ATOM      2  H1  ASN A   1      -8.874   5.354  70.079  1.00  0.00     0.000 HD 
ATOM      3  H2  ASN A   1      -9.729   5.677  71.500  1.00  0.00     0.000 HD 
ATOM      4  CA  ASN A   1     -10.851   5.943  69.738  1.00  0.00    -0.377 C  
ATOM      5  OXT ASN A   1     -11.361   6.569  67.427  1.00  0.00    -0.304 OA 
ATOM      6  C   ASN A   1     -10.534   6.414  68.312  1.00  0.00    -0.223 C  
ATOM      7  O   ASN A   1      -9.200   6.588  68.126  1.00  0.00    -0.115 OA 
ENDROOT
BRANCH   4   8
ATOM      8  CB  ASN A   1     -11.896   6.826  70.410  1.00  0.00    -0.395 C  
BRANCH   8   9
ATOM      9  CG  ASN A   1     -11.970   6.793  71.923  1.00  0.00    -0.333 C  
ATOM     10  ND2 ASN A   1     -12.061   7.972  72.597  1.00  0.00    -0.593 N  
ATOM     11  OD1 ASN A   1     -12.069   5.732  72.534  1.00  0.00    -0.241 OA 
ATOM     12 1HD2 ASN A   1     -12.111   7.949  73.616  1.00  0.00     0.000 HD 
ATOM     13 2HD2 ASN A   1     -12.079   8.859  72.095  1.00  0.00     0.000 HD 
ENDBRANCH   8   9
ENDBRANCH   4   8
TORSDOF 2
ENDMDL
MODEL      142
REMARK 921   NORMALIZED FREE ENERGY PREDICTED BY IDOCK:   -2.46 KCAL/MOL
REMARK 922        TOTAL FREE ENERGY PREDICTED BY IDOCK:   -3.00 KCAL/MOL
REMARK 923 INTER-LIGAND FREE ENERGY PREDICTED BY IDOCK:   -2.62 KCAL/MOL
REMARK 924 INTRA-LIGAND FREE ENERGY PREDICTED BY IDOCK:   -0.38 KCAL/MOL
REMARK 927      BINDING AFFINITY PREDICTED BY RF-SCORE:    0.00 PKD
ROOT
ATOM      1  N   ASN A   1      -9.828   8.653  72.321  1.00  0.00    -0.309 NA 
ATOM      2  H1  ASN A   1      -9.060   9.286  72.098  1.00  0.00     0.000 HD 
ATOM      3  H2  ASN A   1      -9.651   8.128  73.177  1.00  0.00     0.000 HD 
ATOM      4  CA  ASN A   1     -10.115   7.745  71.160  1.00  0.00    -0.187 C  
ATOM      5  OXT ASN A   1     -10.749   8.188  68.837  1.00  0.00    -0.176 OA 
ATOM      6  C   ASN A   1     -10.428   8.615  69.934  1.00  0.00    -0.218 C  
ATOM      7  O   ASN A   1     -10.250   9.936  70.199  1.00  0.00    -0.254 OA 
ENDROOT
BRANCH   4   8
ATOM      8  CB  ASN A   1     -11.263   6.798  71.492  1.00  0.00    -0.300 C  
BRANCH   8   9
ATOM      9  CG  ASN A   1     -12.616   7.417  71.783  1.00  0.00    -0.335 C  
ATOM     10  ND2 ASN A   1     -12.708   8.346  72.773  1.00  0.00    -0.607 N  
ATOM     11  OD1 ASN A   1     -13.590   7.187  71.071  1.00  0.00    -0.235 OA 
ATOM     12 1HD2 ASN A   1     -13.619   8.763  72.968  1.00  0.00     0.000 HD 
ATOM     13 2HD2 ASN A   1     -11.885   8.620  73.309  1.00  0.00     0.000 HD 
ENDBRANCH   8   9
ENDBRANCH   4   8
TORSDOF 2
ENDMDL
MODEL      143
REMARK 921   NORMALIZED FREE ENERGY PREDICTED BY IDOCK:   -2.43 KCAL/MOL
REMARK 922        TOTAL FREE ENERGY PREDICTED BY IDOCK:   -2.97 KCAL/MOL
REMARK 923 INTER-LIGAND FREE ENERGY PREDICTED BY IDOCK:   -2.61 KCAL/MOL
REMARK 924 INTRA-LIGAND FREE ENERGY PREDICTED BY IDOCK:   -0.36 KCAL/MOL
REMARK 927      BINDING AFFINITY PREDICTED BY RF-SCORE:    0.00 PKD
ROOT
ATOM      1  N   ASN A   1     -11.465   6.923  73.125  1.00  0.00    -0.509 NA 
ATOM      2  H1  ASN A   1     -11.786   7.884  73.009  1.00  0.00     0.000 HD 
ATOM      3  H2  ASN A   1     -10.885   6.815  73.957  1.00  0.00     0.000 HD 
ATOM      4  CA  ASN A   1     -10.757   6.451  71.887  1.00  0.00    -0.224 C  
ATOM      5  OXT ASN A   1     -11.470   6.256  69.553  1.00  0.00    -0.428 OA 
ATOM      6  C   ASN A   1     -11.719   6.594  70.699  1.00  0.00    -0.394 C  
ATOM      7  O   ASN A   1     -12.878   7.203  71.063  1.00  0.00    -0.341 OA 
ENDROOT
BRANCH   4   8
ATOM      8  CB  ASN A   1     -10.278   5.014  72.060  1.00  0.00    -0.262 C  
BRANCH   8   9
ATOM      9  CG  ASN A   1     -10.422   4.392  73.435  1.00  0.00    -0.195 C  
ATOM     10  ND2 ASN A   1     -11.440   3.514  73.649  1.00  0.00    -0.141 N  
ATOM     11  OD1 ASN A   1      -9.577   4.570  74.308  1.00  0.00    -0.116 OA 
ATOM     12 1HD2 ASN A   1     -11.536   3.095  74.574  1.00  0.00     0.000 HD 
ATOM     13 2HD2 ASN A   1     -12.092   3.281  72.901  1.00  0.00     0.000 HD 
ENDBRANCH   8   9
ENDBRANCH   4   8
TORSDOF 2
ENDMDL
MODEL      144
REMARK 921   NORMALIZED FREE ENERGY PREDICTED BY IDOCK:   -2.39 KCAL/MOL
REMARK 922        TOTAL FREE ENERGY PREDICTED BY IDOCK:   -2.93 KCAL/MOL
REMARK 923 INTER-LIGAND FREE ENERGY PREDICTED BY IDOCK:   -2.55 KCAL/MOL
REMARK 924 INTRA-LIGAND FREE ENERGY PREDICTED BY IDOCK:   -0.38 KCAL/MOL
REMARK 927      BINDING AFFINITY PREDICTED BY RF-SCORE:    0.00 PKD
ROOT
ATOM      1  N   ASN A   1      -8.530   8.719  65.882  1.00  0.00    -0.135 NA 
ATOM      2  H1  ASN A   1      -8.408   7.975  66.570  1.00  0.00     0.000 HD 
ATOM      3  H2  ASN A   1      -7.655   8.945  65.409  1.00  0.00     0.000 HD 
ATOM      4  CA  ASN A   1      -9.148   9.930  66.520  1.00  0.00    -0.152 C  
ATOM      5  OXT ASN A   1     -11.258  10.269  67.713  1.00  0.00    -0.306 OA 
ATOM      6  C   ASN A   1     -10.483   9.512  67.153  1.00  0.00    -0.253 C  
ATOM      7  O   ASN A   1     -10.679   8.170  67.068  1.00  0.00    -0.321 OA 
ENDROOT
BRANCH   4   8
ATOM      8  CB  ASN A   1      -9.331  11.041  65.492  1.00  0.00    -0.242 C  
BRANCH   8   9
ATOM      9  CG  ASN A   1     -10.169  10.728  64.268  1.00  0.00    -0.354 C  
ATOM     10  ND2 ASN A   1      -9.731   9.770  63.407  1.00  0.00    -0.467 N  
ATOM     11  OD1 ASN A   1     -11.277  11.233  64.107  1.00  0.00    -0.321 OA 
ATOM     12 1HD2 ASN A   1     -10.295   9.559  62.583  1.00  0.00     0.000 HD 
ATOM     13 2HD2 ASN A   1      -8.859   9.272  63.581  1.00  0.00     0.000 HD 
ENDBRANCH   8   9
ENDBRANCH   4   8
TORSDOF 2
ENDMDL
MODEL      145
REMARK 921   NORMALIZED FREE ENERGY PREDICTED BY IDOCK:   -2.38 KCAL/MOL
REMARK 922        TOTAL FREE ENERGY PREDICTED BY IDOCK:   -2.92 KCAL/MOL
REMARK 923 INTER-LIGAND FREE ENERGY PREDICTED BY IDOCK:   -2.55 KCAL/MOL
REMARK 924 INTRA-LIGAND FREE ENERGY PREDICTED BY IDOCK:   -0.37 KCAL/MOL
REMARK 927      BINDING AFFINITY PREDICTED BY RF-SCORE:    0.00 PKD
ROOT
ATOM      1  N   ASN A   1     -11.440   4.641  65.189  1.00  0.00    -1.107 NA 
ATOM      2  H1  ASN A   1     -12.249   4.704  65.808  1.00  0.00     0.000 HD 
ATOM      3  H2  ASN A   1     -11.543   3.891  64.506  1.00  0.00     0.000 HD 
ATOM      4  CA  ASN A   1     -10.176   4.499  65.987  1.00  0.00    -0.260 C  
ATOM      5  OXT ASN A   1      -9.140   5.908  67.699  1.00  0.00    -0.109 OA 
ATOM      6  C   ASN A   1     -10.073   5.696  66.942  1.00  0.00    -0.193 C  
ATOM      7  O   ASN A   1     -11.184   6.476  66.889  1.00  0.00    -0.387 OA 
ENDROOT
BRANCH   4   8
ATOM      8  CB  ASN A   1      -8.968   4.405  65.062  1.00  0.00    -0.145 C  
BRANCH   8   9
ATOM      9  CG  ASN A   1      -9.191   3.827  63.678  1.00  0.00    -0.119 C  
ATOM     10  ND2 ASN A   1      -9.398   2.487  63.558  1.00  0.00    -0.097 N  
ATOM     11  OD1 ASN A   1      -9.307   4.552  62.694  1.00  0.00    -0.134 OA 
ATOM     12 1HD2 ASN A   1      -9.549   2.098  62.627  1.00  0.00     0.000 HD 
ATOM     13 2HD2 ASN A   1      -9.403   1.885  64.380  1.00  0.00     0.000 HD 
ENDBRANCH   8   9
ENDBRANCH   4   8
TORSDOF 2
ENDMDL
MODEL      146
REMARK 921   NORMALIZED FREE ENERGY PREDICTED BY IDOCK:   -2.38 KCAL/MOL
REMARK 922        TOTAL FREE ENERGY PREDICTED BY IDOCK:   -2.92 KCAL/MOL
REMARK 923 INTER-LIGAND FREE ENERGY PREDICTED BY IDOCK:   -2.83 KCAL/MOL
REMARK 924 INTRA-LIGAND FREE ENERGY PREDICTED BY IDOCK:   -0.09 KCAL/MOL
REMARK 927      BINDING AFFINITY PREDICTED BY RF-SCORE:    0.00 PKD
ROOT
ATOM      1  N   ASN A   1      -8.845  12.608  66.109  1.00  0.00    -0.417 NA 
ATOM      2  H1  ASN A   1      -9.345  11.751  65.872  1.00  0.00     0.000 HD 
ATOM      3  H2  ASN A   1      -8.326  12.514  66.982  1.00  0.00     0.000 HD 
ATOM      4  CA  ASN A   1      -9.787  13.776  66.144  1.00  0.00    -0.297 C  
ATOM      5  OXT ASN A   1     -11.271  14.748  64.456  1.00  0.00    -0.349 OA 
ATOM      6  C   ASN A   1     -10.478  13.877  64.776  1.00  0.00    -0.429 C  
ATOM      7  O   ASN A   1     -10.143  12.839  63.967  1.00  0.00    -0.365 OA 
ENDROOT
BRANCH   4   8
ATOM      8  CB  ASN A   1      -9.040  15.056  66.499  1.00  0.00    -0.319 C  
BRANCH   8   9
ATOM      9  CG  ASN A   1      -9.422  15.752  67.790  1.00  0.00    -0.212 C  
ATOM     10  ND2 ASN A   1     -10.118  15.051  68.726  1.00  0.00    -0.224 N  
ATOM     11  OD1 ASN A   1      -9.015  16.881  68.051  1.00  0.00    -0.215 OA 
ATOM     12 1HD2 ASN A   1     -10.375  15.520  69.595  1.00  0.00     0.000 HD 
ATOM     13 2HD2 ASN A   1     -10.377  14.079  68.563  1.00  0.00     0.000 HD 
ENDBRANCH   8   9
ENDBRANCH   4   8
TORSDOF 2
ENDMDL
MODEL      147
REMARK 921   NORMALIZED FREE ENERGY PREDICTED BY IDOCK:   -2.37 KCAL/MOL
REMARK 922        TOTAL FREE ENERGY PREDICTED BY IDOCK:   -2.91 KCAL/MOL
REMARK 923 INTER-LIGAND FREE ENERGY PREDICTED BY IDOCK:   -2.54 KCAL/MOL
REMARK 924 INTRA-LIGAND FREE ENERGY PREDICTED BY IDOCK:   -0.36 KCAL/MOL
REMARK 927      BINDING AFFINITY PREDICTED BY RF-SCORE:    0.00 PKD
ROOT
ATOM      1  N   ASN A   1      -8.989   7.600  70.920  1.00  0.00    -0.147 NA 
ATOM      2  H1  ASN A   1      -8.359   7.080  70.309  1.00  0.00     0.000 HD 
ATOM      3  H2  ASN A   1      -8.583   8.487  71.217  1.00  0.00     0.000 HD 
ATOM      4  CA  ASN A   1      -9.403   6.756  72.092  1.00  0.00    -0.140 C  
ATOM      5  OXT ASN A   1     -10.542   4.595  72.247  1.00  0.00    -0.196 OA 
ATOM      6  C   ASN A   1     -10.055   5.474  71.555  1.00  0.00    -0.205 C  
ATOM      7  O   ASN A   1      -9.977   5.401  70.201  1.00  0.00    -0.194 OA 
ENDROOT
BRANCH   4   8
ATOM      8  CB  ASN A   1     -10.344   7.533  73.005  1.00  0.00    -0.376 C  
BRANCH   8   9
ATOM      9  CG  ASN A   1     -11.511   8.251  72.356  1.00  0.00    -0.394 C  
ATOM     10  ND2 ASN A   1     -12.744   7.678  72.418  1.00  0.00    -0.522 N  
ATOM     11  OD1 ASN A   1     -11.387   9.379  71.888  1.00  0.00    -0.370 OA 
ATOM     12 1HD2 ASN A   1     -13.529   8.161  71.981  1.00  0.00     0.000 HD 
ATOM     13 2HD2 ASN A   1     -12.880   6.785  72.891  1.00  0.00     0.000 HD 
ENDBRANCH   8   9
ENDBRANCH   4   8
TORSDOF 2
ENDMDL
MODEL      148
REMARK 921   NORMALIZED FREE ENERGY PREDICTED BY IDOCK:   -2.36 KCAL/MOL
REMARK 922        TOTAL FREE ENERGY PREDICTED BY IDOCK:   -2.90 KCAL/MOL
REMARK 923 INTER-LIGAND FREE ENERGY PREDICTED BY IDOCK:   -2.62 KCAL/MOL
REMARK 924 INTRA-LIGAND FREE ENERGY PREDICTED BY IDOCK:   -0.28 KCAL/MOL
REMARK 927      BINDING AFFINITY PREDICTED BY RF-SCORE:    0.00 PKD
ROOT
ATOM      1  N   ASN A   1     -10.022   9.789  65.004  1.00  0.00    -0.403 NA 
ATOM      2  H1  ASN A   1      -9.638  10.216  64.161  1.00  0.00     0.000 HD 
ATOM      3  H2  ASN A   1     -11.003   9.537  64.888  1.00  0.00     0.000 HD 
ATOM      4  CA  ASN A   1      -9.812  10.684  66.191  1.00  0.00    -0.217 C  
ATOM      5  OXT ASN A   1      -7.795  11.620  67.215  1.00  0.00    -0.140 OA 
ATOM      6  C   ASN A   1      -8.308  10.962  66.324  1.00  0.00    -0.164 C  
ATOM      7  O   ASN A   1      -7.606  10.430  65.289  1.00  0.00    -0.145 OA 
ENDROOT
BRANCH   4   8
ATOM      8  CB  ASN A   1     -10.386  10.046  67.451  1.00  0.00    -0.292 C  
BRANCH   8   9
ATOM      9  CG  ASN A   1     -11.051  10.964  68.457  1.00  0.00    -0.256 C  
ATOM     10  ND2 ASN A   1     -10.273  11.826  69.165  1.00  0.00    -0.418 N  
ATOM     11  OD1 ASN A   1     -12.274  11.024  68.555  1.00  0.00    -0.582 OA 
ATOM     12 1HD2 ASN A   1     -10.721  12.444  69.843  1.00  0.00     0.000 HD 
ATOM     13 2HD2 ASN A   1      -9.264  11.855  69.023  1.00  0.00     0.000 HD 
ENDBRANCH   8   9
ENDBRANCH   4   8
TORSDOF 2
ENDMDL
MODEL      149
REMARK 921   NORMALIZED FREE ENERGY PREDICTED BY IDOCK:   -2.36 KCAL/MOL
REMARK 922        TOTAL FREE ENERGY PREDICTED BY IDOCK:   -2.89 KCAL/MOL
REMARK 923 INTER-LIGAND FREE ENERGY PREDICTED BY IDOCK:   -2.51 KCAL/MOL
REMARK 924 INTRA-LIGAND FREE ENERGY PREDICTED BY IDOCK:   -0.39 KCAL/MOL
REMARK 927      BINDING AFFINITY PREDICTED BY RF-SCORE:    0.00 PKD
ROOT
ATOM      1  N   ASN A   1     -11.439   8.982  70.078  1.00  0.00    -0.449 NA 
ATOM      2  H1  ASN A   1     -11.208   9.245  69.120  1.00  0.00     0.000 HD 
ATOM      3  H2  ASN A   1     -11.775   9.778  70.619  1.00  0.00     0.000 HD 
ATOM      4  CA  ASN A   1     -10.267   8.314  70.737  1.00  0.00    -0.192 C  
ATOM      5  OXT ASN A   1      -8.977   6.312  70.172  1.00  0.00    -0.147 OA 
ATOM      6  C   ASN A   1      -9.866   7.098  69.890  1.00  0.00    -0.174 C  
ATOM      7  O   ASN A   1     -10.589   7.027  68.742  1.00  0.00    -0.206 OA 
ENDROOT
BRANCH   4   8
ATOM      8  CB  ASN A   1     -10.611   7.920  72.169  1.00  0.00    -0.312 C  
BRANCH   8   9
ATOM      9  CG  ASN A   1     -11.785   6.982  72.372  1.00  0.00    -0.213 C  
ATOM     10  ND2 ASN A   1     -13.040   7.446  72.123  1.00  0.00    -0.513 N  
ATOM     11  OD1 ASN A   1     -11.615   5.795  72.636  1.00  0.00    -0.300 OA 
ATOM     12 1HD2 ASN A   1     -13.829   6.815  72.259  1.00  0.00     0.000 HD 
ATOM     13 2HD2 ASN A   1     -13.188   8.404  71.807  1.00  0.00     0.000 HD 
ENDBRANCH   8   9
ENDBRANCH   4   8
TORSDOF 2
ENDMDL
MODEL      150
REMARK 921   NORMALIZED FREE ENERGY PREDICTED BY IDOCK:   -2.35 KCAL/MOL
REMARK 922        TOTAL FREE ENERGY PREDICTED BY IDOCK:   -2.88 KCAL/MOL
REMARK 923 INTER-LIGAND FREE ENERGY PREDICTED BY IDOCK:   -2.62 KCAL/MOL
REMARK 924 INTRA-LIGAND FREE ENERGY PREDICTED BY IDOCK:   -0.26 KCAL/MOL
REMARK 927      BINDING AFFINITY PREDICTED BY RF-SCORE:    0.00 PKD
ROOT
ATOM      1  N   ASN A   1      -9.957   9.922  65.523  1.00  0.00    -0.312 NA 
ATOM      2  H1  ASN A   1     -10.086  10.777  64.983  1.00  0.00     0.000 HD 
ATOM      3  H2  ASN A   1     -10.284   9.100  65.016  1.00  0.00     0.000 HD 
ATOM      4  CA  ASN A   1     -10.615  10.044  66.868  1.00  0.00    -0.192 C  
ATOM      5  OXT ASN A   1     -10.308  11.621  68.715  1.00  0.00    -0.214 OA 
ATOM      6  C   ASN A   1     -10.023  11.267  67.583  1.00  0.00    -0.178 C  
ATOM      7  O   ASN A   1      -9.172  11.955  66.778  1.00  0.00    -0.183 OA 
ENDROOT
BRANCH   4   8
ATOM      8  CB  ASN A   1     -10.422   8.766  67.676  1.00  0.00    -0.310 C  
BRANCH   8   9
ATOM      9  CG  ASN A   1     -10.333   7.462  66.908  1.00  0.00    -0.296 C  
ATOM     10  ND2 ASN A   1     -11.418   6.640  66.892  1.00  0.00    -0.767 N  
ATOM     11  OD1 ASN A   1      -9.357   7.196  66.212  1.00  0.00    -0.167 OA 
ATOM     12 1HD2 ASN A   1     -11.358   5.763  66.375  1.00  0.00     0.000 HD 
ATOM     13 2HD2 ASN A   1     -12.273   6.896  67.386  1.00  0.00     0.000 HD 
ENDBRANCH   8   9
ENDBRANCH   4   8
TORSDOF 2
ENDMDL
MODEL      151
REMARK 921   NORMALIZED FREE ENERGY PREDICTED BY IDOCK:   -2.32 KCAL/MOL
REMARK 922        TOTAL FREE ENERGY PREDICTED BY IDOCK:   -2.85 KCAL/MOL
REMARK 923 INTER-LIGAND FREE ENERGY PREDICTED BY IDOCK:   -2.43 KCAL/MOL
REMARK 924 INTRA-LIGAND FREE ENERGY PREDICTED BY IDOCK:   -0.42 KCAL/MOL
REMARK 927      BINDING AFFINITY PREDICTED BY RF-SCORE:    0.00 PKD
ROOT
ATOM      1  N   ASN A   1     -11.797   6.572  71.484  1.00  0.00    -0.327 NA 
ATOM      2  H1  ASN A   1     -12.293   5.681  71.502  1.00  0.00     0.000 HD 
ATOM      3  H2  ASN A   1     -12.393   7.344  71.781  1.00  0.00     0.000 HD 
ATOM      4  CA  ASN A   1     -11.202   6.817  70.127  1.00  0.00    -0.335 C  
ATOM      5  OXT ASN A   1      -9.602   5.550  68.775  1.00  0.00    -0.124 OA 
ATOM      6  C   ASN A   1     -10.276   5.639  69.788  1.00  0.00    -0.251 C  
ATOM      7  O   ASN A   1     -10.337   4.666  70.734  1.00  0.00    -0.177 OA 
ENDROOT
BRANCH   4   8
ATOM      8  CB  ASN A   1     -10.460   8.148  70.101  1.00  0.00    -0.225 C  
BRANCH   8   9
ATOM      9  CG  ASN A   1     -10.550   9.022  71.336  1.00  0.00    -0.323 C  
ATOM     10  ND2 ASN A   1     -11.683   9.747  71.540  1.00  0.00    -0.389 N  
ATOM     11  OD1 ASN A   1      -9.680   8.993  72.203  1.00  0.00    -0.279 OA 
ATOM     12 1HD2 ASN A   1     -11.744  10.334  72.372  1.00  0.00     0.000 HD 
ATOM     13 2HD2 ASN A   1     -12.456   9.704  70.876  1.00  0.00     0.000 HD 
ENDBRANCH   8   9
ENDBRANCH   4   8
TORSDOF 2
ENDMDL
MODEL      152
REMARK 921   NORMALIZED FREE ENERGY PREDICTED BY IDOCK:   -2.31 KCAL/MOL
REMARK 922        TOTAL FREE ENERGY PREDICTED BY IDOCK:   -2.83 KCAL/MOL
REMARK 923 INTER-LIGAND FREE ENERGY PREDICTED BY IDOCK:   -2.44 KCAL/MOL
REMARK 924 INTRA-LIGAND FREE ENERGY PREDICTED BY IDOCK:   -0.39 KCAL/MOL
REMARK 927      BINDING AFFINITY PREDICTED BY RF-SCORE:    0.00 PKD
ROOT
ATOM      1  N   ASN A   1      -8.197  17.951  65.773  1.00  0.00    -0.506 NA 
ATOM      2  H1  ASN A   1      -8.745  18.720  65.388  1.00  0.00     0.000 HD 
ATOM      3  H2  ASN A   1      -8.417  17.064  65.320  1.00  0.00     0.000 HD 
ATOM      4  CA  ASN A   1      -8.371  17.874  67.262  1.00  0.00    -0.225 C  
ATOM      5  OXT ASN A   1      -7.944  19.482  69.058  1.00  0.00    -0.356 OA 
ATOM      6  C   ASN A   1      -7.963  19.225  67.865  1.00  0.00    -0.292 C  
ATOM      7  O   ASN A   1      -7.674  20.137  66.901  1.00  0.00    -0.281 OA 
ENDROOT
BRANCH   4   8
ATOM      8  CB  ASN A   1      -7.552  16.724  67.838  1.00  0.00    -0.177 C  
BRANCH   8   9
ATOM      9  CG  ASN A   1      -6.054  16.753  67.610  1.00  0.00    -0.146 C  
ATOM     10  ND2 ASN A   1      -5.229  16.667  68.689  1.00  0.00    -0.120 N  
ATOM     11  OD1 ASN A   1      -5.579  16.731  66.478  1.00  0.00    -0.340 OA 
ATOM     12 1HD2 ASN A   1      -4.221  16.686  68.536  1.00  0.00     0.000 HD 
ATOM     13 2HD2 ASN A   1      -5.611  16.585  69.631  1.00  0.00     0.000 HD 
ENDBRANCH   8   9
ENDBRANCH   4   8
TORSDOF 2
ENDMDL
MODEL      153
REMARK 921   NORMALIZED FREE ENERGY PREDICTED BY IDOCK:   -2.30 KCAL/MOL
REMARK 922        TOTAL FREE ENERGY PREDICTED BY IDOCK:   -2.83 KCAL/MOL
REMARK 923 INTER-LIGAND FREE ENERGY PREDICTED BY IDOCK:   -2.78 KCAL/MOL
REMARK 924 INTRA-LIGAND FREE ENERGY PREDICTED BY IDOCK:   -0.06 KCAL/MOL
REMARK 927      BINDING AFFINITY PREDICTED BY RF-SCORE:    0.00 PKD
ROOT
ATOM      1  N   ASN A   1     -10.577  18.433  65.789  1.00  0.00    -0.579 NA 
ATOM      2  H1  ASN A   1     -10.495  19.144  66.516  1.00  0.00     0.000 HD 
ATOM      3  H2  ASN A   1     -11.492  18.452  65.341  1.00  0.00     0.000 HD 
ATOM      4  CA  ASN A   1     -10.257  17.075  66.344  1.00  0.00    -0.326 C  
ATOM      5  OXT ASN A   1      -8.263  16.168  67.437  1.00  0.00    -0.150 OA 
ATOM      6  C   ASN A   1      -8.844  17.121  66.944  1.00  0.00    -0.235 C  
ATOM      7  O   ASN A   1      -8.328  18.377  66.915  1.00  0.00    -0.239 OA 
ENDROOT
BRANCH   4   8
ATOM      8  CB  ASN A   1     -10.379  16.011  65.259  1.00  0.00    -0.319 C  
BRANCH   8   9
ATOM      9  CG  ASN A   1     -10.587  14.578  65.706  1.00  0.00    -0.317 C  
ATOM     10  ND2 ASN A   1     -11.747  14.256  66.341  1.00  0.00    -0.377 N  
ATOM     11  OD1 ASN A   1      -9.792  13.692  65.402  1.00  0.00    -0.233 OA 
ATOM     12 1HD2 ASN A   1     -11.887  13.292  66.641  1.00  0.00     0.000 HD 
ATOM     13 2HD2 ASN A   1     -12.461  14.964  66.512  1.00  0.00     0.000 HD 
ENDBRANCH   8   9
ENDBRANCH   4   8
TORSDOF 2
ENDMDL
MODEL      154
REMARK 921   NORMALIZED FREE ENERGY PREDICTED BY IDOCK:   -2.29 KCAL/MOL
REMARK 922        TOTAL FREE ENERGY PREDICTED BY IDOCK:   -2.82 KCAL/MOL
REMARK 923 INTER-LIGAND FREE ENERGY PREDICTED BY IDOCK:   -2.60 KCAL/MOL
REMARK 924 INTRA-LIGAND FREE ENERGY PREDICTED BY IDOCK:   -0.21 KCAL/MOL
REMARK 927      BINDING AFFINITY PREDICTED BY RF-SCORE:    0.00 PKD
ROOT
ATOM      1  N   ASN A   1     -11.516   6.681  67.384  1.00  0.00    -0.740 NA 
ATOM      2  H1  ASN A   1     -12.075   5.861  67.621  1.00  0.00     0.000 HD 
ATOM      3  H2  ASN A   1     -11.451   6.818  66.376  1.00  0.00     0.000 HD 
ATOM      4  CA  ASN A   1     -10.159   6.595  68.023  1.00  0.00    -0.154 C  
ATOM      5  OXT ASN A   1      -9.445   6.401  70.357  1.00  0.00    -0.161 OA 
ATOM      6  C   ASN A   1     -10.350   6.451  69.540  1.00  0.00    -0.208 C  
ATOM      7  O   ASN A   1     -11.662   6.326  69.870  1.00  0.00    -0.408 OA 
ENDROOT
BRANCH   4   8
ATOM      8  CB  ASN A   1      -9.323   7.820  67.670  1.00  0.00    -0.160 C  
BRANCH   8   9
ATOM      9  CG  ASN A   1      -9.104   8.114  66.199  1.00  0.00    -0.183 C  
ATOM     10  ND2 ASN A   1      -9.879   9.061  65.602  1.00  0.00    -0.465 N  
ATOM     11  OD1 ASN A   1      -8.174   7.608  65.578  1.00  0.00    -0.123 OA 
ATOM     12 1HD2 ASN A   1      -9.731   9.259  64.612  1.00  0.00     0.000 HD 
ATOM     13 2HD2 ASN A   1     -10.591   9.561  66.132  1.00  0.00     0.000 HD 
ENDBRANCH   8   9
ENDBRANCH   4   8
TORSDOF 2
ENDMDL
MODEL      155
REMARK 921   NORMALIZED FREE ENERGY PREDICTED BY IDOCK:   -2.28 KCAL/MOL
REMARK 922        TOTAL FREE ENERGY PREDICTED BY IDOCK:   -2.81 KCAL/MOL
REMARK 923 INTER-LIGAND FREE ENERGY PREDICTED BY IDOCK:   -2.61 KCAL/MOL
REMARK 924 INTRA-LIGAND FREE ENERGY PREDICTED BY IDOCK:   -0.20 KCAL/MOL
REMARK 927      BINDING AFFINITY PREDICTED BY RF-SCORE:    0.00 PKD
ROOT
ATOM      1  N   ASN A   1     -12.030  11.492  67.542  1.00  0.00    -0.622 NA 
ATOM      2  H1  ASN A   1     -12.283  12.475  67.653  1.00  0.00     0.000 HD 
ATOM      3  H2  ASN A   1     -12.823  10.876  67.717  1.00  0.00     0.000 HD 
ATOM      4  CA  ASN A   1     -10.854  11.149  68.410  1.00  0.00    -0.205 C  
ATOM      5  OXT ASN A   1      -8.576  12.038  68.527  1.00  0.00    -0.157 OA 
ATOM      6  C   ASN A   1      -9.693  12.084  68.039  1.00  0.00    -0.198 C  
ATOM      7  O   ASN A   1     -10.074  13.020  67.131  1.00  0.00    -0.239 OA 
ENDROOT
BRANCH   4   8
ATOM      8  CB  ASN A   1     -10.477   9.681  68.244  1.00  0.00    -0.259 C  
BRANCH   8   9
ATOM      9  CG  ASN A   1     -10.416   9.132  66.832  1.00  0.00    -0.217 C  
ATOM     10  ND2 ASN A   1     -10.532   7.789  66.651  1.00  0.00    -0.491 N  
ATOM     11  OD1 ASN A   1     -10.384   9.879  65.858  1.00  0.00    -0.223 OA 
ATOM     12 1HD2 ASN A   1     -10.491   7.419  65.701  1.00  0.00     0.000 HD 
ATOM     13 2HD2 ASN A   1     -10.658   7.164  67.447  1.00  0.00     0.000 HD 
ENDBRANCH   8   9
ENDBRANCH   4   8
TORSDOF 2
ENDMDL
MODEL      156
REMARK 921   NORMALIZED FREE ENERGY PREDICTED BY IDOCK:   -2.24 KCAL/MOL
REMARK 922        TOTAL FREE ENERGY PREDICTED BY IDOCK:   -2.77 KCAL/MOL
REMARK 923 INTER-LIGAND FREE ENERGY PREDICTED BY IDOCK:   -2.67 KCAL/MOL
REMARK 924 INTRA-LIGAND FREE ENERGY PREDICTED BY IDOCK:   -0.10 KCAL/MOL
REMARK 927      BINDING AFFINITY PREDICTED BY RF-SCORE:    0.00 PKD
ROOT
ATOM      1  N   ASN A   1      -8.534  12.201  66.334  1.00  0.00    -0.396 NA 
ATOM      2  H1  ASN A   1      -8.597  13.008  65.713  1.00  0.00     0.000 HD 
ATOM      3  H2  ASN A   1      -7.720  11.624  66.125  1.00  0.00     0.000 HD 
ATOM      4  CA  ASN A   1      -9.807  11.404  66.293  1.00  0.00    -0.218 C  
ATOM      5  OXT ASN A   1     -12.133  11.986  66.785  1.00  0.00    -0.613 OA 
ATOM      6  C   ASN A   1     -10.968  12.332  66.677  1.00  0.00    -0.278 C  
ATOM      7  O   ASN A   1     -10.553  13.617  66.831  1.00  0.00    -0.269 OA 
ENDROOT
BRANCH   4   8
ATOM      8  CB  ASN A   1      -9.713  10.198  67.221  1.00  0.00    -0.203 C  
BRANCH   8   9
ATOM      9  CG  ASN A   1     -10.194   8.865  66.684  1.00  0.00    -0.268 C  
ATOM     10  ND2 ASN A   1      -9.485   8.272  65.685  1.00  0.00    -0.430 N  
ATOM     11  OD1 ASN A   1     -11.128   8.265  67.209  1.00  0.00     0.009 OA 
ATOM     12 1HD2 ASN A   1      -9.809   7.374  65.324  1.00  0.00     0.000 HD 
ATOM     13 2HD2 ASN A   1      -8.649   8.714  65.306  1.00  0.00     0.000 HD 
ENDBRANCH   8   9
ENDBRANCH   4   8
TORSDOF 2
ENDMDL
MODEL      157
REMARK 921   NORMALIZED FREE ENERGY PREDICTED BY IDOCK:   -2.24 KCAL/MOL
REMARK 922        TOTAL FREE ENERGY PREDICTED BY IDOCK:   -2.77 KCAL/MOL
REMARK 923 INTER-LIGAND FREE ENERGY PREDICTED BY IDOCK:   -2.43 KCAL/MOL
REMARK 924 INTRA-LIGAND FREE ENERGY PREDICTED BY IDOCK:   -0.34 KCAL/MOL
REMARK 927      BINDING AFFINITY PREDICTED BY RF-SCORE:    0.00 PKD
ROOT
ATOM      1  N   ASN A   1     -11.607   9.974  68.055  1.00  0.00    -0.621 NA 
ATOM      2  H1  ASN A   1     -12.608  10.167  68.090  1.00  0.00     0.000 HD 
ATOM      3  H2  ASN A   1     -11.397   9.010  68.311  1.00  0.00     0.000 HD 
ATOM      4  CA  ASN A   1     -10.852  10.955  68.906  1.00  0.00    -0.219 C  
ATOM      5  OXT ASN A   1     -10.695  13.397  68.863  1.00  0.00    -0.242 OA 
ATOM      6  C   ASN A   1     -11.180  12.372  68.414  1.00  0.00    -0.273 C  
ATOM      7  O   ASN A   1     -12.130  12.357  67.443  1.00  0.00    -0.505 OA 
ENDROOT
BRANCH   4   8
ATOM      8  CB  ASN A   1      -9.356  10.667  68.853  1.00  0.00    -0.191 C  
BRANCH   8   9
ATOM      9  CG  ASN A   1      -8.691  10.675  67.491  1.00  0.00    -0.125 C  
ATOM     10  ND2 ASN A   1      -7.407  11.116  67.396  1.00  0.00    -0.102 N  
ATOM     11  OD1 ASN A   1      -9.242  10.186  66.509  1.00  0.00    -0.149 OA 
ATOM     12 1HD2 ASN A   1      -6.960  11.122  66.479  1.00  0.00     0.000 HD 
ATOM     13 2HD2 ASN A   1      -6.903  11.435  68.223  1.00  0.00     0.000 HD 
ENDBRANCH   8   9
ENDBRANCH   4   8
TORSDOF 2
ENDMDL
MODEL      158
REMARK 921   NORMALIZED FREE ENERGY PREDICTED BY IDOCK:   -2.23 KCAL/MOL
REMARK 922        TOTAL FREE ENERGY PREDICTED BY IDOCK:   -2.75 KCAL/MOL
REMARK 923 INTER-LIGAND FREE ENERGY PREDICTED BY IDOCK:   -2.52 KCAL/MOL
REMARK 924 INTRA-LIGAND FREE ENERGY PREDICTED BY IDOCK:   -0.23 KCAL/MOL
REMARK 927      BINDING AFFINITY PREDICTED BY RF-SCORE:    0.00 PKD
ROOT
ATOM      1  N   ASN A   1      -8.093   9.931  67.546  1.00  0.00    -0.110 NA 
ATOM      2  H1  ASN A   1      -7.678  10.858  67.450  1.00  0.00     0.000 HD 
ATOM      3  H2  ASN A   1      -7.478   9.291  68.048  1.00  0.00     0.000 HD 
ATOM      4  CA  ASN A   1      -8.487   9.388  66.203  1.00  0.00    -0.120 C  
ATOM      5  OXT ASN A   1     -10.000  10.220  64.468  1.00  0.00    -0.339 OA 
ATOM      6  C   ASN A   1      -9.456  10.383  65.548  1.00  0.00    -0.215 C  
ATOM      7  O   ASN A   1      -9.596  11.510  66.292  1.00  0.00    -0.205 OA 
ENDROOT
BRANCH   4   8
ATOM      8  CB  ASN A   1      -9.108   8.003  66.348  1.00  0.00    -0.226 C  
BRANCH   8   9
ATOM      9  CG  ASN A   1     -10.423   7.902  67.095  1.00  0.00    -0.344 C  
ATOM     10  ND2 ASN A   1     -11.202   6.804  66.895  1.00  0.00    -0.759 N  
ATOM     11  OD1 ASN A   1     -10.734   8.723  67.953  1.00  0.00    -0.203 OA 
ATOM     12 1HD2 ASN A   1     -12.087   6.736  67.398  1.00  0.00     0.000 HD 
ATOM     13 2HD2 ASN A   1     -10.908   6.066  66.257  1.00  0.00     0.000 HD 
ENDBRANCH   8   9
ENDBRANCH   4   8
TORSDOF 2
ENDMDL
MODEL      159
REMARK 921   NORMALIZED FREE ENERGY PREDICTED BY IDOCK:   -2.22 KCAL/MOL
REMARK 922        TOTAL FREE ENERGY PREDICTED BY IDOCK:   -2.74 KCAL/MOL
REMARK 923 INTER-LIGAND FREE ENERGY PREDICTED BY IDOCK:   -2.29 KCAL/MOL
REMARK 924 INTRA-LIGAND FREE ENERGY PREDICTED BY IDOCK:   -0.45 KCAL/MOL
REMARK 927      BINDING AFFINITY PREDICTED BY RF-SCORE:    0.00 PKD
ROOT
ATOM      1  N   ASN A   1     -10.913   9.314  67.643  1.00  0.00    -0.483 NA 
ATOM      2  H1  ASN A   1     -11.461   8.960  66.859  1.00  0.00     0.000 HD 
ATOM      3  H2  ASN A   1     -11.084   8.781  68.495  1.00  0.00     0.000 HD 
ATOM      4  CA  ASN A   1     -11.166  10.781  67.843  1.00  0.00    -0.318 C  
ATOM      5  OXT ASN A   1     -10.883  12.718  66.374  1.00  0.00    -0.265 OA 
ATOM      6  C   ASN A   1     -10.829  11.510  66.534  1.00  0.00    -0.288 C  
ATOM      7  O   ASN A   1     -10.514  10.637  65.542  1.00  0.00    -0.248 OA 
ENDROOT
BRANCH   4   8
ATOM      8  CB  ASN A   1     -10.348  11.310  69.015  1.00  0.00    -0.189 C  
BRANCH   8   9
ATOM      9  CG  ASN A   1      -9.267  10.407  69.575  1.00  0.00    -0.120 C  
ATOM     10  ND2 ASN A   1      -9.594   9.539  70.571  1.00  0.00    -0.262 N  
ATOM     11  OD1 ASN A   1      -8.148  10.362  69.071  1.00  0.00    -0.118 OA 
ATOM     12 1HD2 ASN A   1      -8.867   8.931  70.947  1.00  0.00     0.000 HD 
ATOM     13 2HD2 ASN A   1     -10.546   9.497  70.932  1.00  0.00     0.000 HD 
ENDBRANCH   8   9
ENDBRANCH   4   8
TORSDOF 2
ENDMDL
MODEL      160
REMARK 921   NORMALIZED FREE ENERGY PREDICTED BY IDOCK:   -2.19 KCAL/MOL
REMARK 922        TOTAL FREE ENERGY PREDICTED BY IDOCK:   -2.71 KCAL/MOL
REMARK 923 INTER-LIGAND FREE ENERGY PREDICTED BY IDOCK:   -2.45 KCAL/MOL
REMARK 924 INTRA-LIGAND FREE ENERGY PREDICTED BY IDOCK:   -0.26 KCAL/MOL
REMARK 927      BINDING AFFINITY PREDICTED BY RF-SCORE:    0.00 PKD
ROOT
ATOM      1  N   ASN A   1     -11.169   5.962  66.391  1.00  0.00    -0.739 NA 
ATOM      2  H1  ASN A   1     -11.308   5.977  65.381  1.00  0.00     0.000 HD 
ATOM      3  H2  ASN A   1     -11.753   6.650  66.864  1.00  0.00     0.000 HD 
ATOM      4  CA  ASN A   1      -9.715   6.141  66.725  1.00  0.00    -0.158 C  
ATOM      5  OXT ASN A   1      -7.716   4.865  66.122  1.00  0.00    -0.090 OA 
ATOM      6  C   ASN A   1      -8.920   5.032  66.021  1.00  0.00    -0.136 C  
ATOM      7  O   ASN A   1      -9.714   4.281  65.214  1.00  0.00    -0.174 OA 
ENDROOT
BRANCH   4   8
ATOM      8  CB  ASN A   1      -9.507   6.119  68.235  1.00  0.00    -0.117 C  
BRANCH   8   9
ATOM      9  CG  ASN A   1     -10.378   7.033  69.073  1.00  0.00    -0.200 C  
ATOM     10  ND2 ASN A   1     -11.647   6.638  69.364  1.00  0.00    -0.652 N  
ATOM     11  OD1 ASN A   1      -9.925   8.053  69.586  1.00  0.00    -0.182 OA 
ATOM     12 1HD2 ASN A   1     -12.233   7.253  69.928  1.00  0.00     0.000 HD 
ATOM     13 2HD2 ASN A   1     -12.005   5.745  69.026  1.00  0.00     0.000 HD 
ENDBRANCH   8   9
ENDBRANCH   4   8
TORSDOF 2
ENDMDL
MODEL      161
REMARK 921   NORMALIZED FREE ENERGY PREDICTED BY IDOCK:   -2.19 KCAL/MOL
REMARK 922        TOTAL FREE ENERGY PREDICTED BY IDOCK:   -2.70 KCAL/MOL
REMARK 923 INTER-LIGAND FREE ENERGY PREDICTED BY IDOCK:   -2.46 KCAL/MOL
REMARK 924 INTRA-LIGAND FREE ENERGY PREDICTED BY IDOCK:   -0.25 KCAL/MOL
REMARK 927      BINDING AFFINITY PREDICTED BY RF-SCORE:    0.00 PKD
ROOT
ATOM      1  N   ASN A   1      -8.312   9.555  68.565  1.00  0.00    -0.116 NA 
ATOM      2  H1  ASN A   1      -7.292   9.525  68.582  1.00  0.00     0.000 HD 
ATOM      3  H2  ASN A   1      -8.661  10.166  67.828  1.00  0.00     0.000 HD 
ATOM      4  CA  ASN A   1      -8.849   9.945  69.913  1.00  0.00    -0.195 C  
ATOM      5  OXT ASN A   1      -8.609   8.946  72.135  1.00  0.00    -0.381 OA 
ATOM      6  C   ASN A   1      -8.322   8.941  70.949  1.00  0.00    -0.182 C  
ATOM      7  O   ASN A   1      -7.443   8.066  70.397  1.00  0.00    -0.072 OA 
ENDROOT
BRANCH   4   8
ATOM      8  CB  ASN A   1     -10.372   9.990  69.888  1.00  0.00    -0.315 C  
BRANCH   8   9
ATOM      9  CG  ASN A   1     -11.025  11.095  69.082  1.00  0.00    -0.242 C  
ATOM     10  ND2 ASN A   1     -10.271  12.169  68.720  1.00  0.00    -0.381 N  
ATOM     11  OD1 ASN A   1     -12.171  10.983  68.655  1.00  0.00    -0.571 OA 
ATOM     12 1HD2 ASN A   1     -10.710  12.913  68.178  1.00  0.00     0.000 HD 
ATOM     13 2HD2 ASN A   1      -9.289  12.229  68.985  1.00  0.00     0.000 HD 
ENDBRANCH   8   9
ENDBRANCH   4   8
TORSDOF 2
ENDMDL
MODEL      162
REMARK 921   NORMALIZED FREE ENERGY PREDICTED BY IDOCK:   -2.18 KCAL/MOL
REMARK 922        TOTAL FREE ENERGY PREDICTED BY IDOCK:   -2.70 KCAL/MOL
REMARK 923 INTER-LIGAND FREE ENERGY PREDICTED BY IDOCK:   -2.30 KCAL/MOL
REMARK 924 INTRA-LIGAND FREE ENERGY PREDICTED BY IDOCK:   -0.39 KCAL/MOL
REMARK 927      BINDING AFFINITY PREDICTED BY RF-SCORE:    0.00 PKD
ROOT
ATOM      1  N   ASN A   1     -11.663   7.677  72.976  1.00  0.00    -0.616 NA 
ATOM      2  H1  ASN A   1     -12.429   7.107  73.335  1.00  0.00     0.000 HD 
ATOM      3  H2  ASN A   1     -11.954   8.640  72.809  1.00  0.00     0.000 HD 
ATOM      4  CA  ASN A   1     -11.071   7.052  71.746  1.00  0.00    -0.239 C  
ATOM      5  OXT ASN A   1     -10.042   4.869  71.338  1.00  0.00    -0.188 OA 
ATOM      6  C   ASN A   1     -10.609   5.632  72.103  1.00  0.00    -0.223 C  
ATOM      7  O   ASN A   1     -10.958   5.295  73.372  1.00  0.00    -0.281 OA 
ENDROOT
BRANCH   4   8
ATOM      8  CB  ASN A   1      -9.926   7.905  71.211  1.00  0.00    -0.206 C  
BRANCH   8   9
ATOM      9  CG  ASN A   1      -8.727   8.110  72.115  1.00  0.00    -0.175 C  
ATOM     10  ND2 ASN A   1      -7.484   7.881  71.611  1.00  0.00    -0.067 N  
ATOM     11  OD1 ASN A   1      -8.850   8.588  73.240  1.00  0.00    -0.308 OA 
ATOM     12 1HD2 ASN A   1      -6.678   8.020  72.219  1.00  0.00     0.000 HD 
ATOM     13 2HD2 ASN A   1      -7.362   7.578  70.645  1.00  0.00     0.000 HD 
ENDBRANCH   8   9
ENDBRANCH   4   8
TORSDOF 2
ENDMDL
MODEL      163
REMARK 921   NORMALIZED FREE ENERGY PREDICTED BY IDOCK:   -2.16 KCAL/MOL
REMARK 922        TOTAL FREE ENERGY PREDICTED BY IDOCK:   -2.67 KCAL/MOL
REMARK 923 INTER-LIGAND FREE ENERGY PREDICTED BY IDOCK:   -2.36 KCAL/MOL
REMARK 924 INTRA-LIGAND FREE ENERGY PREDICTED BY IDOCK:   -0.31 KCAL/MOL
REMARK 927      BINDING AFFINITY PREDICTED BY RF-SCORE:    0.00 PKD
ROOT
ATOM      1  N   ASN A   1     -10.411  15.240  67.864  1.00  0.00    -0.249 NA 
ATOM      2  H1  ASN A   1     -10.431  14.408  68.454  1.00  0.00     0.000 HD 
ATOM      3  H2  ASN A   1     -11.309  15.404  67.410  1.00  0.00     0.000 HD 
ATOM      4  CA  ASN A   1      -9.290  15.152  66.869  1.00  0.00    -0.234 C  
ATOM      5  OXT ASN A   1      -6.869  14.904  67.129  1.00  0.00    -0.252 OA 
ATOM      6  C   ASN A   1      -7.976  14.965  67.640  1.00  0.00    -0.169 C  
ATOM      7  O   ASN A   1      -8.193  14.816  68.972  1.00  0.00    -0.157 OA 
ENDROOT
BRANCH   4   8
ATOM      8  CB  ASN A   1      -9.260  16.396  65.987  1.00  0.00    -0.328 C  
BRANCH   8   9
ATOM      9  CG  ASN A   1      -9.698  17.705  66.612  1.00  0.00    -0.301 C  
ATOM     10  ND2 ASN A   1     -10.583  18.486  65.934  1.00  0.00    -0.410 N  
ATOM     11  OD1 ASN A   1      -9.367  18.010  67.755  1.00  0.00    -0.257 OA 
ATOM     12 1HD2 ASN A   1     -10.878  19.367  66.355  1.00  0.00     0.000 HD 
ATOM     13 2HD2 ASN A   1     -10.943  18.197  65.025  1.00  0.00     0.000 HD 
ENDBRANCH   8   9
ENDBRANCH   4   8
TORSDOF 2
ENDMDL
MODEL      164
REMARK 921   NORMALIZED FREE ENERGY PREDICTED BY IDOCK:   -2.15 KCAL/MOL
REMARK 922        TOTAL FREE ENERGY PREDICTED BY IDOCK:   -2.66 KCAL/MOL
REMARK 923 INTER-LIGAND FREE ENERGY PREDICTED BY IDOCK:   -2.57 KCAL/MOL
REMARK 924 INTRA-LIGAND FREE ENERGY PREDICTED BY IDOCK:   -0.09 KCAL/MOL
REMARK 927      BINDING AFFINITY PREDICTED BY RF-SCORE:    0.00 PKD
ROOT
ATOM      1  N   ASN A   1     -10.994   8.134  67.729  1.00  0.00    -0.492 NA 
ATOM      2  H1  ASN A   1     -11.132   7.798  66.776  1.00  0.00     0.000 HD 
ATOM      3  H2  ASN A   1     -11.719   7.793  68.360  1.00  0.00     0.000 HD 
ATOM      4  CA  ASN A   1     -10.896   9.632  67.750  1.00  0.00    -0.217 C  
ATOM      5  OXT ASN A   1      -9.372  11.200  66.651  1.00  0.00    -0.170 OA 
ATOM      6  C   ASN A   1      -9.746  10.052  66.824  1.00  0.00    -0.189 C  
ATOM      7  O   ASN A   1      -9.220   8.987  66.164  1.00  0.00    -0.183 OA 
ENDROOT
BRANCH   4   8
ATOM      8  CB  ASN A   1     -10.690  10.134  69.175  1.00  0.00    -0.254 C  
BRANCH   8   9
ATOM      9  CG  ASN A   1     -11.774  11.011  69.769  1.00  0.00    -0.335 C  
ATOM     10  ND2 ASN A   1     -11.567  12.355  69.825  1.00  0.00    -0.469 N  
ATOM     11  OD1 ASN A   1     -12.867  10.549  70.085  1.00  0.00    -0.264 OA 
ATOM     12 1HD2 ASN A   1     -12.297  12.945  70.225  1.00  0.00     0.000 HD 
ATOM     13 2HD2 ASN A   1     -10.702  12.764  69.474  1.00  0.00     0.000 HD 
ENDBRANCH   8   9
ENDBRANCH   4   8
TORSDOF 2
ENDMDL
MODEL      165
REMARK 921   NORMALIZED FREE ENERGY PREDICTED BY IDOCK:   -2.14 KCAL/MOL
REMARK 922        TOTAL FREE ENERGY PREDICTED BY IDOCK:   -2.65 KCAL/MOL
REMARK 923 INTER-LIGAND FREE ENERGY PREDICTED BY IDOCK:   -2.43 KCAL/MOL
REMARK 924 INTRA-LIGAND FREE ENERGY PREDICTED BY IDOCK:   -0.21 KCAL/MOL
REMARK 927      BINDING AFFINITY PREDICTED BY RF-SCORE:    0.00 PKD
ROOT
ATOM      1  N   ASN A   1     -12.136   8.172  70.829  1.00  0.00    -0.491 NA 
ATOM      2  H1  ASN A   1     -11.934   8.529  69.895  1.00  0.00     0.000 HD 
ATOM      3  H2  ASN A   1     -12.328   8.924  71.490  1.00  0.00     0.000 HD 
ATOM      4  CA  ASN A   1     -11.023   7.282  71.305  1.00  0.00    -0.243 C  
ATOM      5  OXT ASN A   1     -10.050   5.228  70.395  1.00  0.00    -0.215 OA 
ATOM      6  C   ASN A   1     -10.843   6.149  70.284  1.00  0.00    -0.319 C  
ATOM      7  O   ASN A   1     -11.641   6.321  69.198  1.00  0.00    -0.324 OA 
ENDROOT
BRANCH   4   8
ATOM      8  CB  ASN A   1     -11.325   6.748  72.700  1.00  0.00    -0.259 C  
BRANCH   8   9
ATOM      9  CG  ASN A   1     -10.145   6.359  73.569  1.00  0.00    -0.226 C  
ATOM     10  ND2 ASN A   1      -9.536   5.163  73.344  1.00  0.00    -0.137 N  
ATOM     11  OD1 ASN A   1      -9.662   7.146  74.379  1.00  0.00    -0.221 OA 
ATOM     12 1HD2 ASN A   1      -8.742   4.902  73.928  1.00  0.00     0.000 HD 
ATOM     13 2HD2 ASN A   1      -9.866   4.541  72.606  1.00  0.00     0.000 HD 
ENDBRANCH   8   9
ENDBRANCH   4   8
TORSDOF 2
ENDMDL
MODEL      166
REMARK 921   NORMALIZED FREE ENERGY PREDICTED BY IDOCK:   -2.11 KCAL/MOL
REMARK 922        TOTAL FREE ENERGY PREDICTED BY IDOCK:   -2.62 KCAL/MOL
REMARK 923 INTER-LIGAND FREE ENERGY PREDICTED BY IDOCK:   -2.53 KCAL/MOL
REMARK 924 INTRA-LIGAND FREE ENERGY PREDICTED BY IDOCK:   -0.08 KCAL/MOL
REMARK 927      BINDING AFFINITY PREDICTED BY RF-SCORE:    0.00 PKD
ROOT
ATOM      1  N   ASN A   1     -11.125  16.498  68.611  1.00  0.00    -0.347 NA 
ATOM      2  H1  ASN A   1     -11.129  17.388  69.109  1.00  0.00     0.000 HD 
ATOM      3  H2  ASN A   1     -11.398  15.724  69.216  1.00  0.00     0.000 HD 
ATOM      4  CA  ASN A   1      -9.789  16.259  67.969  1.00  0.00    -0.236 C  
ATOM      5  OXT ASN A   1      -8.498  17.534  66.325  1.00  0.00    -0.359 OA 
ATOM      6  C   ASN A   1      -9.486  17.440  67.034  1.00  0.00    -0.266 C  
ATOM      7  O   ASN A   1     -10.433  18.410  67.130  1.00  0.00    -0.381 OA 
ENDROOT
BRANCH   4   8
ATOM      8  CB  ASN A   1      -9.783  14.929  67.224  1.00  0.00    -0.228 C  
BRANCH   8   9
ATOM      9  CG  ASN A   1      -9.154  13.741  67.923  1.00  0.00    -0.193 C  
ATOM     10  ND2 ASN A   1      -8.297  13.971  68.955  1.00  0.00    -0.347 N  
ATOM     11  OD1 ASN A   1      -9.492  12.591  67.657  1.00  0.00    -0.178 OA 
ATOM     12 1HD2 ASN A   1      -7.873  13.171  69.426  1.00  0.00     0.000 HD 
ATOM     13 2HD2 ASN A   1      -8.082  14.922  69.251  1.00  0.00     0.000 HD 
ENDBRANCH   8   9
ENDBRANCH   4   8
TORSDOF 2
ENDMDL
MODEL      167
REMARK 921   NORMALIZED FREE ENERGY PREDICTED BY IDOCK:   -2.11 KCAL/MOL
REMARK 922        TOTAL FREE ENERGY PREDICTED BY IDOCK:   -2.61 KCAL/MOL
REMARK 923 INTER-LIGAND FREE ENERGY PREDICTED BY IDOCK:   -2.22 KCAL/MOL
REMARK 924 INTRA-LIGAND FREE ENERGY PREDICTED BY IDOCK:   -0.40 KCAL/MOL
REMARK 927      BINDING AFFINITY PREDICTED BY RF-SCORE:    0.00 PKD
ROOT
ATOM      1  N   ASN A   1     -11.312   6.667  68.545  1.00  0.00    -0.576 NA 
ATOM      2  H1  ASN A   1     -11.229   7.311  67.758  1.00  0.00     0.000 HD 
ATOM      3  H2  ASN A   1     -12.150   6.091  68.476  1.00  0.00     0.000 HD 
ATOM      4  CA  ASN A   1     -11.257   7.416  69.846  1.00  0.00    -0.135 C  
ATOM      5  OXT ASN A   1      -9.566   8.886  70.832  1.00  0.00    -0.196 OA 
ATOM      6  C   ASN A   1      -9.942   8.207  69.890  1.00  0.00    -0.190 C  
ATOM      7  O   ASN A   1      -9.258   8.108  68.721  1.00  0.00    -0.144 OA 
ENDROOT
BRANCH   4   8
ATOM      8  CB  ASN A   1     -11.382   6.454  71.022  1.00  0.00    -0.386 C  
BRANCH   8   9
ATOM      9  CG  ASN A   1     -10.290   5.417  71.194  1.00  0.00    -0.235 C  
ATOM     10  ND2 ASN A   1     -10.081   4.519  70.194  1.00  0.00    -0.211 N  
ATOM     11  OD1 ASN A   1      -9.523   5.450  72.153  1.00  0.00    -0.142 OA 
ATOM     12 1HD2 ASN A   1      -9.346   3.821  70.310  1.00  0.00     0.000 HD 
ATOM     13 2HD2 ASN A   1     -10.647   4.542  69.346  1.00  0.00     0.000 HD 
ENDBRANCH   8   9
ENDBRANCH   4   8
TORSDOF 2
ENDMDL
MODEL      168
REMARK 921   NORMALIZED FREE ENERGY PREDICTED BY IDOCK:   -2.09 KCAL/MOL
REMARK 922        TOTAL FREE ENERGY PREDICTED BY IDOCK:   -2.59 KCAL/MOL
REMARK 923 INTER-LIGAND FREE ENERGY PREDICTED BY IDOCK:   -2.43 KCAL/MOL
REMARK 924 INTRA-LIGAND FREE ENERGY PREDICTED BY IDOCK:   -0.16 KCAL/MOL
REMARK 927      BINDING AFFINITY PREDICTED BY RF-SCORE:    0.00 PKD
ROOT
ATOM      1  N   ASN A   1      -8.205   8.500  73.615  1.00  0.00    -0.397 NA 
ATOM      2  H1  ASN A   1      -7.287   8.576  73.177  1.00  0.00     0.000 HD 
ATOM      3  H2  ASN A   1      -8.138   8.189  74.584  1.00  0.00     0.000 HD 
ATOM      4  CA  ASN A   1      -9.103   7.610  72.805  1.00  0.00    -0.165 C  
ATOM      5  OXT ASN A   1      -9.881   7.722  70.487  1.00  0.00    -0.182 OA 
ATOM      6  C   ASN A   1      -9.193   8.183  71.384  1.00  0.00    -0.153 C  
ATOM      7  O   ASN A   1      -8.364   9.246  71.218  1.00  0.00    -0.317 OA 
ENDROOT
BRANCH   4   8
ATOM      8  CB  ASN A   1     -10.475   7.497  73.460  1.00  0.00    -0.362 C  
BRANCH   8   9
ATOM      9  CG  ASN A   1     -11.215   6.182  73.308  1.00  0.00    -0.036 C  
ATOM     10  ND2 ASN A   1     -12.240   6.112  72.415  1.00  0.00    -0.532 N  
ATOM     11  OD1 ASN A   1     -10.833   5.165  73.878  1.00  0.00    -0.289 OA 
ATOM     12 1HD2 ASN A   1     -12.738   5.227  72.313  1.00  0.00     0.000 HD 
ATOM     13 2HD2 ASN A   1     -12.506   6.926  71.861  1.00  0.00     0.000 HD 
ENDBRANCH   8   9
ENDBRANCH   4   8
TORSDOF 2
ENDMDL
MODEL      169
REMARK 921   NORMALIZED FREE ENERGY PREDICTED BY IDOCK:   -2.08 KCAL/MOL
REMARK 922        TOTAL FREE ENERGY PREDICTED BY IDOCK:   -2.59 KCAL/MOL
REMARK 923 INTER-LIGAND FREE ENERGY PREDICTED BY IDOCK:   -2.21 KCAL/MOL
REMARK 924 INTRA-LIGAND FREE ENERGY PREDICTED BY IDOCK:   -0.38 KCAL/MOL
REMARK 927      BINDING AFFINITY PREDICTED BY RF-SCORE:    0.00 PKD
ROOT
ATOM      1  N   ASN A   1      -9.625   9.294  65.080  1.00  0.00    -0.458 NA 
ATOM      2  H1  ASN A   1      -8.894   9.643  64.459  1.00  0.00     0.000 HD 
ATOM      3  H2  ASN A   1     -10.550   9.374  64.659  1.00  0.00     0.000 HD 
ATOM      4  CA  ASN A   1      -9.557   9.983  66.413  1.00  0.00    -0.196 C  
ATOM      5  OXT ASN A   1      -7.785  10.154  68.093  1.00  0.00    -0.087 OA 
ATOM      6  C   ASN A   1      -8.155   9.762  66.998  1.00  0.00    -0.113 C  
ATOM      7  O   ASN A   1      -7.342   9.119  66.121  1.00  0.00    -0.092 OA 
ENDROOT
BRANCH   4   8
ATOM      8  CB  ASN A   1     -10.649   9.462  67.340  1.00  0.00    -0.326 C  
BRANCH   8   9
ATOM      9  CG  ASN A   1     -10.628   7.986  67.682  1.00  0.00    -0.194 C  
ATOM     10  ND2 ASN A   1     -10.677   7.081  66.666  1.00  0.00    -0.532 N  
ATOM     11  OD1 ASN A   1     -10.448   7.599  68.834  1.00  0.00    -0.211 OA 
ATOM     12 1HD2 ASN A   1     -10.663   6.088  66.896  1.00  0.00     0.000 HD 
ATOM     13 2HD2 ASN A   1     -10.727   7.390  65.696  1.00  0.00     0.000 HD 
ENDBRANCH   8   9
ENDBRANCH   4   8
TORSDOF 2
ENDMDL
MODEL      170
REMARK 921   NORMALIZED FREE ENERGY PREDICTED BY IDOCK:   -2.08 KCAL/MOL
REMARK 922        TOTAL FREE ENERGY PREDICTED BY IDOCK:   -2.58 KCAL/MOL
REMARK 923 INTER-LIGAND FREE ENERGY PREDICTED BY IDOCK:   -2.41 KCAL/MOL
REMARK 924 INTRA-LIGAND FREE ENERGY PREDICTED BY IDOCK:   -0.17 KCAL/MOL
REMARK 927      BINDING AFFINITY PREDICTED BY RF-SCORE:    0.00 PKD
ROOT
ATOM      1  N   ASN A   1     -11.245   7.337  67.349  1.00  0.00    -0.553 NA 
ATOM      2  H1  ASN A   1     -10.778   7.573  66.473  1.00  0.00     0.000 HD 
ATOM      3  H2  ASN A   1     -11.455   8.167  67.902  1.00  0.00     0.000 HD 
ATOM      4  CA  ASN A   1     -10.435   6.339  68.126  1.00  0.00    -0.226 C  
ATOM      5  OXT ASN A   1      -9.636   4.088  67.589  1.00  0.00    -0.180 OA 
ATOM      6  C   ASN A   1     -10.218   5.103  67.241  1.00  0.00    -0.190 C  
ATOM      7  O   ASN A   1     -10.705   5.292  65.987  1.00  0.00    -0.221 OA 
ENDROOT
BRANCH   4   8
ATOM      8  CB  ASN A   1     -11.133   5.986  69.434  1.00  0.00    -0.445 C  
BRANCH   8   9
ATOM      9  CG  ASN A   1     -11.114   7.024  70.538  1.00  0.00    -0.280 C  
ATOM     10  ND2 ASN A   1     -10.078   7.016  71.421  1.00  0.00    -0.189 N  
ATOM     11  OD1 ASN A   1     -11.940   7.932  70.575  1.00  0.00    -0.127 OA 
ATOM     12 1HD2 ASN A   1     -10.065   7.715  72.164  1.00  0.00     0.000 HD 
ATOM     13 2HD2 ASN A   1      -9.332   6.326  71.342  1.00  0.00     0.000 HD 
ENDBRANCH   8   9
ENDBRANCH   4   8
TORSDOF 2
ENDMDL
MODEL      171
REMARK 921   NORMALIZED FREE ENERGY PREDICTED BY IDOCK:   -2.08 KCAL/MOL
REMARK 922        TOTAL FREE ENERGY PREDICTED BY IDOCK:   -2.58 KCAL/MOL
REMARK 923 INTER-LIGAND FREE ENERGY PREDICTED BY IDOCK:   -2.27 KCAL/MOL
REMARK 924 INTRA-LIGAND FREE ENERGY PREDICTED BY IDOCK:   -0.31 KCAL/MOL
REMARK 927      BINDING AFFINITY PREDICTED BY RF-SCORE:    0.00 PKD
ROOT
ATOM      1  N   ASN A   1      -9.364  13.722  66.071  1.00  0.00    -0.503 NA 
ATOM      2  H1  ASN A   1      -8.776  14.413  65.605  1.00  0.00     0.000 HD 
ATOM      3  H2  ASN A   1     -10.177  13.474  65.508  1.00  0.00     0.000 HD 
ATOM      4  CA  ASN A   1      -9.759  14.202  67.438  1.00  0.00    -0.232 C  
ATOM      5  OXT ASN A   1      -8.448  14.858  69.398  1.00  0.00    -0.157 OA 
ATOM      6  C   ASN A   1      -8.479  14.494  68.234  1.00  0.00    -0.161 C  
ATOM      7  O   ASN A   1      -7.368  14.354  67.465  1.00  0.00    -0.173 OA 
ENDROOT
BRANCH   4   8
ATOM      8  CB  ASN A   1     -10.638  13.170  68.134  1.00  0.00    -0.257 C  
BRANCH   8   9
ATOM      9  CG  ASN A   1      -9.996  11.851  68.517  1.00  0.00    -0.192 C  
ATOM     10  ND2 ASN A   1     -10.421  11.223  69.646  1.00  0.00    -0.445 N  
ATOM     11  OD1 ASN A   1      -9.197  11.290  67.772  1.00  0.00    -0.150 OA 
ATOM     12 1HD2 ASN A   1      -9.989  10.335  69.903  1.00  0.00     0.000 HD 
ATOM     13 2HD2 ASN A   1     -11.156  11.630  70.224  1.00  0.00     0.000 HD 
ENDBRANCH   8   9
ENDBRANCH   4   8
TORSDOF 2
ENDMDL
MODEL      172
REMARK 921   NORMALIZED FREE ENERGY PREDICTED BY IDOCK:   -2.07 KCAL/MOL
REMARK 922        TOTAL FREE ENERGY PREDICTED BY IDOCK:   -2.57 KCAL/MOL
REMARK 923 INTER-LIGAND FREE ENERGY PREDICTED BY IDOCK:   -2.39 KCAL/MOL
REMARK 924 INTRA-LIGAND FREE ENERGY PREDICTED BY IDOCK:   -0.18 KCAL/MOL
REMARK 927      BINDING AFFINITY PREDICTED BY RF-SCORE:    0.00 PKD
ROOT
ATOM      1  N   ASN A   1     -10.130   4.852  69.214  1.00  0.00    -0.203 NA 
ATOM      2  H1  ASN A   1      -9.248   4.341  69.249  1.00  0.00     0.000 HD 
ATOM      3  H2  ASN A   1     -10.219   5.398  68.358  1.00  0.00     0.000 HD 
ATOM      4  CA  ASN A   1     -10.293   5.705  70.439  1.00  0.00    -0.260 C  
ATOM      5  OXT ASN A   1     -10.343   5.169  72.827  1.00  0.00    -0.181 OA 
ATOM      6  C   ASN A   1     -10.205   4.796  71.674  1.00  0.00    -0.179 C  
ATOM      7  O   ASN A   1      -9.896   3.518  71.334  1.00  0.00    -0.177 OA 
ENDROOT
BRANCH   4   8
ATOM      8  CB  ASN A   1     -11.612   6.468  70.388  1.00  0.00    -0.470 C  
BRANCH   8   9
ATOM      9  CG  ASN A   1     -11.628   7.871  70.962  1.00  0.00    -0.282 C  
ATOM     10  ND2 ASN A   1     -12.094   8.052  72.227  1.00  0.00    -0.397 N  
ATOM     11  OD1 ASN A   1     -11.124   8.814  70.357  1.00  0.00    -0.241 OA 
ATOM     12 1HD2 ASN A   1     -12.105   8.996  72.613  1.00  0.00     0.000 HD 
ATOM     13 2HD2 ASN A   1     -12.426   7.261  72.779  1.00  0.00     0.000 HD 
ENDBRANCH   8   9
ENDBRANCH   4   8
TORSDOF 2
ENDMDL
MODEL      173
REMARK 921   NORMALIZED FREE ENERGY PREDICTED BY IDOCK:   -2.07 KCAL/MOL
REMARK 922        TOTAL FREE ENERGY PREDICTED BY IDOCK:   -2.57 KCAL/MOL
REMARK 923 INTER-LIGAND FREE ENERGY PREDICTED BY IDOCK:   -2.27 KCAL/MOL
REMARK 924 INTRA-LIGAND FREE ENERGY PREDICTED BY IDOCK:   -0.30 KCAL/MOL
REMARK 927      BINDING AFFINITY PREDICTED BY RF-SCORE:    0.00 PKD
ROOT
ATOM      1  N   ASN A   1     -10.235   5.189  70.156  1.00  0.00    -0.270 NA 
ATOM      2  H1  ASN A   1     -10.371   4.261  69.753  1.00  0.00     0.000 HD 
ATOM      3  H2  ASN A   1     -10.418   5.198  71.159  1.00  0.00     0.000 HD 
ATOM      4  CA  ASN A   1     -11.068   6.206  69.428  1.00  0.00    -0.409 C  
ATOM      5  OXT ASN A   1     -11.145   6.899  67.082  1.00  0.00    -0.370 OA 
ATOM      6  C   ASN A   1     -10.686   6.165  67.942  1.00  0.00    -0.296 C  
ATOM      7  O   ASN A   1      -9.805   5.165  67.678  1.00  0.00    -0.144 OA 
ENDROOT
BRANCH   4   8
ATOM      8  CB  ASN A   1     -10.865   7.592  70.029  1.00  0.00    -0.260 C  
BRANCH   8   9
ATOM      9  CG  ASN A   1      -9.459   8.160  70.013  1.00  0.00    -0.167 C  
ATOM     10  ND2 ASN A   1      -9.304   9.512  70.031  1.00  0.00    -0.218 N  
ATOM     11  OD1 ASN A   1      -8.475   7.432  70.105  1.00  0.00    -0.134 OA 
ATOM     12 1HD2 ASN A   1      -8.358   9.895  70.020  1.00  0.00     0.000 HD 
ATOM     13 2HD2 ASN A   1     -10.115  10.130  70.054  1.00  0.00     0.000 HD 
ENDBRANCH   8   9
ENDBRANCH   4   8
TORSDOF 2
ENDMDL
MODEL      174
REMARK 921   NORMALIZED FREE ENERGY PREDICTED BY IDOCK:   -2.05 KCAL/MOL
REMARK 922        TOTAL FREE ENERGY PREDICTED BY IDOCK:   -2.55 KCAL/MOL
REMARK 923 INTER-LIGAND FREE ENERGY PREDICTED BY IDOCK:   -2.46 KCAL/MOL
REMARK 924 INTRA-LIGAND FREE ENERGY PREDICTED BY IDOCK:   -0.10 KCAL/MOL
REMARK 927      BINDING AFFINITY PREDICTED BY RF-SCORE:    0.00 PKD
ROOT
ATOM      1  N   ASN A   1     -12.280  14.832  67.143  1.00  0.00    -0.441 NA 
ATOM      2  H1  ASN A   1     -12.768  15.689  66.880  1.00  0.00     0.000 HD 
ATOM      3  H2  ASN A   1     -12.509  14.543  68.094  1.00  0.00     0.000 HD 
ATOM      4  CA  ASN A   1     -10.799  14.988  66.949  1.00  0.00    -0.315 C  
ATOM      5  OXT ASN A   1      -9.441  15.520  64.984  1.00  0.00    -0.076 OA 
ATOM      6  C   ASN A   1     -10.543  15.364  65.483  1.00  0.00    -0.383 C  
ATOM      7  O   ASN A   1     -11.704  15.563  64.806  1.00  0.00    -0.294 OA 
ENDROOT
BRANCH   4   8
ATOM      8  CB  ASN A   1     -10.071  13.708  67.343  1.00  0.00    -0.241 C  
BRANCH   8   9
ATOM      9  CG  ASN A   1      -8.933  13.830  68.337  1.00  0.00    -0.166 C  
ATOM     10  ND2 ASN A   1      -8.987  14.819  69.270  1.00  0.00    -0.392 N  
ATOM     11  OD1 ASN A   1      -8.039  12.990  68.390  1.00  0.00    -0.148 OA 
ATOM     12 1HD2 ASN A   1      -8.221  14.901  69.939  1.00  0.00     0.000 HD 
ATOM     13 2HD2 ASN A   1      -9.775  15.465  69.299  1.00  0.00     0.000 HD 
ENDBRANCH   8   9
ENDBRANCH   4   8
TORSDOF 2
ENDMDL
MODEL      175
REMARK 921   NORMALIZED FREE ENERGY PREDICTED BY IDOCK:   -2.03 KCAL/MOL
REMARK 922        TOTAL FREE ENERGY PREDICTED BY IDOCK:   -2.53 KCAL/MOL
REMARK 923 INTER-LIGAND FREE ENERGY PREDICTED BY IDOCK:   -2.29 KCAL/MOL
REMARK 924 INTRA-LIGAND FREE ENERGY PREDICTED BY IDOCK:   -0.24 KCAL/MOL
REMARK 927      BINDING AFFINITY PREDICTED BY RF-SCORE:    0.00 PKD
ROOT
ATOM      1  N   ASN A   1     -11.186  13.352  66.011  1.00  0.00    -0.294 NA 
ATOM      2  H1  ASN A   1     -11.621  14.275  66.013  1.00  0.00     0.000 HD 
ATOM      3  H2  ASN A   1     -11.872  12.610  66.145  1.00  0.00     0.000 HD 
ATOM      4  CA  ASN A   1     -10.087  13.286  67.033  1.00  0.00    -0.242 C  
ATOM      5  OXT ASN A   1      -8.038  14.590  67.336  1.00  0.00    -0.175 OA 
ATOM      6  C   ASN A   1      -9.074  14.398  66.722  1.00  0.00    -0.257 C  
ATOM      7  O   ASN A   1      -9.498  15.191  65.703  1.00  0.00    -0.307 OA 
ENDROOT
BRANCH   4   8
ATOM      8  CB  ASN A   1      -9.437  11.908  67.030  1.00  0.00    -0.192 C  
BRANCH   8   9
ATOM      9  CG  ASN A   1     -10.304  10.728  66.639  1.00  0.00    -0.241 C  
ATOM     10  ND2 ASN A   1      -9.987  10.032  65.512  1.00  0.00    -0.303 N  
ATOM     11  OD1 ASN A   1     -11.200  10.322  67.374  1.00  0.00    -0.274 OA 
ATOM     12 1HD2 ASN A   1     -10.571   9.238  65.249  1.00  0.00     0.000 HD 
ATOM     13 2HD2 ASN A   1      -9.184  10.299  64.944  1.00  0.00     0.000 HD 
ENDBRANCH   8   9
ENDBRANCH   4   8
TORSDOF 2
ENDMDL
MODEL      176
REMARK 921   NORMALIZED FREE ENERGY PREDICTED BY IDOCK:   -2.01 KCAL/MOL
REMARK 922        TOTAL FREE ENERGY PREDICTED BY IDOCK:   -2.51 KCAL/MOL
REMARK 923 INTER-LIGAND FREE ENERGY PREDICTED BY IDOCK:   -2.18 KCAL/MOL
REMARK 924 INTRA-LIGAND FREE ENERGY PREDICTED BY IDOCK:   -0.32 KCAL/MOL
REMARK 927      BINDING AFFINITY PREDICTED BY RF-SCORE:    0.00 PKD
ROOT
ATOM      1  N   ASN A   1     -11.105   7.142  68.206  1.00  0.00    -0.479 NA 
ATOM      2  H1  ASN A   1     -11.197   6.188  67.856  1.00  0.00     0.000 HD 
ATOM      3  H2  ASN A   1     -11.983   7.491  68.589  1.00  0.00     0.000 HD 
ATOM      4  CA  ASN A   1     -10.564   8.046  67.136  1.00  0.00    -0.297 C  
ATOM      5  OXT ASN A   1      -8.495   8.000  65.830  1.00  0.00    -0.133 OA 
ATOM      6  C   ASN A   1      -9.219   7.479  66.662  1.00  0.00    -0.162 C  
ATOM      7  O   ASN A   1      -8.947   6.281  67.242  1.00  0.00    -0.114 OA 
ENDROOT
BRANCH   4   8
ATOM      8  CB  ASN A   1     -10.427   9.471  67.660  1.00  0.00    -0.321 C  
BRANCH   8   9
ATOM      9  CG  ASN A   1     -10.146   9.647  69.139  1.00  0.00    -0.189 C  
ATOM     10  ND2 ASN A   1     -10.907  10.526  69.846  1.00  0.00    -0.330 N  
ATOM     11  OD1 ASN A   1      -9.336   8.934  69.724  1.00  0.00    -0.158 OA 
ATOM     12 1HD2 ASN A   1     -10.718  10.645  70.841  1.00  0.00     0.000 HD 
ATOM     13 2HD2 ASN A   1     -11.651  11.055  69.391  1.00  0.00     0.000 HD 
ENDBRANCH   8   9
ENDBRANCH   4   8
TORSDOF 2
ENDMDL
MODEL      177
REMARK 921   NORMALIZED FREE ENERGY PREDICTED BY IDOCK:   -1.98 KCAL/MOL
REMARK 922        TOTAL FREE ENERGY PREDICTED BY IDOCK:   -2.47 KCAL/MOL
REMARK 923 INTER-LIGAND FREE ENERGY PREDICTED BY IDOCK:   -2.07 KCAL/MOL
REMARK 924 INTRA-LIGAND FREE ENERGY PREDICTED BY IDOCK:   -0.40 KCAL/MOL
REMARK 927      BINDING AFFINITY PREDICTED BY RF-SCORE:    0.00 PKD
ROOT
ATOM      1  N   ASN A   1      -8.977   8.659  66.555  1.00  0.00    -0.145 NA 
ATOM      2  H1  ASN A   1      -8.625   8.190  65.720  1.00  0.00     0.000 HD 
ATOM      3  H2  ASN A   1      -9.104   8.008  67.330  1.00  0.00     0.000 HD 
ATOM      4  CA  ASN A   1     -10.239   9.411  66.246  1.00  0.00    -0.214 C  
ATOM      5  OXT ASN A   1     -10.744  11.202  64.655  1.00  0.00    -0.325 OA 
ATOM      6  C   ASN A   1      -9.942  10.405  65.114  1.00  0.00    -0.322 C  
ATOM      7  O   ASN A   1      -8.680  10.255  64.634  1.00  0.00    -0.170 OA 
ENDROOT
BRANCH   4   8
ATOM      8  CB  ASN A   1     -10.764  10.112  67.494  1.00  0.00    -0.347 C  
BRANCH   8   9
ATOM      9  CG  ASN A   1      -9.879  11.166  68.127  1.00  0.00    -0.180 C  
ATOM     10  ND2 ASN A   1     -10.335  12.447  68.191  1.00  0.00    -0.220 N  
ATOM     11  OD1 ASN A   1      -8.825  10.866  68.681  1.00  0.00    -0.146 OA 
ATOM     12 1HD2 ASN A   1      -9.739  13.156  68.617  1.00  0.00     0.000 HD 
ATOM     13 2HD2 ASN A   1     -11.253  12.692  67.822  1.00  0.00     0.000 HD 
ENDBRANCH   8   9
ENDBRANCH   4   8
TORSDOF 2
ENDMDL
MODEL      178
REMARK 921   NORMALIZED FREE ENERGY PREDICTED BY IDOCK:   -1.97 KCAL/MOL
REMARK 922        TOTAL FREE ENERGY PREDICTED BY IDOCK:   -2.46 KCAL/MOL
REMARK 923 INTER-LIGAND FREE ENERGY PREDICTED BY IDOCK:   -2.35 KCAL/MOL
REMARK 924 INTRA-LIGAND FREE ENERGY PREDICTED BY IDOCK:   -0.11 KCAL/MOL
REMARK 927      BINDING AFFINITY PREDICTED BY RF-SCORE:    0.00 PKD
ROOT
ATOM      1  N   ASN A   1     -11.238   6.858  68.410  1.00  0.00    -0.523 NA 
ATOM      2  H1  ASN A   1     -11.067   6.127  69.100  1.00  0.00     0.000 HD 
ATOM      3  H2  ASN A   1     -11.212   6.495  67.458  1.00  0.00     0.000 HD 
ATOM      4  CA  ASN A   1     -10.276   7.996  68.599  1.00  0.00    -0.206 C  
ATOM      5  OXT ASN A   1      -9.818   9.470  70.499  1.00  0.00    -0.248 OA 
ATOM      6  C   ASN A   1     -10.425   8.518  70.035  1.00  0.00    -0.223 C  
ATOM      7  O   ASN A   1     -11.280   7.752  70.761  1.00  0.00    -0.265 OA 
ENDROOT
BRANCH   4   8
ATOM      8  CB  ASN A   1     -10.532   9.089  67.568  1.00  0.00    -0.338 C  
BRANCH   8   9
ATOM      9  CG  ASN A   1      -9.360   9.531  66.714  1.00  0.00    -0.153 C  
ATOM     10  ND2 ASN A   1      -9.582   9.823  65.403  1.00  0.00    -0.275 N  
ATOM     11  OD1 ASN A   1      -8.255   9.743  67.207  1.00  0.00    -0.116 OA 
ATOM     12 1HD2 ASN A   1      -8.793  10.121  64.829  1.00  0.00     0.000 HD 
ATOM     13 2HD2 ASN A   1     -10.517   9.746  65.004  1.00  0.00     0.000 HD 
ENDBRANCH   8   9
ENDBRANCH   4   8
TORSDOF 2
ENDMDL
MODEL      179
REMARK 921   NORMALIZED FREE ENERGY PREDICTED BY IDOCK:   -1.95 KCAL/MOL
REMARK 922        TOTAL FREE ENERGY PREDICTED BY IDOCK:   -2.43 KCAL/MOL
REMARK 923 INTER-LIGAND FREE ENERGY PREDICTED BY IDOCK:   -2.05 KCAL/MOL
REMARK 924 INTRA-LIGAND FREE ENERGY PREDICTED BY IDOCK:   -0.39 KCAL/MOL
REMARK 927      BINDING AFFINITY PREDICTED BY RF-SCORE:    0.00 PKD
ROOT
ATOM      1  N   ASN A   1     -11.215   9.497  67.906  1.00  0.00    -0.489 NA 
ATOM      2  H1  ASN A   1     -12.085   8.994  68.083  1.00  0.00     0.000 HD 
ATOM      3  H2  ASN A   1     -11.163   9.838  66.947  1.00  0.00     0.000 HD 
ATOM      4  CA  ASN A   1     -10.031   8.643  68.259  1.00  0.00    -0.180 C  
ATOM      5  OXT ASN A   1      -9.339   7.563  70.344  1.00  0.00    -0.161 OA 
ATOM      6  C   ASN A   1     -10.161   8.225  69.730  1.00  0.00    -0.197 C  
ATOM      7  O   ASN A   1     -11.340   8.635  70.266  1.00  0.00    -0.235 OA 
ENDROOT
BRANCH   4   8
ATOM      8  CB  ASN A   1      -8.732   9.394  67.994  1.00  0.00    -0.124 C  
BRANCH   8   9
ATOM      9  CG  ASN A   1      -8.445  10.614  68.847  1.00  0.00    -0.154 C  
ATOM     10  ND2 ASN A   1      -9.192  11.735  68.652  1.00  0.00    -0.355 N  
ATOM     11  OD1 ASN A   1      -7.645  10.569  69.777  1.00  0.00    -0.151 OA 
ATOM     12 1HD2 ASN A   1      -8.999  12.556  69.226  1.00  0.00     0.000 HD 
ATOM     13 2HD2 ASN A   1      -9.928  11.755  67.947  1.00  0.00     0.000 HD 
ENDBRANCH   8   9
ENDBRANCH   4   8
TORSDOF 2
ENDMDL
MODEL      180
REMARK 921   NORMALIZED FREE ENERGY PREDICTED BY IDOCK:   -1.94 KCAL/MOL
REMARK 922        TOTAL FREE ENERGY PREDICTED BY IDOCK:   -2.42 KCAL/MOL
REMARK 923 INTER-LIGAND FREE ENERGY PREDICTED BY IDOCK:   -1.96 KCAL/MOL
REMARK 924 INTRA-LIGAND FREE ENERGY PREDICTED BY IDOCK:   -0.46 KCAL/MOL
REMARK 927      BINDING AFFINITY PREDICTED BY RF-SCORE:    0.00 PKD
ROOT
ATOM      1  N   ASN A   1     -10.164   9.601  67.913  1.00  0.00    -0.185 NA 
ATOM      2  H1  ASN A   1     -10.648   8.749  68.196  1.00  0.00     0.000 HD 
ATOM      3  H2  ASN A   1     -10.126   9.696  66.899  1.00  0.00     0.000 HD 
ATOM      4  CA  ASN A   1      -8.796   9.658  68.531  1.00  0.00    -0.124 C  
ATOM      5  OXT ASN A   1      -8.035   9.631  70.857  1.00  0.00    -0.307 OA 
ATOM      6  C   ASN A   1      -8.952   9.567  70.056  1.00  0.00    -0.223 C  
ATOM      7  O   ASN A   1     -10.244   9.348  70.415  1.00  0.00    -0.217 OA 
ENDROOT
BRANCH   4   8
ATOM      8  CB  ASN A   1      -8.072  10.931  68.109  1.00  0.00    -0.119 C  
BRANCH   8   9
ATOM      9  CG  ASN A   1      -8.900  12.023  67.461  1.00  0.00    -0.172 C  
ATOM     10  ND2 ASN A   1      -8.906  12.118  66.104  1.00  0.00    -0.402 N  
ATOM     11  OD1 ASN A   1      -9.648  12.736  68.125  1.00  0.00    -0.214 OA 
ATOM     12 1HD2 ASN A   1      -9.464  12.852  65.668  1.00  0.00     0.000 HD 
ATOM     13 2HD2 ASN A   1      -8.366  11.468  65.534  1.00  0.00     0.000 HD 
ENDBRANCH   8   9
ENDBRANCH   4   8
TORSDOF 2
ENDMDL
MODEL      181
REMARK 921   NORMALIZED FREE ENERGY PREDICTED BY IDOCK:   -1.92 KCAL/MOL
REMARK 922        TOTAL FREE ENERGY PREDICTED BY IDOCK:   -2.40 KCAL/MOL
REMARK 923 INTER-LIGAND FREE ENERGY PREDICTED BY IDOCK:   -2.13 KCAL/MOL
REMARK 924 INTRA-LIGAND FREE ENERGY PREDICTED BY IDOCK:   -0.28 KCAL/MOL
REMARK 927      BINDING AFFINITY PREDICTED BY RF-SCORE:    0.00 PKD
ROOT
ATOM      1  N   ASN A   1     -10.942  11.942  67.527  1.00  0.00    -0.233 NA 
ATOM      2  H1  ASN A   1     -11.851  12.206  67.909  1.00  0.00     0.000 HD 
ATOM      3  H2  ASN A   1     -10.792  12.335  66.599  1.00  0.00     0.000 HD 
ATOM      4  CA  ASN A   1     -10.782  10.449  67.534  1.00  0.00    -0.287 C  
ATOM      5  OXT ASN A   1     -10.852   8.790  69.333  1.00  0.00    -0.205 OA 
ATOM      6  C   ASN A   1     -10.965   9.951  68.975  1.00  0.00    -0.190 C  
ATOM      7  O   ASN A   1     -11.328  10.959  69.810  1.00  0.00    -0.256 OA 
ENDROOT
BRANCH   4   8
ATOM      8  CB  ASN A   1      -9.424  10.054  66.964  1.00  0.00    -0.197 C  
BRANCH   8   9
ATOM      9  CG  ASN A   1      -8.827  10.952  65.899  1.00  0.00    -0.186 C  
ATOM     10  ND2 ASN A   1      -7.956  11.925  66.281  1.00  0.00    -0.377 N  
ATOM     11  OD1 ASN A   1      -9.020  10.741  64.705  1.00  0.00    -0.195 OA 
ATOM     12 1HD2 ASN A   1      -7.554  12.529  65.564  1.00  0.00     0.000 HD 
ATOM     13 2HD2 ASN A   1      -7.710  12.048  67.263  1.00  0.00     0.000 HD 
ENDBRANCH   8   9
ENDBRANCH   4   8
TORSDOF 2
ENDMDL
MODEL      182
REMARK 921   NORMALIZED FREE ENERGY PREDICTED BY IDOCK:   -1.92 KCAL/MOL
REMARK 922        TOTAL FREE ENERGY PREDICTED BY IDOCK:   -2.40 KCAL/MOL
REMARK 923 INTER-LIGAND FREE ENERGY PREDICTED BY IDOCK:   -2.07 KCAL/MOL
REMARK 924 INTRA-LIGAND FREE ENERGY PREDICTED BY IDOCK:   -0.32 KCAL/MOL
REMARK 927      BINDING AFFINITY PREDICTED BY RF-SCORE:    0.00 PKD
ROOT
ATOM      1  N   ASN A   1      -8.468   9.584  67.509  1.00  0.00    -0.125 NA 
ATOM      2  H1  ASN A   1      -8.900   9.707  68.425  1.00  0.00     0.000 HD 
ATOM      3  H2  ASN A   1      -7.461   9.443  67.581  1.00  0.00     0.000 HD 
ATOM      4  CA  ASN A   1      -8.808  10.735  66.607  1.00  0.00    -0.145 C  
ATOM      5  OXT ASN A   1     -10.942  11.639  65.818  1.00  0.00    -0.292 OA 
ATOM      6  C   ASN A   1     -10.337  10.836  66.510  1.00  0.00    -0.244 C  
ATOM      7  O   ASN A   1     -10.951   9.951  67.338  1.00  0.00    -0.269 OA 
ENDROOT
BRANCH   4   8
ATOM      8  CB  ASN A   1      -8.162  10.550  65.238  1.00  0.00    -0.146 C  
BRANCH   8   9
ATOM      9  CG  ASN A   1      -8.717   9.456  64.347  1.00  0.00    -0.199 C  
ATOM     10  ND2 ASN A   1      -9.579   9.801  63.353  1.00  0.00    -0.504 N  
ATOM     11  OD1 ASN A   1      -8.314   8.299  64.431  1.00  0.00    -0.151 OA 
ATOM     12 1HD2 ASN A   1      -9.952   9.065  62.753  1.00  0.00     0.000 HD 
ATOM     13 2HD2 ASN A   1      -9.847  10.774  63.209  1.00  0.00     0.000 HD 
ENDBRANCH   8   9
ENDBRANCH   4   8
TORSDOF 2
ENDMDL
MODEL      183
REMARK 921   NORMALIZED FREE ENERGY PREDICTED BY IDOCK:   -1.90 KCAL/MOL
REMARK 922        TOTAL FREE ENERGY PREDICTED BY IDOCK:   -2.39 KCAL/MOL
REMARK 923 INTER-LIGAND FREE ENERGY PREDICTED BY IDOCK:   -2.13 KCAL/MOL
REMARK 924 INTRA-LIGAND FREE ENERGY PREDICTED BY IDOCK:   -0.26 KCAL/MOL
REMARK 927      BINDING AFFINITY PREDICTED BY RF-SCORE:    0.00 PKD
ROOT
ATOM      1  N   ASN A   1      -9.679   7.602  70.205  1.00  0.00    -0.179 NA 
ATOM      2  H1  ASN A   1      -9.463   8.458  69.694  1.00  0.00     0.000 HD 
ATOM      3  H2  ASN A   1     -10.550   7.179  69.886  1.00  0.00     0.000 HD 
ATOM      4  CA  ASN A   1      -9.694   7.861  71.684  1.00  0.00    -0.163 C  
ATOM      5  OXT ASN A   1      -7.997   8.718  73.226  1.00  0.00    -0.409 OA 
ATOM      6  C   ASN A   1      -8.330   8.439  72.085  1.00  0.00    -0.164 C  
ATOM      7  O   ASN A   1      -7.541   8.662  71.002  1.00  0.00    -0.079 OA 
ENDROOT
BRANCH   4   8
ATOM      8  CB  ASN A   1     -10.017   6.582  72.448  1.00  0.00    -0.183 C  
BRANCH   8   9
ATOM      9  CG  ASN A   1     -11.441   6.069  72.380  1.00  0.00    -0.308 C  
ATOM     10  ND2 ASN A   1     -12.319   6.693  71.548  1.00  0.00    -0.347 N  
ATOM     11  OD1 ASN A   1     -11.778   5.042  72.963  1.00  0.00    -0.297 OA 
ATOM     12 1HD2 ASN A   1     -13.278   6.347  71.503  1.00  0.00     0.000 HD 
ATOM     13 2HD2 ASN A   1     -12.025   7.488  70.983  1.00  0.00     0.000 HD 
ENDBRANCH   8   9
ENDBRANCH   4   8
TORSDOF 2
ENDMDL
MODEL      184
REMARK 921   NORMALIZED FREE ENERGY PREDICTED BY IDOCK:   -1.90 KCAL/MOL
REMARK 922        TOTAL FREE ENERGY PREDICTED BY IDOCK:   -2.38 KCAL/MOL
REMARK 923 INTER-LIGAND FREE ENERGY PREDICTED BY IDOCK:   -2.37 KCAL/MOL
REMARK 924 INTRA-LIGAND FREE ENERGY PREDICTED BY IDOCK:   -0.01 KCAL/MOL
REMARK 927      BINDING AFFINITY PREDICTED BY RF-SCORE:    0.00 PKD
ROOT
ATOM      1  N   ASN A   1     -12.082  12.686  69.797  1.00  0.00    -0.272 NA 
ATOM      2  H1  ASN A   1     -11.846  13.436  70.448  1.00  0.00     0.000 HD 
ATOM      3  H2  ASN A   1     -12.171  11.788  70.271  1.00  0.00     0.000 HD 
ATOM      4  CA  ASN A   1     -11.084  12.629  68.676  1.00  0.00    -0.266 C  
ATOM      5  OXT ASN A   1     -10.387  14.275  67.004  1.00  0.00    -0.263 OA 
ATOM      6  C   ASN A   1     -11.059  13.999  67.984  1.00  0.00    -0.263 C  
ATOM      7  O   ASN A   1     -11.840  14.902  68.632  1.00  0.00    -0.325 OA 
ENDROOT
BRANCH   4   8
ATOM      8  CB  ASN A   1     -11.436  11.508  67.704  1.00  0.00    -0.357 C  
BRANCH   8   9
ATOM      9  CG  ASN A   1     -10.482  11.258  66.553  1.00  0.00    -0.253 C  
ATOM     10  ND2 ASN A   1      -9.147  11.218  66.811  1.00  0.00    -0.169 N  
ATOM     11  OD1 ASN A   1     -10.895  10.975  65.432  1.00  0.00    -0.206 OA 
ATOM     12 1HD2 ASN A   1      -8.505  11.049  66.036  1.00  0.00     0.000 HD 
ATOM     13 2HD2 ASN A   1      -8.795  11.354  67.758  1.00  0.00     0.000 HD 
ENDBRANCH   8   9
ENDBRANCH   4   8
TORSDOF 2
ENDMDL
MODEL      185
REMARK 921   NORMALIZED FREE ENERGY PREDICTED BY IDOCK:   -1.90 KCAL/MOL
REMARK 922        TOTAL FREE ENERGY PREDICTED BY IDOCK:   -2.38 KCAL/MOL
REMARK 923 INTER-LIGAND FREE ENERGY PREDICTED BY IDOCK:   -2.30 KCAL/MOL
REMARK 924 INTRA-LIGAND FREE ENERGY PREDICTED BY IDOCK:   -0.08 KCAL/MOL
REMARK 927      BINDING AFFINITY PREDICTED BY RF-SCORE:    0.00 PKD
ROOT
ATOM      1  N   ASN A   1     -11.675   7.643  72.953  1.00  0.00    -0.610 NA 
ATOM      2  H1  ASN A   1     -12.439   7.172  73.438  1.00  0.00     0.000 HD 
ATOM      3  H2  ASN A   1     -11.930   8.590  72.674  1.00  0.00     0.000 HD 
ATOM      4  CA  ASN A   1     -11.209   6.824  71.783  1.00  0.00    -0.259 C  
ATOM      5  OXT ASN A   1     -10.322   4.549  71.612  1.00  0.00    -0.175 OA 
ATOM      6  C   ASN A   1     -10.792   5.441  72.301  1.00  0.00    -0.227 C  
ATOM      7  O   ASN A   1     -11.060   5.299  73.625  1.00  0.00    -0.297 OA 
ENDROOT
BRANCH   4   8
ATOM      8  CB  ASN A   1     -10.068   7.528  71.058  1.00  0.00    -0.190 C  
BRANCH   8   9
ATOM      9  CG  ASN A   1     -10.417   8.741  70.219  1.00  0.00    -0.208 C  
ATOM     10  ND2 ASN A   1      -9.682   9.875  70.376  1.00  0.00    -0.379 N  
ATOM     11  OD1 ASN A   1     -11.261   8.680  69.328  1.00  0.00     0.045 OA 
ATOM     12 1HD2 ASN A   1      -9.917  10.691  69.810  1.00  0.00     0.000 HD 
ATOM     13 2HD2 ASN A   1      -8.912   9.909  71.044  1.00  0.00     0.000 HD 
ENDBRANCH   8   9
ENDBRANCH   4   8
TORSDOF 2
ENDMDL
MODEL      186
REMARK 921   NORMALIZED FREE ENERGY PREDICTED BY IDOCK:   -1.84 KCAL/MOL
REMARK 922        TOTAL FREE ENERGY PREDICTED BY IDOCK:   -2.32 KCAL/MOL
REMARK 923 INTER-LIGAND FREE ENERGY PREDICTED BY IDOCK:   -2.07 KCAL/MOL
REMARK 924 INTRA-LIGAND FREE ENERGY PREDICTED BY IDOCK:   -0.24 KCAL/MOL
REMARK 927      BINDING AFFINITY PREDICTED BY RF-SCORE:    0.00 PKD
ROOT
ATOM      1  N   ASN A   1      -9.977   3.891  71.626  1.00  0.00    -0.179 NA 
ATOM      2  H1  ASN A   1      -9.641   3.747  72.578  1.00  0.00     0.000 HD 
ATOM      3  H2  ASN A   1      -9.353   3.474  70.937  1.00  0.00     0.000 HD 
ATOM      4  CA  ASN A   1     -10.203   5.352  71.362  1.00  0.00    -0.216 C  
ATOM      5  OXT ASN A   1     -11.629   7.022  72.445  1.00  0.00    -0.273 OA 
ATOM      6  C   ASN A   1     -11.197   5.881  72.406  1.00  0.00    -0.291 C  
ATOM      7  O   ASN A   1     -11.504   4.934  73.331  1.00  0.00    -0.336 OA 
ENDROOT
BRANCH   4   8
ATOM      8  CB  ASN A   1     -10.705   5.567  69.939  1.00  0.00    -0.358 C  
BRANCH   8   9
ATOM      9  CG  ASN A   1      -9.808   5.110  68.806  1.00  0.00    -0.168 C  
ATOM     10  ND2 ASN A   1      -9.411   6.025  67.880  1.00  0.00    -0.111 N  
ATOM     11  OD1 ASN A   1      -9.345   3.973  68.778  1.00  0.00    -0.140 OA 
ATOM     12 1HD2 ASN A   1      -8.807   5.717  67.118  1.00  0.00     0.000 HD 
ATOM     13 2HD2 ASN A   1      -9.710   6.997  67.947  1.00  0.00     0.000 HD 
ENDBRANCH   8   9
ENDBRANCH   4   8
TORSDOF 2
ENDMDL
MODEL      187
REMARK 921   NORMALIZED FREE ENERGY PREDICTED BY IDOCK:   -1.84 KCAL/MOL
REMARK 922        TOTAL FREE ENERGY PREDICTED BY IDOCK:   -2.31 KCAL/MOL
REMARK 923 INTER-LIGAND FREE ENERGY PREDICTED BY IDOCK:   -2.21 KCAL/MOL
REMARK 924 INTRA-LIGAND FREE ENERGY PREDICTED BY IDOCK:   -0.10 KCAL/MOL
REMARK 927      BINDING AFFINITY PREDICTED BY RF-SCORE:    0.00 PKD
ROOT
ATOM      1  N   ASN A   1      -8.006   6.170  70.511  1.00  0.00    -0.109 NA 
ATOM      2  H1  ASN A   1      -7.984   5.285  70.005  1.00  0.00     0.000 HD 
ATOM      3  H2  ASN A   1      -7.277   6.218  71.222  1.00  0.00     0.000 HD 
ATOM      4  CA  ASN A   1      -9.369   6.412  71.092  1.00  0.00    -0.160 C  
ATOM      5  OXT ASN A   1     -11.588   6.589  70.073  1.00  0.00    -0.407 OA 
ATOM      6  C   ASN A   1     -10.392   6.382  69.947  1.00  0.00    -0.196 C  
ATOM      7  O   ASN A   1      -9.814   6.038  68.767  1.00  0.00    -0.130 OA 
ENDROOT
BRANCH   4   8
ATOM      8  CB  ASN A   1      -9.401   7.736  71.848  1.00  0.00    -0.195 C  
BRANCH   8   9
ATOM      9  CG  ASN A   1      -9.590   7.676  73.351  1.00  0.00    -0.288 C  
ATOM     10  ND2 ASN A   1     -10.693   7.051  73.844  1.00  0.00    -0.471 N  
ATOM     11  OD1 ASN A   1      -8.718   8.071  74.120  1.00  0.00    -0.258 OA 
ATOM     12 1HD2 ASN A   1     -10.820   7.011  74.856  1.00  0.00     0.000 HD 
ATOM     13 2HD2 ASN A   1     -11.379   6.631  73.217  1.00  0.00     0.000 HD 
ENDBRANCH   8   9
ENDBRANCH   4   8
TORSDOF 2
ENDMDL
MODEL      188
REMARK 921   NORMALIZED FREE ENERGY PREDICTED BY IDOCK:   -1.83 KCAL/MOL
REMARK 922        TOTAL FREE ENERGY PREDICTED BY IDOCK:   -2.31 KCAL/MOL
REMARK 923 INTER-LIGAND FREE ENERGY PREDICTED BY IDOCK:   -1.94 KCAL/MOL
REMARK 924 INTRA-LIGAND FREE ENERGY PREDICTED BY IDOCK:   -0.36 KCAL/MOL
REMARK 927      BINDING AFFINITY PREDICTED BY RF-SCORE:    0.00 PKD
ROOT
ATOM      1  N   ASN A   1     -10.978   7.826  68.775  1.00  0.00    -0.421 NA 
ATOM      2  H1  ASN A   1     -11.266   8.580  69.398  1.00  0.00     0.000 HD 
ATOM      3  H2  ASN A   1     -11.568   7.774  67.945  1.00  0.00     0.000 HD 
ATOM      4  CA  ASN A   1     -10.936   6.519  69.513  1.00  0.00    -0.340 C  
ATOM      5  OXT ASN A   1      -9.690   5.778  71.485  1.00  0.00    -0.156 OA 
ATOM      6  C   ASN A   1      -9.983   6.671  70.707  1.00  0.00    -0.184 C  
ATOM      7  O   ASN A   1      -9.539   7.949  70.834  1.00  0.00    -0.160 OA 
ENDROOT
BRANCH   4   8
ATOM      8  CB  ASN A   1     -10.504   5.392  68.581  1.00  0.00    -0.199 C  
BRANCH   8   9
ATOM      9  CG  ASN A   1      -9.374   5.682  67.613  1.00  0.00    -0.110 C  
ATOM     10  ND2 ASN A   1      -9.680   6.189  66.388  1.00  0.00    -0.273 N  
ATOM     11  OD1 ASN A   1      -8.199   5.581  67.955  1.00  0.00    -0.100 OA 
ATOM     12 1HD2 ASN A   1      -8.920   6.384  65.737  1.00  0.00     0.000 HD 
ATOM     13 2HD2 ASN A   1     -10.649   6.371  66.126  1.00  0.00     0.000 HD 
ENDBRANCH   8   9
ENDBRANCH   4   8
TORSDOF 2
ENDMDL
MODEL      189
REMARK 921   NORMALIZED FREE ENERGY PREDICTED BY IDOCK:   -1.83 KCAL/MOL
REMARK 922        TOTAL FREE ENERGY PREDICTED BY IDOCK:   -2.30 KCAL/MOL
REMARK 923 INTER-LIGAND FREE ENERGY PREDICTED BY IDOCK:   -2.18 KCAL/MOL
REMARK 924 INTRA-LIGAND FREE ENERGY PREDICTED BY IDOCK:   -0.12 KCAL/MOL
REMARK 927      BINDING AFFINITY PREDICTED BY RF-SCORE:    0.00 PKD
ROOT
ATOM      1  N   ASN A   1     -12.281  13.104  68.029  1.00  0.00    -0.172 NA 
ATOM      2  H1  ASN A   1     -12.474  14.106  68.021  1.00  0.00     0.000 HD 
ATOM      3  H2  ASN A   1     -12.418  12.700  68.955  1.00  0.00     0.000 HD 
ATOM      4  CA  ASN A   1     -10.904  12.829  67.498  1.00  0.00    -0.239 C  
ATOM      5  OXT ASN A   1      -9.833  13.327  65.354  1.00  0.00    -0.219 OA 
ATOM      6  C   ASN A   1     -10.807  13.418  66.083  1.00  0.00    -0.281 C  
ATOM      7  O   ASN A   1     -11.927  14.113  65.752  1.00  0.00    -0.370 OA 
ENDROOT
BRANCH   4   8
ATOM      8  CB  ASN A   1     -10.616  11.332  67.510  1.00  0.00    -0.257 C  
BRANCH   8   9
ATOM      9  CG  ASN A   1      -9.273  10.884  68.054  1.00  0.00    -0.156 C  
ATOM     10  ND2 ASN A   1      -9.193  10.503  69.358  1.00  0.00    -0.364 N  
ATOM     11  OD1 ASN A   1      -8.300  10.747  67.318  1.00  0.00    -0.122 OA 
ATOM     12 1HD2 ASN A   1      -8.289  10.202  69.723  1.00  0.00     0.000 HD 
ATOM     13 2HD2 ASN A   1     -10.018  10.518  69.957  1.00  0.00     0.000 HD 
ENDBRANCH   8   9
ENDBRANCH   4   8
TORSDOF 2
ENDMDL
MODEL      190
REMARK 921   NORMALIZED FREE ENERGY PREDICTED BY IDOCK:   -1.82 KCAL/MOL
REMARK 922        TOTAL FREE ENERGY PREDICTED BY IDOCK:   -2.29 KCAL/MOL
REMARK 923 INTER-LIGAND FREE ENERGY PREDICTED BY IDOCK:   -2.20 KCAL/MOL
REMARK 924 INTRA-LIGAND FREE ENERGY PREDICTED BY IDOCK:   -0.09 KCAL/MOL
REMARK 927      BINDING AFFINITY PREDICTED BY RF-SCORE:    0.00 PKD
ROOT
ATOM      1  N   ASN A   1      -9.067   7.229  69.648  1.00  0.00    -0.141 NA 
ATOM      2  H1  ASN A   1      -8.103   7.075  69.354  1.00  0.00     0.000 HD 
ATOM      3  H2  ASN A   1      -9.182   8.129  70.114  1.00  0.00     0.000 HD 
ATOM      4  CA  ASN A   1      -9.544   6.092  70.506  1.00  0.00    -0.168 C  
ATOM      5  OXT ASN A   1      -9.730   3.686  70.099  1.00  0.00    -0.192 OA 
ATOM      6  C   ASN A   1      -9.391   4.790  69.707  1.00  0.00    -0.141 C  
ATOM      7  O   ASN A   1      -8.773   5.003  68.516  1.00  0.00    -0.097 OA 
ENDROOT
BRANCH   4   8
ATOM      8  CB  ASN A   1     -10.985   6.323  70.946  1.00  0.00    -0.344 C  
BRANCH   8   9
ATOM      9  CG  ASN A   1     -11.245   6.472  72.432  1.00  0.00    -0.275 C  
ATOM     10  ND2 ASN A   1     -11.969   7.541  72.863  1.00  0.00    -0.574 N  
ATOM     11  OD1 ASN A   1     -10.922   5.594  73.228  1.00  0.00    -0.265 OA 
ATOM     12 1HD2 ASN A   1     -12.144   7.641  73.863  1.00  0.00     0.000 HD 
ATOM     13 2HD2 ASN A   1     -12.328   8.228  72.200  1.00  0.00     0.000 HD 
ENDBRANCH   8   9
ENDBRANCH   4   8
TORSDOF 2
ENDMDL
MODEL      191
REMARK 921   NORMALIZED FREE ENERGY PREDICTED BY IDOCK:   -1.80 KCAL/MOL
REMARK 922        TOTAL FREE ENERGY PREDICTED BY IDOCK:   -2.27 KCAL/MOL
REMARK 923 INTER-LIGAND FREE ENERGY PREDICTED BY IDOCK:   -1.94 KCAL/MOL
REMARK 924 INTRA-LIGAND FREE ENERGY PREDICTED BY IDOCK:   -0.33 KCAL/MOL
REMARK 927      BINDING AFFINITY PREDICTED BY RF-SCORE:    0.00 PKD
ROOT
ATOM      1  N   ASN A   1      -8.464   8.284  67.721  1.00  0.00    -0.130 NA 
ATOM      2  H1  ASN A   1      -7.757   8.955  67.420  1.00  0.00     0.000 HD 
ATOM      3  H2  ASN A   1      -8.529   8.232  68.737  1.00  0.00     0.000 HD 
ATOM      4  CA  ASN A   1      -8.205   6.936  67.110  1.00  0.00    -0.118 C  
ATOM      5  OXT ASN A   1      -8.038   6.184  64.786  1.00  0.00    -0.129 OA 
ATOM      6  C   ASN A   1      -8.181   7.097  65.583  1.00  0.00    -0.138 C  
ATOM      7  O   ASN A   1      -8.282   8.401  65.214  1.00  0.00    -0.134 OA 
ENDROOT
BRANCH   4   8
ATOM      8  CB  ASN A   1      -9.261   5.933  67.559  1.00  0.00    -0.108 C  
BRANCH   8   9
ATOM      9  CG  ASN A   1     -10.691   6.426  67.664  1.00  0.00    -0.311 C  
ATOM     10  ND2 ASN A   1     -11.505   6.298  66.581  1.00  0.00    -0.647 N  
ATOM     11  OD1 ASN A   1     -11.153   6.820  68.731  1.00  0.00    -0.227 OA 
ATOM     12 1HD2 ASN A   1     -12.467   6.630  66.652  1.00  0.00     0.000 HD 
ATOM     13 2HD2 ASN A   1     -11.160   5.881  65.717  1.00  0.00     0.000 HD 
ENDBRANCH   8   9
ENDBRANCH   4   8
TORSDOF 2
ENDMDL
MODEL      192
REMARK 921   NORMALIZED FREE ENERGY PREDICTED BY IDOCK:   -1.79 KCAL/MOL
REMARK 922        TOTAL FREE ENERGY PREDICTED BY IDOCK:   -2.26 KCAL/MOL
REMARK 923 INTER-LIGAND FREE ENERGY PREDICTED BY IDOCK:   -2.01 KCAL/MOL
REMARK 924 INTRA-LIGAND FREE ENERGY PREDICTED BY IDOCK:   -0.25 KCAL/MOL
REMARK 927      BINDING AFFINITY PREDICTED BY RF-SCORE:    0.00 PKD
ROOT
ATOM      1  N   ASN A   1     -10.064   7.301  72.505  1.00  0.00    -0.179 NA 
ATOM      2  H1  ASN A   1      -9.754   8.187  72.107  1.00  0.00     0.000 HD 
ATOM      3  H2  ASN A   1      -9.468   7.003  73.276  1.00  0.00     0.000 HD 
ATOM      4  CA  ASN A   1     -10.161   6.249  71.437  1.00  0.00    -0.191 C  
ATOM      5  OXT ASN A   1     -11.453   6.121  69.361  1.00  0.00    -0.423 OA 
ATOM      6  C   ASN A   1     -11.120   6.755  70.349  1.00  0.00    -0.308 C  
ATOM      7  O   ASN A   1     -11.518   8.032  70.587  1.00  0.00    -0.277 OA 
ENDROOT
BRANCH   4   8
ATOM      8  CB  ASN A   1     -10.624   4.924  72.031  1.00  0.00    -0.210 C  
BRANCH   8   9
ATOM      9  CG  ASN A   1      -9.991   3.657  71.489  1.00  0.00    -0.111 C  
ATOM     10  ND2 ASN A   1      -9.642   3.614  70.175  1.00  0.00    -0.187 N  
ATOM     11  OD1 ASN A   1      -9.683   2.730  72.233  1.00  0.00    -0.127 OA 
ATOM     12 1HD2 ASN A   1      -9.216   2.762  69.811  1.00  0.00     0.000 HD 
ATOM     13 2HD2 ASN A   1      -9.803   4.417  69.567  1.00  0.00     0.000 HD 
ENDBRANCH   8   9
ENDBRANCH   4   8
TORSDOF 2
ENDMDL
MODEL      193
REMARK 921   NORMALIZED FREE ENERGY PREDICTED BY IDOCK:   -1.77 KCAL/MOL
REMARK 922        TOTAL FREE ENERGY PREDICTED BY IDOCK:   -2.23 KCAL/MOL
REMARK 923 INTER-LIGAND FREE ENERGY PREDICTED BY IDOCK:   -1.98 KCAL/MOL
REMARK 924 INTRA-LIGAND FREE ENERGY PREDICTED BY IDOCK:   -0.25 KCAL/MOL
REMARK 927      BINDING AFFINITY PREDICTED BY RF-SCORE:    0.00 PKD
ROOT
ATOM      1  N   ASN A   1      -8.724  12.741  68.464  1.00  0.00    -0.354 NA 
ATOM      2  H1  ASN A   1      -8.333  13.610  68.828  1.00  0.00     0.000 HD 
ATOM      3  H2  ASN A   1      -8.131  11.939  68.679  1.00  0.00     0.000 HD 
ATOM      4  CA  ASN A   1      -8.988  12.859  66.990  1.00  0.00    -0.225 C  
ATOM      5  OXT ASN A   1     -10.380  14.391  65.683  1.00  0.00    -0.307 OA 
ATOM      6  C   ASN A   1      -9.932  14.050  66.765  1.00  0.00    -0.268 C  
ATOM      7  O   ASN A   1     -10.170  14.725  67.919  1.00  0.00    -0.226 OA 
ENDROOT
BRANCH   4   8
ATOM      8  CB  ASN A   1      -9.573  11.561  66.446  1.00  0.00    -0.230 C  
BRANCH   8   9
ATOM      9  CG  ASN A   1      -8.856  10.272  66.798  1.00  0.00    -0.133 C  
ATOM     10  ND2 ASN A   1      -9.009   9.763  68.051  1.00  0.00    -0.119 N  
ATOM     11  OD1 ASN A   1      -8.248   9.627  65.948  1.00  0.00    -0.116 OA 
ATOM     12 1HD2 ASN A   1      -8.527   8.895  68.287  1.00  0.00     0.000 HD 
ATOM     13 2HD2 ASN A   1      -9.593  10.238  68.738  1.00  0.00     0.000 HD 
ENDBRANCH   8   9
ENDBRANCH   4   8
TORSDOF 2
ENDMDL
MODEL      194
REMARK 921   NORMALIZED FREE ENERGY PREDICTED BY IDOCK:   -1.76 KCAL/MOL
REMARK 922        TOTAL FREE ENERGY PREDICTED BY IDOCK:   -2.22 KCAL/MOL
REMARK 923 INTER-LIGAND FREE ENERGY PREDICTED BY IDOCK:   -2.00 KCAL/MOL
REMARK 924 INTRA-LIGAND FREE ENERGY PREDICTED BY IDOCK:   -0.22 KCAL/MOL
REMARK 927      BINDING AFFINITY PREDICTED BY RF-SCORE:    0.00 PKD
ROOT
ATOM      1  N   ASN A   1      -9.260   7.047  65.576  1.00  0.00    -0.357 NA 
ATOM      2  H1  ASN A   1      -8.484   6.434  65.326  1.00  0.00     0.000 HD 
ATOM      3  H2  ASN A   1      -9.101   8.006  65.268  1.00  0.00     0.000 HD 
ATOM      4  CA  ASN A   1      -9.534   6.974  67.051  1.00  0.00    -0.149 C  
ATOM      5  OXT ASN A   1     -10.126   5.113  68.527  1.00  0.00    -0.171 OA 
ATOM      6  C   ASN A   1      -9.821   5.510  67.415  1.00  0.00    -0.148 C  
ATOM      7  O   ASN A   1      -9.637   4.684  66.351  1.00  0.00    -0.150 OA 
ENDROOT
BRANCH   4   8
ATOM      8  CB  ASN A   1     -10.694   7.889  67.425  1.00  0.00    -0.278 C  
BRANCH   8   9
ATOM      9  CG  ASN A   1     -10.472   9.384  67.302  1.00  0.00    -0.264 C  
ATOM     10  ND2 ASN A   1      -9.725   9.847  66.262  1.00  0.00    -0.206 N  
ATOM     11  OD1 ASN A   1     -11.044  10.178  68.043  1.00  0.00    -0.278 OA 
ATOM     12 1HD2 ASN A   1      -9.576  10.853  66.179  1.00  0.00     0.000 HD 
ATOM     13 2HD2 ASN A   1      -9.324   9.203  65.581  1.00  0.00     0.000 HD 
ENDBRANCH   8   9
ENDBRANCH   4   8
TORSDOF 2
ENDMDL
MODEL      195
REMARK 921   NORMALIZED FREE ENERGY PREDICTED BY IDOCK:   -1.73 KCAL/MOL
REMARK 922        TOTAL FREE ENERGY PREDICTED BY IDOCK:   -2.19 KCAL/MOL
REMARK 923 INTER-LIGAND FREE ENERGY PREDICTED BY IDOCK:   -1.99 KCAL/MOL
REMARK 924 INTRA-LIGAND FREE ENERGY PREDICTED BY IDOCK:   -0.20 KCAL/MOL
REMARK 927      BINDING AFFINITY PREDICTED BY RF-SCORE:    0.00 PKD
ROOT
ATOM      1  N   ASN A   1      -9.504   4.622  67.958  1.00  0.00    -0.138 NA 
ATOM      2  H1  ASN A   1      -9.957   3.748  68.223  1.00  0.00     0.000 HD 
ATOM      3  H2  ASN A   1      -9.607   5.336  68.678  1.00  0.00     0.000 HD 
ATOM      4  CA  ASN A   1     -10.013   5.096  66.626  1.00  0.00    -0.210 C  
ATOM      5  OXT ASN A   1     -10.021   4.070  64.404  1.00  0.00    -0.181 OA 
ATOM      6  C   ASN A   1      -9.765   3.987  65.594  1.00  0.00    -0.192 C  
ATOM      7  O   ASN A   1      -9.272   2.862  66.176  1.00  0.00    -0.147 OA 
ENDROOT
BRANCH   4   8
ATOM      8  CB  ASN A   1      -9.335   6.403  66.230  1.00  0.00    -0.149 C  
BRANCH   8   9
ATOM      9  CG  ASN A   1     -10.014   7.694  66.642  1.00  0.00    -0.214 C  
ATOM     10  ND2 ASN A   1     -11.032   7.635  67.542  1.00  0.00    -0.534 N  
ATOM     11  OD1 ASN A   1      -9.587   8.785  66.274  1.00  0.00    -0.223 OA 
ATOM     12 1HD2 ASN A   1     -11.489   8.504  67.820  1.00  0.00     0.000 HD 
ATOM     13 2HD2 ASN A   1     -11.333   6.742  67.932  1.00  0.00     0.000 HD 
ENDBRANCH   8   9
ENDBRANCH   4   8
TORSDOF 2
ENDMDL
MODEL      196
REMARK 921   NORMALIZED FREE ENERGY PREDICTED BY IDOCK:   -1.71 KCAL/MOL
REMARK 922        TOTAL FREE ENERGY PREDICTED BY IDOCK:   -2.17 KCAL/MOL
REMARK 923 INTER-LIGAND FREE ENERGY PREDICTED BY IDOCK:   -1.94 KCAL/MOL
REMARK 924 INTRA-LIGAND FREE ENERGY PREDICTED BY IDOCK:   -0.23 KCAL/MOL
REMARK 927      BINDING AFFINITY PREDICTED BY RF-SCORE:    0.00 PKD
ROOT
ATOM      1  N   ASN A   1      -8.587   8.603  69.136  1.00  0.00    -0.128 NA 
ATOM      2  H1  ASN A   1      -8.130   9.215  69.812  1.00  0.00     0.000 HD 
ATOM      3  H2  ASN A   1      -9.011   9.130  68.374  1.00  0.00     0.000 HD 
ATOM      4  CA  ASN A   1      -9.583   7.712  69.821  1.00  0.00    -0.163 C  
ATOM      5  OXT ASN A   1      -9.362   6.069  71.622  1.00  0.00    -0.149 OA 
ATOM      6  C   ASN A   1      -8.849   6.917  70.910  1.00  0.00    -0.149 C  
ATOM      7  O   ASN A   1      -7.554   7.311  71.031  1.00  0.00    -0.082 OA 
ENDROOT
BRANCH   4   8
ATOM      8  CB  ASN A   1     -10.266   6.797  68.811  1.00  0.00    -0.184 C  
BRANCH   8   9
ATOM      9  CG  ASN A   1     -10.818   7.436  67.552  1.00  0.00    -0.187 C  
ATOM     10  ND2 ASN A   1     -11.393   6.635  66.614  1.00  0.00    -0.689 N  
ATOM     11  OD1 ASN A   1     -10.862   8.656  67.422  1.00  0.00    -0.211 OA 
ATOM     12 1HD2 ASN A   1     -11.765   7.065  65.767  1.00  0.00     0.000 HD 
ATOM     13 2HD2 ASN A   1     -11.452   5.627  66.755  1.00  0.00     0.000 HD 
ENDBRANCH   8   9
ENDBRANCH   4   8
TORSDOF 2
ENDMDL
MODEL      197
REMARK 921   NORMALIZED FREE ENERGY PREDICTED BY IDOCK:   -1.71 KCAL/MOL
REMARK 922        TOTAL FREE ENERGY PREDICTED BY IDOCK:   -2.17 KCAL/MOL
REMARK 923 INTER-LIGAND FREE ENERGY PREDICTED BY IDOCK:   -1.91 KCAL/MOL
REMARK 924 INTRA-LIGAND FREE ENERGY PREDICTED BY IDOCK:   -0.26 KCAL/MOL
REMARK 927      BINDING AFFINITY PREDICTED BY RF-SCORE:    0.00 PKD
ROOT
ATOM      1  N   ASN A   1      -8.112   5.130  68.644  1.00  0.00    -0.086 NA 
ATOM      2  H1  ASN A   1      -7.496   4.427  68.234  1.00  0.00     0.000 HD 
ATOM      3  H2  ASN A   1      -8.067   5.126  69.662  1.00  0.00     0.000 HD 
ATOM      4  CA  ASN A   1      -9.518   4.953  68.146  1.00  0.00    -0.137 C  
ATOM      5  OXT ASN A   1     -10.486   4.972  65.898  1.00  0.00    -0.232 OA 
ATOM      6  C   ASN A   1      -9.499   5.032  66.613  1.00  0.00    -0.146 C  
ATOM      7  O   ASN A   1      -8.232   5.121  66.131  1.00  0.00    -0.108 OA 
ENDROOT
BRANCH   4   8
ATOM      8  CB  ASN A   1     -10.437   6.004  68.758  1.00  0.00    -0.307 C  
BRANCH   8   9
ATOM      9  CG  ASN A   1     -10.873   5.799  70.195  1.00  0.00    -0.313 C  
ATOM     10  ND2 ASN A   1     -10.136   4.973  70.987  1.00  0.00    -0.220 N  
ATOM     11  OD1 ASN A   1     -11.794   6.449  70.682  1.00  0.00    -0.367 OA 
ATOM     12 1HD2 ASN A   1     -10.429   4.836  71.954  1.00  0.00     0.000 HD 
ATOM     13 2HD2 ASN A   1      -9.309   4.503  70.622  1.00  0.00     0.000 HD 
ENDBRANCH   8   9
ENDBRANCH   4   8
TORSDOF 2
ENDMDL
MODEL      198
REMARK 921   NORMALIZED FREE ENERGY PREDICTED BY IDOCK:   -1.70 KCAL/MOL
REMARK 922        TOTAL FREE ENERGY PREDICTED BY IDOCK:   -2.15 KCAL/MOL
REMARK 923 INTER-LIGAND FREE ENERGY PREDICTED BY IDOCK:   -1.73 KCAL/MOL
REMARK 924 INTRA-LIGAND FREE ENERGY PREDICTED BY IDOCK:   -0.42 KCAL/MOL
REMARK 927      BINDING AFFINITY PREDICTED BY RF-SCORE:    0.00 PKD
ROOT
ATOM      1  N   ASN A   1      -8.249   6.578  69.876  1.00  0.00    -0.124 NA 
ATOM      2  H1  ASN A   1      -7.333   6.550  70.324  1.00  0.00     0.000 HD 
ATOM      3  H2  ASN A   1      -8.682   7.497  69.959  1.00  0.00     0.000 HD 
ATOM      4  CA  ASN A   1      -9.134   5.494  70.419  1.00  0.00    -0.139 C  
ATOM      5  OXT ASN A   1      -8.905   3.058  70.489  1.00  0.00    -0.071 OA 
ATOM      6  C   ASN A   1      -8.433   4.145  70.201  1.00  0.00    -0.064 C  
ATOM      7  O   ASN A   1      -7.182   4.307  69.695  1.00  0.00    -0.049 OA 
ENDROOT
BRANCH   4   8
ATOM      8  CB  ASN A   1     -10.504   5.536  69.750  1.00  0.00    -0.389 C  
BRANCH   8   9
ATOM      9  CG  ASN A   1     -10.573   6.081  68.337  1.00  0.00    -0.261 C  
ATOM     10  ND2 ASN A   1     -10.914   7.386  68.158  1.00  0.00    -0.461 N  
ATOM     11  OD1 ASN A   1     -10.216   5.406  67.375  1.00  0.00    -0.176 OA 
ATOM     12 1HD2 ASN A   1     -10.960   7.752  67.207  1.00  0.00     0.000 HD 
ATOM     13 2HD2 ASN A   1     -11.118   7.985  68.957  1.00  0.00     0.000 HD 
ENDBRANCH   8   9
ENDBRANCH   4   8
TORSDOF 2
ENDMDL
MODEL      199
REMARK 921   NORMALIZED FREE ENERGY PREDICTED BY IDOCK:   -1.68 KCAL/MOL
REMARK 922        TOTAL FREE ENERGY PREDICTED BY IDOCK:   -2.13 KCAL/MOL
REMARK 923 INTER-LIGAND FREE ENERGY PREDICTED BY IDOCK:   -2.04 KCAL/MOL
REMARK 924 INTRA-LIGAND FREE ENERGY PREDICTED BY IDOCK:   -0.09 KCAL/MOL
REMARK 927      BINDING AFFINITY PREDICTED BY RF-SCORE:    0.00 PKD
ROOT
ATOM      1  N   ASN A   1      -9.989   8.929  66.150  1.00  0.00    -0.404 NA 
ATOM      2  H1  ASN A   1      -9.219   8.601  65.567  1.00  0.00     0.000 HD 
ATOM      3  H2  ASN A   1     -10.277   9.875  65.900  1.00  0.00     0.000 HD 
ATOM      4  CA  ASN A   1      -9.633   8.820  67.605  1.00  0.00    -0.144 C  
ATOM      5  OXT ASN A   1      -8.979   6.922  69.004  1.00  0.00    -0.133 OA 
ATOM      6  C   ASN A   1      -9.272   7.358  67.903  1.00  0.00    -0.131 C  
ATOM      7  O   ASN A   1      -9.260   6.604  66.773  1.00  0.00    -0.138 OA 
ENDROOT
BRANCH   4   8
ATOM      8  CB  ASN A   1     -10.784   9.311  68.475  1.00  0.00    -0.185 C  
BRANCH   8   9
ATOM      9  CG  ASN A   1     -10.606  10.639  69.184  1.00  0.00    -0.226 C  
ATOM     10  ND2 ASN A   1      -9.390  11.246  69.134  1.00  0.00    -0.407 N  
ATOM     11  OD1 ASN A   1     -11.559  11.224  69.692  1.00  0.00    -0.271 OA 
ATOM     12 1HD2 ASN A   1      -9.270  12.140  69.611  1.00  0.00     0.000 HD 
ATOM     13 2HD2 ASN A   1      -8.613  10.817  68.631  1.00  0.00     0.000 HD 
ENDBRANCH   8   9
ENDBRANCH   4   8
TORSDOF 2
ENDMDL
MODEL      200
REMARK 921   NORMALIZED FREE ENERGY PREDICTED BY IDOCK:   -1.61 KCAL/MOL
REMARK 922        TOTAL FREE ENERGY PREDICTED BY IDOCK:   -2.06 KCAL/MOL
REMARK 923 INTER-LIGAND FREE ENERGY PREDICTED BY IDOCK:   -1.82 KCAL/MOL
REMARK 924 INTRA-LIGAND FREE ENERGY PREDICTED BY IDOCK:   -0.24 KCAL/MOL
REMARK 927      BINDING AFFINITY PREDICTED BY RF-SCORE:    0.00 PKD
ROOT
ATOM      1  N   ASN A   1      -9.559   4.083  69.741  1.00  0.00    -0.203 NA 
ATOM      2  H1  ASN A   1      -9.977   3.304  69.231  1.00  0.00     0.000 HD 
ATOM      3  H2  ASN A   1      -9.423   3.862  70.726  1.00  0.00     0.000 HD 
ATOM      4  CA  ASN A   1     -10.374   5.331  69.556  1.00  0.00    -0.263 C  
ATOM      5  OXT ASN A   1     -11.036   6.589  67.564  1.00  0.00    -0.315 OA 
ATOM      6  C   ASN A   1     -10.478   5.620  68.052  1.00  0.00    -0.200 C  
ATOM      7  O   ASN A   1      -9.917   4.629  67.311  1.00  0.00    -0.188 OA 
ENDROOT
BRANCH   4   8
ATOM      8  CB  ASN A   1      -9.750   6.495  70.317  1.00  0.00    -0.181 C  
BRANCH   8   9
ATOM      9  CG  ASN A   1      -9.792   6.442  71.831  1.00  0.00    -0.157 C  
ATOM     10  ND2 ASN A   1      -9.340   5.321  72.457  1.00  0.00    -0.139 N  
ATOM     11  OD1 ASN A   1     -10.110   7.424  72.496  1.00  0.00    -0.174 OA 
ATOM     12 1HD2 ASN A   1      -9.369   5.285  73.476  1.00  0.00     0.000 HD 
ATOM     13 2HD2 ASN A   1      -8.981   4.533  71.919  1.00  0.00     0.000 HD 
ENDBRANCH   8   9
ENDBRANCH   4   8
TORSDOF 2
ENDMDL
MODEL      201
REMARK 921   NORMALIZED FREE ENERGY PREDICTED BY IDOCK:   -1.60 KCAL/MOL
REMARK 922        TOTAL FREE ENERGY PREDICTED BY IDOCK:   -2.04 KCAL/MOL
REMARK 923 INTER-LIGAND FREE ENERGY PREDICTED BY IDOCK:   -1.73 KCAL/MOL
REMARK 924 INTRA-LIGAND FREE ENERGY PREDICTED BY IDOCK:   -0.32 KCAL/MOL
REMARK 927      BINDING AFFINITY PREDICTED BY RF-SCORE:    0.00 PKD
ROOT
ATOM      1  N   ASN A   1      -9.200  11.916  68.613  1.00  0.00    -0.371 NA 
ATOM      2  H1  ASN A   1      -8.866  12.718  69.148  1.00  0.00     0.000 HD 
ATOM      3  H2  ASN A   1      -9.838  11.337  69.158  1.00  0.00     0.000 HD 
ATOM      4  CA  ASN A   1      -8.044  11.122  68.077  1.00  0.00    -0.123 C  
ATOM      5  OXT ASN A   1      -6.177  11.712  66.608  1.00  0.00    -0.143 OA 
ATOM      6  C   ASN A   1      -7.172  12.055  67.225  1.00  0.00    -0.150 C  
ATOM      7  O   ASN A   1      -7.610  13.340  67.282  1.00  0.00    -0.146 OA 
ENDROOT
BRANCH   4   8
ATOM      8  CB  ASN A   1      -8.543   9.923  67.278  1.00  0.00    -0.125 C  
BRANCH   8   9
ATOM      9  CG  ASN A   1      -9.876  10.064  66.569  1.00  0.00    -0.210 C  
ATOM     10  ND2 ASN A   1      -9.911  10.708  65.371  1.00  0.00    -0.263 N  
ATOM     11  OD1 ASN A   1     -10.886   9.510  66.994  1.00  0.00    -0.196 OA 
ATOM     12 1HD2 ASN A   1     -10.808  10.802  64.894  1.00  0.00     0.000 HD 
ATOM     13 2HD2 ASN A   1      -9.060  11.088  64.959  1.00  0.00     0.000 HD 
ENDBRANCH   8   9
ENDBRANCH   4   8
TORSDOF 2
ENDMDL
MODEL      202
REMARK 921   NORMALIZED FREE ENERGY PREDICTED BY IDOCK:   -1.58 KCAL/MOL
REMARK 922        TOTAL FREE ENERGY PREDICTED BY IDOCK:   -2.03 KCAL/MOL
REMARK 923 INTER-LIGAND FREE ENERGY PREDICTED BY IDOCK:   -1.76 KCAL/MOL
REMARK 924 INTRA-LIGAND FREE ENERGY PREDICTED BY IDOCK:   -0.27 KCAL/MOL
REMARK 927      BINDING AFFINITY PREDICTED BY RF-SCORE:    0.00 PKD
ROOT
ATOM      1  N   ASN A   1     -10.817   6.156  69.576  1.00  0.00    -0.322 NA 
ATOM      2  H1  ASN A   1     -11.497   5.485  69.933  1.00  0.00     0.000 HD 
ATOM      3  H2  ASN A   1     -11.259   7.029  69.291  1.00  0.00     0.000 HD 
ATOM      4  CA  ASN A   1     -10.013   5.548  68.462  1.00  0.00    -0.157 C  
ATOM      5  OXT ASN A   1      -8.577   3.569  68.354  1.00  0.00    -0.085 OA 
ATOM      6  C   ASN A   1      -9.338   4.276  68.994  1.00  0.00    -0.160 C  
ATOM      7  O   ASN A   1      -9.735   3.991  70.262  1.00  0.00    -0.190 OA 
ENDROOT
BRANCH   4   8
ATOM      8  CB  ASN A   1      -8.996   6.550  67.928  1.00  0.00    -0.115 C  
BRANCH   8   9
ATOM      9  CG  ASN A   1      -9.529   7.857  67.374  1.00  0.00    -0.144 C  
ATOM     10  ND2 ASN A   1     -10.829   7.914  66.975  1.00  0.00    -0.457 N  
ATOM     11  OD1 ASN A   1      -8.852   8.881  67.392  1.00  0.00    -0.128 OA 
ATOM     12 1HD2 ASN A   1     -11.187   8.793  66.603  1.00  0.00     0.000 HD 
ATOM     13 2HD2 ASN A   1     -11.432   7.095  67.047  1.00  0.00     0.000 HD 
ENDBRANCH   8   9
ENDBRANCH   4   8
TORSDOF 2
ENDMDL
MODEL      203
REMARK 921   NORMALIZED FREE ENERGY PREDICTED BY IDOCK:   -1.57 KCAL/MOL
REMARK 922        TOTAL FREE ENERGY PREDICTED BY IDOCK:   -2.01 KCAL/MOL
REMARK 923 INTER-LIGAND FREE ENERGY PREDICTED BY IDOCK:   -1.55 KCAL/MOL
REMARK 924 INTRA-LIGAND FREE ENERGY PREDICTED BY IDOCK:   -0.45 KCAL/MOL
REMARK 927      BINDING AFFINITY PREDICTED BY RF-SCORE:    0.00 PKD
ROOT
ATOM      1  N   ASN A   1     -10.450   5.603  70.742  1.00  0.00    -0.251 NA 
ATOM      2  H1  ASN A   1     -10.582   4.807  70.118  1.00  0.00     0.000 HD 
ATOM      3  H2  ASN A   1     -11.282   6.189  70.789  1.00  0.00     0.000 HD 
ATOM      4  CA  ASN A   1      -9.235   6.390  70.340  1.00  0.00    -0.155 C  
ATOM      5  OXT ASN A   1      -6.875   5.780  70.117  1.00  0.00    -0.049 OA 
ATOM      6  C   ASN A   1      -8.024   5.446  70.352  1.00  0.00    -0.100 C  
ATOM      7  O   ASN A   1      -8.392   4.162  70.603  1.00  0.00    -0.068 OA 
ENDROOT
BRANCH   4   8
ATOM      8  CB  ASN A   1      -9.037   7.580  71.272  1.00  0.00    -0.147 C  
BRANCH   8   9
ATOM      9  CG  ASN A   1     -10.005   7.729  72.429  1.00  0.00    -0.214 C  
ATOM     10  ND2 ASN A   1     -11.138   8.458  72.239  1.00  0.00    -0.349 N  
ATOM     11  OD1 ASN A   1      -9.845   7.113  73.479  1.00  0.00    -0.220 OA 
ATOM     12 1HD2 ASN A   1     -11.790   8.559  73.017  1.00  0.00     0.000 HD 
ATOM     13 2HD2 ASN A   1     -11.332   8.895  71.338  1.00  0.00     0.000 HD 
ENDBRANCH   8   9
ENDBRANCH   4   8
TORSDOF 2
ENDMDL
MODEL      204
REMARK 921   NORMALIZED FREE ENERGY PREDICTED BY IDOCK:   -1.54 KCAL/MOL
REMARK 922        TOTAL FREE ENERGY PREDICTED BY IDOCK:   -1.98 KCAL/MOL
REMARK 923 INTER-LIGAND FREE ENERGY PREDICTED BY IDOCK:   -1.55 KCAL/MOL
REMARK 924 INTRA-LIGAND FREE ENERGY PREDICTED BY IDOCK:   -0.43 KCAL/MOL
REMARK 927      BINDING AFFINITY PREDICTED BY RF-SCORE:    0.00 PKD
ROOT
ATOM      1  N   ASN A   1      -9.714   5.031  64.878  1.00  0.00    -0.363 NA 
ATOM      2  H1  ASN A   1     -10.008   5.731  64.196  1.00  0.00     0.000 HD 
ATOM      3  H2  ASN A   1     -10.386   4.269  64.953  1.00  0.00     0.000 HD 
ATOM      4  CA  ASN A   1      -9.449   5.673  66.210  1.00  0.00    -0.155 C  
ATOM      5  OXT ASN A   1      -7.913   7.446  66.910  1.00  0.00    -0.111 OA 
ATOM      6  C   ASN A   1      -8.386   6.764  66.015  1.00  0.00    -0.134 C  
ATOM      7  O   ASN A   1      -8.069   6.927  64.704  1.00  0.00    -0.127 OA 
ENDROOT
BRANCH   4   8
ATOM      8  CB  ASN A   1      -9.010   4.628  67.229  1.00  0.00    -0.120 C  
BRANCH   8   9
ATOM      9  CG  ASN A   1      -8.635   3.256  66.705  1.00  0.00    -0.117 C  
ATOM     10  ND2 ASN A   1      -9.619   2.330  66.543  1.00  0.00    -0.350 N  
ATOM     11  OD1 ASN A   1      -7.497   3.010  66.315  1.00  0.00    -0.073 OA 
ATOM     12 1HD2 ASN A   1      -9.367   1.407  66.190  1.00  0.00     0.000 HD 
ATOM     13 2HD2 ASN A   1     -10.587   2.553  66.771  1.00  0.00     0.000 HD 
ENDBRANCH   8   9
ENDBRANCH   4   8
TORSDOF 2
ENDMDL
MODEL      205
REMARK 921   NORMALIZED FREE ENERGY PREDICTED BY IDOCK:   -1.46 KCAL/MOL
REMARK 922        TOTAL FREE ENERGY PREDICTED BY IDOCK:   -1.89 KCAL/MOL
REMARK 923 INTER-LIGAND FREE ENERGY PREDICTED BY IDOCK:   -1.53 KCAL/MOL
REMARK 924 INTRA-LIGAND FREE ENERGY PREDICTED BY IDOCK:   -0.36 KCAL/MOL
REMARK 927      BINDING AFFINITY PREDICTED BY RF-SCORE:    0.00 PKD
ROOT
ATOM      1  N   ASN A   1      -9.894   7.321  69.856  1.00  0.00    -0.177 NA 
ATOM      2  H1  ASN A   1     -10.526   8.100  69.666  1.00  0.00     0.000 HD 
ATOM      3  H2  ASN A   1     -10.227   6.453  69.439  1.00  0.00     0.000 HD 
ATOM      4  CA  ASN A   1      -9.664   7.178  71.333  1.00  0.00    -0.168 C  
ATOM      5  OXT ASN A   1      -8.773   8.712  73.020  1.00  0.00    -0.380 OA 
ATOM      6  C   ASN A   1      -9.110   8.507  71.865  1.00  0.00    -0.244 C  
ATOM      7  O   ASN A   1      -9.089   9.463  70.900  1.00  0.00    -0.236 OA 
ENDROOT
BRANCH   4   8
ATOM      8  CB  ASN A   1      -8.720   6.015  71.617  1.00  0.00    -0.135 C  
BRANCH   8   9
ATOM      9  CG  ASN A   1      -7.521   5.851  70.704  1.00  0.00    -0.087 C  
ATOM     10  ND2 ASN A   1      -7.647   5.068  69.598  1.00  0.00    -0.056 N  
ATOM     11  OD1 ASN A   1      -6.492   6.498  70.879  1.00  0.00    -0.046 OA 
ATOM     12 1HD2 ASN A   1      -6.840   4.958  68.984  1.00  0.00     0.000 HD 
ATOM     13 2HD2 ASN A   1      -8.528   4.601  69.387  1.00  0.00     0.000 HD 
ENDBRANCH   8   9
ENDBRANCH   4   8
TORSDOF 2
ENDMDL
MODEL      206
REMARK 921   NORMALIZED FREE ENERGY PREDICTED BY IDOCK:   -1.44 KCAL/MOL
REMARK 922        TOTAL FREE ENERGY PREDICTED BY IDOCK:   -1.87 KCAL/MOL
REMARK 923 INTER-LIGAND FREE ENERGY PREDICTED BY IDOCK:   -1.74 KCAL/MOL
REMARK 924 INTRA-LIGAND FREE ENERGY PREDICTED BY IDOCK:   -0.13 KCAL/MOL
REMARK 927      BINDING AFFINITY PREDICTED BY RF-SCORE:    0.00 PKD
ROOT
ATOM      1  N   ASN A   1     -10.659   3.881  65.113  1.00  0.00    -0.492 NA 
ATOM      2  H1  ASN A   1     -10.857   4.287  64.198  1.00  0.00     0.000 HD 
ATOM      3  H2  ASN A   1     -11.501   3.517  65.556  1.00  0.00     0.000 HD 
ATOM      4  CA  ASN A   1      -9.953   4.876  65.989  1.00  0.00    -0.223 C  
ATOM      5  OXT ASN A   1      -7.847   6.096  65.733  1.00  0.00    -0.097 OA 
ATOM      6  C   ASN A   1      -8.672   5.325  65.272  1.00  0.00    -0.151 C  
ATOM      7  O   ASN A   1      -8.587   4.800  64.022  1.00  0.00    -0.131 OA 
ENDROOT
BRANCH   4   8
ATOM      8  CB  ASN A   1      -9.658   4.270  67.356  1.00  0.00    -0.219 C  
BRANCH   8   9
ATOM      9  CG  ASN A   1      -9.886   5.146  68.572  1.00  0.00    -0.155 C  
ATOM     10  ND2 ASN A   1      -8.803   5.629  69.239  1.00  0.00    -0.110 N  
ATOM     11  OD1 ASN A   1     -11.013   5.518  68.888  1.00  0.00    -0.165 OA 
ATOM     12 1HD2 ASN A   1      -8.957   6.218  70.057  1.00  0.00     0.000 HD 
ATOM     13 2HD2 ASN A   1      -7.858   5.407  68.928  1.00  0.00     0.000 HD 
ENDBRANCH   8   9
ENDBRANCH   4   8
TORSDOF 2
ENDMDL
MODEL      207
REMARK 921   NORMALIZED FREE ENERGY PREDICTED BY IDOCK:   -1.43 KCAL/MOL
REMARK 922        TOTAL FREE ENERGY PREDICTED BY IDOCK:   -1.86 KCAL/MOL
REMARK 923 INTER-LIGAND FREE ENERGY PREDICTED BY IDOCK:   -1.69 KCAL/MOL
REMARK 924 INTRA-LIGAND FREE ENERGY PREDICTED BY IDOCK:   -0.17 KCAL/MOL
REMARK 927      BINDING AFFINITY PREDICTED BY RF-SCORE:    0.00 PKD
ROOT
ATOM      1  N   ASN A   1     -10.737   5.910  66.425  1.00  0.00    -0.576 NA 
ATOM      2  H1  ASN A   1     -11.209   6.792  66.226  1.00  0.00     0.000 HD 
ATOM      3  H2  ASN A   1     -11.276   5.109  66.098  1.00  0.00     0.000 HD 
ATOM      4  CA  ASN A   1     -10.413   5.804  67.888  1.00  0.00    -0.228 C  
ATOM      5  OXT ASN A   1      -9.082   7.208  69.388  1.00  0.00    -0.145 OA 
ATOM      6  C   ASN A   1      -9.553   7.014  68.279  1.00  0.00    -0.134 C  
ATOM      7  O   ASN A   1      -9.421   7.889  67.249  1.00  0.00    -0.138 OA 
ENDROOT
BRANCH   4   8
ATOM      8  CB  ASN A   1      -9.708   4.486  68.186  1.00  0.00    -0.188 C  
BRANCH   8   9
ATOM      9  CG  ASN A   1      -8.649   4.024  67.205  1.00  0.00    -0.102 C  
ATOM     10  ND2 ASN A   1      -7.502   3.478  67.693  1.00  0.00    -0.065 N  
ATOM     11  OD1 ASN A   1      -8.857   4.024  65.994  1.00  0.00    -0.114 OA 
ATOM     12 1HD2 ASN A   1      -6.790   3.167  67.033  1.00  0.00     0.000 HD 
ATOM     13 2HD2 ASN A   1      -7.358   3.381  68.698  1.00  0.00     0.000 HD 
ENDBRANCH   8   9
ENDBRANCH   4   8
TORSDOF 2
ENDMDL
MODEL      208
REMARK 921   NORMALIZED FREE ENERGY PREDICTED BY IDOCK:   -1.42 KCAL/MOL
REMARK 922        TOTAL FREE ENERGY PREDICTED BY IDOCK:   -1.84 KCAL/MOL
REMARK 923 INTER-LIGAND FREE ENERGY PREDICTED BY IDOCK:   -1.38 KCAL/MOL
REMARK 924 INTRA-LIGAND FREE ENERGY PREDICTED BY IDOCK:   -0.46 KCAL/MOL
REMARK 927      BINDING AFFINITY PREDICTED BY RF-SCORE:    0.00 PKD
ROOT
ATOM      1  N   ASN A   1      -9.024  12.226  69.049  1.00  0.00    -0.276 NA 
ATOM      2  H1  ASN A   1      -9.128  13.240  69.082  1.00  0.00     0.000 HD 
ATOM      3  H2  ASN A   1      -9.368  11.781  69.899  1.00  0.00     0.000 HD 
ATOM      4  CA  ASN A   1      -7.598  11.852  68.762  1.00  0.00    -0.090 C  
ATOM      5  OXT ASN A   1      -6.098  12.376  66.900  1.00  0.00    -0.244 OA 
ATOM      6  C   ASN A   1      -7.183  12.515  67.441  1.00  0.00    -0.146 C  
ATOM      7  O   ASN A   1      -8.157  13.333  66.963  1.00  0.00    -0.124 OA 
ENDROOT
BRANCH   4   8
ATOM      8  CB  ASN A   1      -7.442  10.337  68.711  1.00  0.00    -0.089 C  
BRANCH   8   9
ATOM      9  CG  ASN A   1      -8.709   9.507  68.636  1.00  0.00    -0.127 C  
ATOM     10  ND2 ASN A   1      -9.203   8.969  69.784  1.00  0.00    -0.160 N  
ATOM     11  OD1 ASN A   1      -9.351   9.416  67.594  1.00  0.00    -0.128 OA 
ATOM     12 1HD2 ASN A   1     -10.056   8.411  69.733  1.00  0.00     0.000 HD 
ATOM     13 2HD2 ASN A   1      -8.732   9.119  70.676  1.00  0.00     0.000 HD 
ENDBRANCH   8   9
ENDBRANCH   4   8
TORSDOF 2
ENDMDL
MODEL      209
REMARK 921   NORMALIZED FREE ENERGY PREDICTED BY IDOCK:   -1.40 KCAL/MOL
REMARK 922        TOTAL FREE ENERGY PREDICTED BY IDOCK:   -1.82 KCAL/MOL
REMARK 923 INTER-LIGAND FREE ENERGY PREDICTED BY IDOCK:   -1.45 KCAL/MOL
REMARK 924 INTRA-LIGAND FREE ENERGY PREDICTED BY IDOCK:   -0.37 KCAL/MOL
REMARK 927      BINDING AFFINITY PREDICTED BY RF-SCORE:    0.00 PKD
ROOT
ATOM      1  N   ASN A   1     -11.363  13.997  71.810  1.00  0.00     0.687 NA 
ATOM      2  H1  ASN A   1     -10.863  13.779  70.948  1.00  0.00     0.000 HD 
ATOM      3  H2  ASN A   1     -11.257  13.260  72.506  1.00  0.00     0.000 HD 
ATOM      4  CA  ASN A   1     -12.807  14.289  71.522  1.00  0.00    -0.346 C  
ATOM      5  OXT ASN A   1     -13.901  15.958  70.103  1.00  0.00     0.471 OA 
ATOM      6  C   ASN A   1     -12.873  15.445  70.513  1.00  0.00    -0.376 C  
ATOM      7  O   ASN A   1     -11.636  15.802  70.079  1.00  0.00    -0.310 OA 
ENDROOT
BRANCH   4   8
ATOM      8  CB  ASN A   1     -13.554  14.616  72.810  1.00  0.00    -0.538 C  
BRANCH   8   9
ATOM      9  CG  ASN A   1     -12.997  15.728  73.677  1.00  0.00    -0.549 C  
ATOM     10  ND2 ASN A   1     -11.921  15.461  74.466  1.00  0.00    -0.524 N  
ATOM     11  OD1 ASN A   1     -13.418  16.878  73.589  1.00  0.00     0.039 OA 
ATOM     12 1HD2 ASN A   1     -11.546  16.209  75.049  1.00  0.00     0.000 HD 
ATOM     13 2HD2 ASN A   1     -11.498  14.533  74.475  1.00  0.00     0.000 HD 
ENDBRANCH   8   9
ENDBRANCH   4   8
TORSDOF 2
ENDMDL
MODEL      210
REMARK 921   NORMALIZED FREE ENERGY PREDICTED BY IDOCK:   -1.40 KCAL/MOL
REMARK 922        TOTAL FREE ENERGY PREDICTED BY IDOCK:   -1.82 KCAL/MOL
REMARK 923 INTER-LIGAND FREE ENERGY PREDICTED BY IDOCK:   -1.75 KCAL/MOL
REMARK 924 INTRA-LIGAND FREE ENERGY PREDICTED BY IDOCK:   -0.07 KCAL/MOL
REMARK 927      BINDING AFFINITY PREDICTED BY RF-SCORE:    0.00 PKD
ROOT
ATOM      1  N   ASN A   1      -9.801  11.831  68.939  1.00  0.00    -0.402 NA 
ATOM      2  H1  ASN A   1      -9.262  12.689  69.055  1.00  0.00     0.000 HD 
ATOM      3  H2  ASN A   1     -10.080  11.435  69.836  1.00  0.00     0.000 HD 
ATOM      4  CA  ASN A   1      -9.041  10.840  68.105  1.00  0.00    -0.151 C  
ATOM      5  OXT ASN A   1      -8.143  10.945  65.830  1.00  0.00    -0.160 OA 
ATOM      6  C   ASN A   1      -8.715  11.497  66.756  1.00  0.00    -0.178 C  
ATOM      7  O   ASN A   1      -9.091  12.802  66.730  1.00  0.00    -0.217 OA 
ENDROOT
BRANCH   4   8
ATOM      8  CB  ASN A   1      -9.846   9.557  67.932  1.00  0.00    -0.186 C  
BRANCH   8   9
ATOM      9  CG  ASN A   1      -9.503   8.390  68.837  1.00  0.00    -0.147 C  
ATOM     10  ND2 ASN A   1      -8.638   7.445  68.380  1.00  0.00    -0.125 N  
ATOM     11  OD1 ASN A   1      -9.892   8.349  70.001  1.00  0.00    -0.179 OA 
ATOM     12 1HD2 ASN A   1      -8.407   6.660  68.989  1.00  0.00     0.000 HD 
ATOM     13 2HD2 ASN A   1      -8.229   7.519  67.449  1.00  0.00     0.000 HD 
ENDBRANCH   8   9
ENDBRANCH   4   8
TORSDOF 2
ENDMDL
MODEL      211
REMARK 921   NORMALIZED FREE ENERGY PREDICTED BY IDOCK:   -1.40 KCAL/MOL
REMARK 922        TOTAL FREE ENERGY PREDICTED BY IDOCK:   -1.82 KCAL/MOL
REMARK 923 INTER-LIGAND FREE ENERGY PREDICTED BY IDOCK:   -1.47 KCAL/MOL
REMARK 924 INTRA-LIGAND FREE ENERGY PREDICTED BY IDOCK:   -0.34 KCAL/MOL
REMARK 927      BINDING AFFINITY PREDICTED BY RF-SCORE:    0.00 PKD
ROOT
ATOM      1  N   ASN A   1     -10.190   5.844  68.562  1.00  0.00    -0.174 NA 
ATOM      2  H1  ASN A   1     -10.943   5.760  67.880  1.00  0.00     0.000 HD 
ATOM      3  H2  ASN A   1     -10.038   4.973  69.069  1.00  0.00     0.000 HD 
ATOM      4  CA  ASN A   1     -10.449   6.993  69.494  1.00  0.00    -0.220 C  
ATOM      5  OXT ASN A   1     -10.780   9.387  69.107  1.00  0.00    -0.223 OA 
ATOM      6  C   ASN A   1     -10.605   8.268  68.653  1.00  0.00    -0.108 C  
ATOM      7  O   ASN A   1     -10.583   7.997  67.322  1.00  0.00    -0.303 OA 
ENDROOT
BRANCH   4   8
ATOM      8  CB  ASN A   1      -9.323   7.119  70.514  1.00  0.00    -0.158 C  
BRANCH   8   9
ATOM      9  CG  ASN A   1      -8.021   6.406  70.207  1.00  0.00    -0.112 C  
ATOM     10  ND2 ASN A   1      -7.300   6.803  69.124  1.00  0.00    -0.091 N  
ATOM     11  OD1 ASN A   1      -7.555   5.570  70.977  1.00  0.00    -0.086 OA 
ATOM     12 1HD2 ASN A   1      -6.424   6.323  68.918  1.00  0.00     0.000 HD 
ATOM     13 2HD2 ASN A   1      -7.628   7.564  68.530  1.00  0.00     0.000 HD 
ENDBRANCH   8   9
ENDBRANCH   4   8
TORSDOF 2
ENDMDL
MODEL      212
REMARK 921   NORMALIZED FREE ENERGY PREDICTED BY IDOCK:   -1.36 KCAL/MOL
REMARK 922        TOTAL FREE ENERGY PREDICTED BY IDOCK:   -1.78 KCAL/MOL
REMARK 923 INTER-LIGAND FREE ENERGY PREDICTED BY IDOCK:   -1.41 KCAL/MOL
REMARK 924 INTRA-LIGAND FREE ENERGY PREDICTED BY IDOCK:   -0.36 KCAL/MOL
REMARK 927      BINDING AFFINITY PREDICTED BY RF-SCORE:    0.00 PKD
ROOT
ATOM      1  N   ASN A   1      -8.230   9.698  68.354  1.00  0.00    -0.105 NA 
ATOM      2  H1  ASN A   1      -9.119   9.227  68.184  1.00  0.00     0.000 HD 
ATOM      3  H2  ASN A   1      -7.619   9.661  67.538  1.00  0.00     0.000 HD 
ATOM      4  CA  ASN A   1      -7.562   9.136  69.576  1.00  0.00    -0.079 C  
ATOM      5  OXT ASN A   1      -8.271   8.971  71.913  1.00  0.00    -0.362 OA 
ATOM      6  C   ASN A   1      -8.525   9.287  70.762  1.00  0.00    -0.195 C  
ATOM      7  O   ASN A   1      -9.733   9.768  70.369  1.00  0.00    -0.255 OA 
ENDROOT
BRANCH   4   8
ATOM      8  CB  ASN A   1      -6.234   9.840  69.830  1.00  0.00    -0.051 C  
BRANCH   8   9
ATOM      9  CG  ASN A   1      -6.261  11.347  69.987  1.00  0.00    -0.148 C  
ATOM     10  ND2 ASN A   1      -5.536  11.910  70.992  1.00  0.00    -0.114 N  
ATOM     11  OD1 ASN A   1      -6.820  12.065  69.162  1.00  0.00    -0.102 OA 
ATOM     12 1HD2 ASN A   1      -5.554  12.925  71.097  1.00  0.00     0.000 HD 
ATOM     13 2HD2 ASN A   1      -4.987  11.331  71.626  1.00  0.00     0.000 HD 
ENDBRANCH   8   9
ENDBRANCH   4   8
TORSDOF 2
ENDMDL
MODEL      213
REMARK 921   NORMALIZED FREE ENERGY PREDICTED BY IDOCK:   -1.35 KCAL/MOL
REMARK 922        TOTAL FREE ENERGY PREDICTED BY IDOCK:   -1.77 KCAL/MOL
REMARK 923 INTER-LIGAND FREE ENERGY PREDICTED BY IDOCK:   -1.54 KCAL/MOL
REMARK 924 INTRA-LIGAND FREE ENERGY PREDICTED BY IDOCK:   -0.23 KCAL/MOL
REMARK 927      BINDING AFFINITY PREDICTED BY RF-SCORE:    0.00 PKD
ROOT
ATOM      1  N   ASN A   1      -8.840   7.924  69.611  1.00  0.00    -0.138 NA 
ATOM      2  H1  ASN A   1      -8.954   7.225  70.345  1.00  0.00     0.000 HD 
ATOM      3  H2  ASN A   1      -9.649   8.540  69.544  1.00  0.00     0.000 HD 
ATOM      4  CA  ASN A   1      -8.532   7.263  68.298  1.00  0.00    -0.124 C  
ATOM      5  OXT ASN A   1      -6.726   5.773  67.585  1.00  0.00    -0.055 OA 
ATOM      6  C   ASN A   1      -7.270   6.406  68.474  1.00  0.00    -0.085 C  
ATOM      7  O   ASN A   1      -6.854   6.388  69.767  1.00  0.00    -0.057 OA 
ENDROOT
BRANCH   4   8
ATOM      8  CB  ASN A   1      -8.361   8.307  67.200  1.00  0.00    -0.123 C  
BRANCH   8   9
ATOM      9  CG  ASN A   1      -9.620   8.861  66.562  1.00  0.00    -0.232 C  
ATOM     10  ND2 ASN A   1      -9.633   9.060  65.215  1.00  0.00    -0.448 N  
ATOM     11  OD1 ASN A   1     -10.650   9.016  67.211  1.00  0.00    -0.276 OA 
ATOM     12 1HD2 ASN A   1     -10.480   9.432  64.786  1.00  0.00     0.000 HD 
ATOM     13 2HD2 ASN A   1      -8.815   8.842  64.648  1.00  0.00     0.000 HD 
ENDBRANCH   8   9
ENDBRANCH   4   8
TORSDOF 2
ENDMDL
MODEL      214
REMARK 921   NORMALIZED FREE ENERGY PREDICTED BY IDOCK:   -1.35 KCAL/MOL
REMARK 922        TOTAL FREE ENERGY PREDICTED BY IDOCK:   -1.76 KCAL/MOL
REMARK 923 INTER-LIGAND FREE ENERGY PREDICTED BY IDOCK:   -1.81 KCAL/MOL
REMARK 924 INTRA-LIGAND FREE ENERGY PREDICTED BY IDOCK:    0.05 KCAL/MOL
REMARK 927      BINDING AFFINITY PREDICTED BY RF-SCORE:    0.00 PKD
ROOT
ATOM      1  N   ASN A   1     -11.143   4.147  64.465  1.00  0.00    -0.800 NA 
ATOM      2  H1  ASN A   1     -11.782   3.771  65.166  1.00  0.00     0.000 HD 
ATOM      3  H2  ASN A   1     -11.257   3.687  63.563  1.00  0.00     0.000 HD 
ATOM      4  CA  ASN A   1      -9.724   4.075  64.953  1.00  0.00    -0.193 C  
ATOM      5  OXT ASN A   1      -8.607   5.012  66.919  1.00  0.00    -0.107 OA 
ATOM      6  C   ASN A   1      -9.632   4.840  66.281  1.00  0.00    -0.178 C  
ATOM      7  O   ASN A   1     -10.853   5.264  66.701  1.00  0.00    -0.258 OA 
ENDROOT
BRANCH   4   8
ATOM      8  CB  ASN A   1      -8.770   4.638  63.906  1.00  0.00    -0.140 C  
BRANCH   8   9
ATOM      9  CG  ASN A   1      -7.284   4.485  64.162  1.00  0.00    -0.054 C  
ATOM     10  ND2 ASN A   1      -6.486   5.581  64.043  1.00  0.00    -0.032 N  
ATOM     11  OD1 ASN A   1      -6.814   3.432  64.586  1.00  0.00    -0.045 OA 
ATOM     12 1HD2 ASN A   1      -5.486   5.478  64.216  1.00  0.00     0.000 HD 
ATOM     13 2HD2 ASN A   1      -6.879   6.486  63.786  1.00  0.00     0.000 HD 
ENDBRANCH   8   9
ENDBRANCH   4   8
TORSDOF 2
ENDMDL
MODEL      215
REMARK 921   NORMALIZED FREE ENERGY PREDICTED BY IDOCK:   -1.35 KCAL/MOL
REMARK 922        TOTAL FREE ENERGY PREDICTED BY IDOCK:   -1.76 KCAL/MOL
REMARK 923 INTER-LIGAND FREE ENERGY PREDICTED BY IDOCK:   -1.63 KCAL/MOL
REMARK 924 INTRA-LIGAND FREE ENERGY PREDICTED BY IDOCK:   -0.13 KCAL/MOL
REMARK 927      BINDING AFFINITY PREDICTED BY RF-SCORE:    0.00 PKD
ROOT
ATOM      1  N   ASN A   1      -9.749   3.100  67.554  1.00  0.00    -0.307 NA 
ATOM      2  H1  ASN A   1     -10.652   2.794  67.193  1.00  0.00     0.000 HD 
ATOM      3  H2  ASN A   1      -9.380   2.453  68.251  1.00  0.00     0.000 HD 
ATOM      4  CA  ASN A   1      -9.842   4.500  68.089  1.00  0.00    -0.088 C  
ATOM      5  OXT ASN A   1     -10.491   6.621  67.052  1.00  0.00    -0.231 OA 
ATOM      6  C   ASN A   1     -10.347   5.413  66.961  1.00  0.00    -0.248 C  
ATOM      7  O   ASN A   1     -10.675   4.702  65.851  1.00  0.00    -0.307 OA 
ENDROOT
BRANCH   4   8
ATOM      8  CB  ASN A   1      -8.492   4.958  68.628  1.00  0.00    -0.089 C  
BRANCH   8   9
ATOM      9  CG  ASN A   1      -8.487   5.733  69.931  1.00  0.00    -0.123 C  
ATOM     10  ND2 ASN A   1      -7.982   5.134  71.043  1.00  0.00    -0.099 N  
ATOM     11  OD1 ASN A   1      -8.816   6.916  69.972  1.00  0.00    -0.141 OA 
ATOM     12 1HD2 ASN A   1      -7.978   5.656  71.920  1.00  0.00     0.000 HD 
ATOM     13 2HD2 ASN A   1      -7.614   4.184  71.002  1.00  0.00     0.000 HD 
ENDBRANCH   8   9
ENDBRANCH   4   8
TORSDOF 2
ENDMDL
MODEL      216
REMARK 921   NORMALIZED FREE ENERGY PREDICTED BY IDOCK:   -1.33 KCAL/MOL
REMARK 922        TOTAL FREE ENERGY PREDICTED BY IDOCK:   -1.74 KCAL/MOL
REMARK 923 INTER-LIGAND FREE ENERGY PREDICTED BY IDOCK:   -1.36 KCAL/MOL
REMARK 924 INTRA-LIGAND FREE ENERGY PREDICTED BY IDOCK:   -0.39 KCAL/MOL
REMARK 927      BINDING AFFINITY PREDICTED BY RF-SCORE:    0.00 PKD
ROOT
ATOM      1  N   ASN A   1      -8.557   8.977  67.618  1.00  0.00    -0.120 NA 
ATOM      2  H1  ASN A   1      -8.856   9.948  67.704  1.00  0.00     0.000 HD 
ATOM      3  H2  ASN A   1      -7.944   8.700  68.384  1.00  0.00     0.000 HD 
ATOM      4  CA  ASN A   1      -7.918   8.740  66.280  1.00  0.00    -0.106 C  
ATOM      5  OXT ASN A   1      -8.739   9.011  63.990  1.00  0.00    -0.178 OA 
ATOM      6  C   ASN A   1      -8.928   9.127  65.190  1.00  0.00    -0.189 C  
ATOM      7  O   ASN A   1     -10.052   9.674  65.719  1.00  0.00    -0.290 OA 
ENDROOT
BRANCH   4   8
ATOM      8  CB  ASN A   1      -7.470   7.289  66.151  1.00  0.00    -0.083 C  
BRANCH   8   9
ATOM      9  CG  ASN A   1      -8.529   6.215  66.307  1.00  0.00    -0.132 C  
ATOM     10  ND2 ASN A   1      -9.074   6.013  67.537  1.00  0.00    -0.111 N  
ATOM     11  OD1 ASN A   1      -8.982   5.618  65.334  1.00  0.00    -0.148 OA 
ATOM     12 1HD2 ASN A   1      -9.787   5.290  67.642  1.00  0.00     0.000 HD 
ATOM     13 2HD2 ASN A   1      -8.777   6.571  68.337  1.00  0.00     0.000 HD 
ENDBRANCH   8   9
ENDBRANCH   4   8
TORSDOF 2
ENDMDL
MODEL      217
REMARK 921   NORMALIZED FREE ENERGY PREDICTED BY IDOCK:   -1.10 KCAL/MOL
REMARK 922        TOTAL FREE ENERGY PREDICTED BY IDOCK:   -1.49 KCAL/MOL
REMARK 923 INTER-LIGAND FREE ENERGY PREDICTED BY IDOCK:   -1.11 KCAL/MOL
REMARK 924 INTRA-LIGAND FREE ENERGY PREDICTED BY IDOCK:   -0.38 KCAL/MOL
REMARK 927      BINDING AFFINITY PREDICTED BY RF-SCORE:    0.00 PKD
ROOT
ATOM      1  N   ASN A   1      -8.940   2.523  67.150  1.00  0.00    -0.143 NA 
ATOM      2  H1  ASN A   1      -9.343   2.878  68.017  1.00  0.00     0.000 HD 
ATOM      3  H2  ASN A   1      -8.344   1.712  67.313  1.00  0.00     0.000 HD 
ATOM      4  CA  ASN A   1      -8.207   3.616  66.425  1.00  0.00    -0.100 C  
ATOM      5  OXT ASN A   1      -8.926   5.790  65.560  1.00  0.00    -0.151 OA 
ATOM      6  C   ASN A   1      -9.191   4.767  66.170  1.00  0.00    -0.144 C  
ATOM      7  O   ASN A   1     -10.394   4.538  66.758  1.00  0.00    -0.195 OA 
ENDROOT
BRANCH   4   8
ATOM      8  CB  ASN A   1      -7.605   3.086  65.128  1.00  0.00    -0.080 C  
BRANCH   8   9
ATOM      9  CG  ASN A   1      -8.563   2.569  64.073  1.00  0.00    -0.086 C  
ATOM     10  ND2 ASN A   1      -8.350   2.917  62.775  1.00  0.00    -0.074 N  
ATOM     11  OD1 ASN A   1      -9.441   1.758  64.351  1.00  0.00    -0.133 OA 
ATOM     12 1HD2 ASN A   1      -8.995   2.569  62.065  1.00  0.00     0.000 HD 
ATOM     13 2HD2 ASN A   1      -7.564   3.513  62.517  1.00  0.00     0.000 HD 
ENDBRANCH   8   9
ENDBRANCH   4   8
TORSDOF 2
ENDMDL
MODEL      218
REMARK 921   NORMALIZED FREE ENERGY PREDICTED BY IDOCK:   -0.82 KCAL/MOL
REMARK 922        TOTAL FREE ENERGY PREDICTED BY IDOCK:   -1.17 KCAL/MOL
REMARK 923 INTER-LIGAND FREE ENERGY PREDICTED BY IDOCK:   -0.96 KCAL/MOL
REMARK 924 INTRA-LIGAND FREE ENERGY PREDICTED BY IDOCK:   -0.21 KCAL/MOL
REMARK 927      BINDING AFFINITY PREDICTED BY RF-SCORE:    0.00 PKD
ROOT
ATOM      1  N   ASN A   1      -9.548   3.007  67.683  1.00  0.00    -0.321 NA 
ATOM      2  H1  ASN A   1     -10.334   3.241  67.076  1.00  0.00     0.000 HD 
ATOM      3  H2  ASN A   1      -9.836   2.429  68.471  1.00  0.00     0.000 HD 
ATOM      4  CA  ASN A   1      -8.843   4.254  68.134  1.00  0.00    -0.107 C  
ATOM      5  OXT ASN A   1      -7.752   6.068  66.905  1.00  0.00    -0.098 OA 
ATOM      6  C   ASN A   1      -8.394   5.030  66.888  1.00  0.00    -0.107 C  
ATOM      7  O   ASN A   1      -8.848   4.452  65.746  1.00  0.00    -0.117 OA 
ENDROOT
BRANCH   4   8
ATOM      8  CB  ASN A   1      -7.668   3.905  69.041  1.00  0.00    -0.053 C  
BRANCH   8   9
ATOM      9  CG  ASN A   1      -7.969   3.120  70.302  1.00  0.00    -0.042 C  
ATOM     10  ND2 ASN A   1      -6.989   2.339  70.833  1.00  0.00    -0.032 N  
ATOM     11  OD1 ASN A   1      -9.025   3.270  70.910  1.00  0.00    -0.082 OA 
ATOM     12 1HD2 ASN A   1      -7.191   1.812  71.682  1.00  0.00     0.000 HD 
ATOM     13 2HD2 ASN A   1      -6.071   2.282  70.391  1.00  0.00     0.000 HD 
ENDBRANCH   8   9
ENDBRANCH   4   8
TORSDOF 2
ENDMDL
