MODEL        1
REMARK 921   NORMALIZED FREE ENERGY PREDICTED BY IDOCK:   -5.16 KCAL/MOL
REMARK 922        TOTAL FREE ENERGY PREDICTED BY IDOCK:   -5.71 KCAL/MOL
REMARK 923 INTER-LIGAND FREE ENERGY PREDICTED BY IDOCK:   -5.46 KCAL/MOL
REMARK 924 INTRA-LIGAND FREE ENERGY PREDICTED BY IDOCK:   -0.25 KCAL/MOL
REMARK 927      BINDING AFFINITY PREDICTED BY RF-SCORE:    0.00 PKD
ROOT
ATOM      1  N   ASP A   1     -11.414  16.409  64.043  1.00  0.00    -1.573 NA 
ATOM      2  CA  ASP A   1     -11.120  15.466  65.163  1.00  0.00    -0.394 C  
ATOM      3  H1  ASP A   1     -11.513  17.368  64.374  1.00  0.00     0.000 HD 
ATOM      4  H2  ASP A   1     -12.233  16.113  63.512  1.00  0.00     0.000 HD 
ATOM      5  C   ASP A   1      -9.811  15.938  65.808  1.00  0.00    -0.345 C  
ATOM      6  O   ASP A   1      -9.654  17.279  65.694  1.00  0.00    -0.527 OA 
ATOM      7  OXT ASP A   1      -8.983  15.201  66.330  1.00  0.00    -0.289 OA 
ENDROOT
BRANCH   2   8
ATOM      8  CB  ASP A   1     -10.973  14.033  64.668  1.00  0.00    -0.401 C  
ATOM      9  CG  ASP A   1     -12.279  13.504  64.136  1.00  0.00    -0.394 C  
ATOM     10  OD2 ASP A   1     -12.648  13.676  62.984  1.00  0.00    -0.729 OA 
ATOM     11  OD1 ASP A   1     -13.013  12.812  65.035  1.00  0.00    -0.811 OA 
ENDBRANCH   2   8
TORSDOF 1
ENDMDL
MODEL        2
REMARK 921   NORMALIZED FREE ENERGY PREDICTED BY IDOCK:   -5.00 KCAL/MOL
REMARK 922        TOTAL FREE ENERGY PREDICTED BY IDOCK:   -5.54 KCAL/MOL
REMARK 923 INTER-LIGAND FREE ENERGY PREDICTED BY IDOCK:   -5.29 KCAL/MOL
REMARK 924 INTRA-LIGAND FREE ENERGY PREDICTED BY IDOCK:   -0.26 KCAL/MOL
REMARK 927      BINDING AFFINITY PREDICTED BY RF-SCORE:    0.00 PKD
ROOT
ATOM      1  N   ASP A   1     -12.306  14.554  63.483  1.00  0.00    -1.090 NA 
ATOM      2  CA  ASP A   1     -11.510  14.028  64.631  1.00  0.00    -0.383 C  
ATOM      3  H1  ASP A   1     -12.402  13.860  62.741  1.00  0.00     0.000 HD 
ATOM      4  H2  ASP A   1     -11.916  15.427  63.128  1.00  0.00     0.000 HD 
ATOM      5  C   ASP A   1     -12.252  12.792  65.157  1.00  0.00    -0.477 C  
ATOM      6  O   ASP A   1     -12.935  12.163  64.170  1.00  0.00    -0.664 OA 
ATOM      7  OXT ASP A   1     -12.266  12.431  66.328  1.00  0.00    -0.620 OA 
ENDROOT
BRANCH   2   8
ATOM      8  CB  ASP A   1     -11.367  15.064  65.738  1.00  0.00    -0.279 C  
ATOM      9  CG  ASP A   1     -10.612  16.275  65.258  1.00  0.00    -0.336 C  
ATOM     10  OD2 ASP A   1     -11.150  17.214  64.691  1.00  0.00    -1.036 OA 
ATOM     11  OD1 ASP A   1      -9.285  16.246  65.509  1.00  0.00    -0.402 OA 
ENDBRANCH   2   8
TORSDOF 1
ENDMDL
MODEL        3
REMARK 921   NORMALIZED FREE ENERGY PREDICTED BY IDOCK:   -4.84 KCAL/MOL
REMARK 922        TOTAL FREE ENERGY PREDICTED BY IDOCK:   -5.37 KCAL/MOL
REMARK 923 INTER-LIGAND FREE ENERGY PREDICTED BY IDOCK:   -5.09 KCAL/MOL
REMARK 924 INTRA-LIGAND FREE ENERGY PREDICTED BY IDOCK:   -0.28 KCAL/MOL
REMARK 927      BINDING AFFINITY PREDICTED BY RF-SCORE:    0.00 PKD
ROOT
ATOM      1  N   ASP A   1     -11.517  16.471  63.854  1.00  0.00    -1.599 NA 
ATOM      2  CA  ASP A   1     -10.921  15.437  64.751  1.00  0.00    -0.393 C  
ATOM      3  H1  ASP A   1     -11.773  16.081  62.947  1.00  0.00     0.000 HD 
ATOM      4  H2  ASP A   1     -10.898  17.275  63.751  1.00  0.00     0.000 HD 
ATOM      5  C   ASP A   1     -11.979  14.340  64.929  1.00  0.00    -0.425 C  
ATOM      6  O   ASP A   1     -12.778  14.237  63.839  1.00  0.00    -0.749 OA 
ATOM      7  OXT ASP A   1     -12.121  13.664  65.941  1.00  0.00    -0.386 OA 
ENDROOT
BRANCH   2   8
ATOM      8  CB  ASP A   1     -10.538  16.019  66.105  1.00  0.00    -0.302 C  
ATOM      9  CG  ASP A   1      -9.962  17.403  65.959  1.00  0.00    -0.215 C  
ATOM     10  OD2 ASP A   1     -10.651  18.411  65.918  1.00  0.00    -0.494 OA 
ATOM     11  OD1 ASP A   1      -8.614  17.446  65.882  1.00  0.00    -0.525 OA 
ENDBRANCH   2   8
TORSDOF 1
ENDMDL
MODEL        4
REMARK 921   NORMALIZED FREE ENERGY PREDICTED BY IDOCK:   -4.83 KCAL/MOL
REMARK 922        TOTAL FREE ENERGY PREDICTED BY IDOCK:   -5.36 KCAL/MOL
REMARK 923 INTER-LIGAND FREE ENERGY PREDICTED BY IDOCK:   -4.88 KCAL/MOL
REMARK 924 INTRA-LIGAND FREE ENERGY PREDICTED BY IDOCK:   -0.48 KCAL/MOL
REMARK 927      BINDING AFFINITY PREDICTED BY RF-SCORE:    0.00 PKD
ROOT
ATOM      1  N   ASP A   1     -12.298  14.082  63.452  1.00  0.00    -1.154 NA 
ATOM      2  CA  ASP A   1     -11.696  14.352  64.792  1.00  0.00    -0.416 C  
ATOM      3  H1  ASP A   1     -13.005  14.776  63.210  1.00  0.00     0.000 HD 
ATOM      4  H2  ASP A   1     -12.671  13.135  63.396  1.00  0.00     0.000 HD 
ATOM      5  C   ASP A   1     -11.063  15.748  64.721  1.00  0.00    -0.400 C  
ATOM      6  O   ASP A   1     -11.722  16.550  63.850  1.00  0.00    -1.148 OA 
ATOM      7  OXT ASP A   1     -10.064  16.094  65.339  1.00  0.00    -0.485 OA 
ENDROOT
BRANCH   2   8
ATOM      8  CB  ASP A   1     -10.640  13.316  65.153  1.00  0.00    -0.342 C  
ATOM      9  CG  ASP A   1     -10.531  12.256  64.090  1.00  0.00    -0.375 C  
ATOM     10  OD2 ASP A   1      -9.823  12.373  63.102  1.00  0.00    -0.314 OA 
ATOM     11  OD1 ASP A   1     -11.276  11.152  64.318  1.00  0.00    -0.246 OA 
ENDBRANCH   2   8
TORSDOF 1
ENDMDL
MODEL        5
REMARK 921   NORMALIZED FREE ENERGY PREDICTED BY IDOCK:   -4.81 KCAL/MOL
REMARK 922        TOTAL FREE ENERGY PREDICTED BY IDOCK:   -5.34 KCAL/MOL
REMARK 923 INTER-LIGAND FREE ENERGY PREDICTED BY IDOCK:   -4.82 KCAL/MOL
REMARK 924 INTRA-LIGAND FREE ENERGY PREDICTED BY IDOCK:   -0.52 KCAL/MOL
REMARK 927      BINDING AFFINITY PREDICTED BY RF-SCORE:    0.00 PKD
ROOT
ATOM      1  N   ASP A   1     -12.521  14.839  63.633  1.00  0.00    -1.051 NA 
ATOM      2  CA  ASP A   1     -12.190  14.400  65.021  1.00  0.00    -0.414 C  
ATOM      3  H1  ASP A   1     -12.585  15.855  63.563  1.00  0.00     0.000 HD 
ATOM      4  H2  ASP A   1     -13.371  14.389  63.293  1.00  0.00     0.000 HD 
ATOM      5  C   ASP A   1     -10.841  15.039  65.378  1.00  0.00    -0.364 C  
ATOM      6  O   ASP A   1     -10.665  16.222  64.739  1.00  0.00    -0.680 OA 
ATOM      7  OXT ASP A   1     -10.003  14.535  66.116  1.00  0.00    -0.283 OA 
ENDROOT
BRANCH   2   8
ATOM      8  CB  ASP A   1     -12.094  12.884  65.125  1.00  0.00    -0.489 C  
ATOM      9  CG  ASP A   1     -11.927  12.255  63.767  1.00  0.00    -0.519 C  
ATOM     10  OD2 ASP A   1     -10.840  12.109  63.229  1.00  0.00    -0.415 OA 
ATOM     11  OD1 ASP A   1     -13.080  11.854  63.188  1.00  0.00    -0.605 OA 
ENDBRANCH   2   8
TORSDOF 1
ENDMDL
MODEL        6
REMARK 921   NORMALIZED FREE ENERGY PREDICTED BY IDOCK:   -4.77 KCAL/MOL
REMARK 922        TOTAL FREE ENERGY PREDICTED BY IDOCK:   -5.30 KCAL/MOL
REMARK 923 INTER-LIGAND FREE ENERGY PREDICTED BY IDOCK:   -4.78 KCAL/MOL
REMARK 924 INTRA-LIGAND FREE ENERGY PREDICTED BY IDOCK:   -0.52 KCAL/MOL
REMARK 927      BINDING AFFINITY PREDICTED BY RF-SCORE:    0.00 PKD
ROOT
ATOM      1  N   ASP A   1     -10.045  13.813  64.210  1.00  0.00    -0.734 NA 
ATOM      2  CA  ASP A   1     -11.075  13.599  65.269  1.00  0.00    -0.301 C  
ATOM      3  H1  ASP A   1      -9.661  12.930  63.873  1.00  0.00     0.000 HD 
ATOM      4  H2  ASP A   1      -9.308  14.442  64.529  1.00  0.00     0.000 HD 
ATOM      5  C   ASP A   1     -12.186  12.746  64.641  1.00  0.00    -0.447 C  
ATOM      6  O   ASP A   1     -11.700  11.928  63.676  1.00  0.00    -0.445 OA 
ATOM      7  OXT ASP A   1     -13.372  12.815  64.938  1.00  0.00    -0.736 OA 
ENDROOT
BRANCH   2   8
ATOM      8  CB  ASP A   1     -11.649  14.917  65.771  1.00  0.00    -0.234 C  
ATOM      9  CG  ASP A   1     -11.337  16.044  64.822  1.00  0.00    -0.280 C  
ATOM     10  OD2 ASP A   1     -12.033  16.313  63.855  1.00  0.00    -1.003 OA 
ATOM     11  OD1 ASP A   1     -10.223  16.744  65.128  1.00  0.00    -0.599 OA 
ENDBRANCH   2   8
TORSDOF 1
ENDMDL
MODEL        7
REMARK 921   NORMALIZED FREE ENERGY PREDICTED BY IDOCK:   -4.64 KCAL/MOL
REMARK 922        TOTAL FREE ENERGY PREDICTED BY IDOCK:   -5.16 KCAL/MOL
REMARK 923 INTER-LIGAND FREE ENERGY PREDICTED BY IDOCK:   -5.05 KCAL/MOL
REMARK 924 INTRA-LIGAND FREE ENERGY PREDICTED BY IDOCK:   -0.11 KCAL/MOL
REMARK 927      BINDING AFFINITY PREDICTED BY RF-SCORE:    0.00 PKD
ROOT
ATOM      1  N   ASP A   1     -12.410  14.239  63.650  1.00  0.00    -1.109 NA 
ATOM      2  CA  ASP A   1     -11.798  14.579  64.970  1.00  0.00    -0.399 C  
ATOM      3  H1  ASP A   1     -13.062  14.959  63.340  1.00  0.00     0.000 HD 
ATOM      4  H2  ASP A   1     -12.852  13.320  63.671  1.00  0.00     0.000 HD 
ATOM      5  C   ASP A   1     -11.063  15.913  64.788  1.00  0.00    -0.384 C  
ATOM      6  O   ASP A   1     -11.654  16.683  63.842  1.00  0.00    -1.204 OA 
ATOM      7  OXT ASP A   1     -10.045  16.237  65.387  1.00  0.00    -0.519 OA 
ENDROOT
BRANCH   2   8
ATOM      8  CB  ASP A   1     -10.825  13.504  65.433  1.00  0.00    -0.299 C  
ATOM      9  CG  ASP A   1     -11.310  12.835  66.692  1.00  0.00    -0.316 C  
ATOM     10  OD2 ASP A   1     -12.080  11.887  66.689  1.00  0.00    -0.587 OA 
ATOM     11  OD1 ASP A   1     -10.819  13.364  67.834  1.00  0.00    -0.238 OA 
ENDBRANCH   2   8
TORSDOF 1
ENDMDL
MODEL        8
REMARK 921   NORMALIZED FREE ENERGY PREDICTED BY IDOCK:   -4.62 KCAL/MOL
REMARK 922        TOTAL FREE ENERGY PREDICTED BY IDOCK:   -5.13 KCAL/MOL
REMARK 923 INTER-LIGAND FREE ENERGY PREDICTED BY IDOCK:   -4.67 KCAL/MOL
REMARK 924 INTRA-LIGAND FREE ENERGY PREDICTED BY IDOCK:   -0.47 KCAL/MOL
REMARK 927      BINDING AFFINITY PREDICTED BY RF-SCORE:    0.00 PKD
ROOT
ATOM      1  N   ASP A   1     -10.270  14.579  66.488  1.00  0.00    -0.273 NA 
ATOM      2  CA  ASP A   1     -10.407  14.735  65.009  1.00  0.00    -0.389 C  
ATOM      3  H1  ASP A   1      -9.604  15.246  66.877  1.00  0.00     0.000 HD 
ATOM      4  H2  ASP A   1     -10.028  13.621  66.741  1.00  0.00     0.000 HD 
ATOM      5  C   ASP A   1     -10.890  16.169  64.757  1.00  0.00    -0.262 C  
ATOM      6  O   ASP A   1     -10.450  17.019  65.717  1.00  0.00    -0.448 OA 
ATOM      7  OXT ASP A   1     -11.615  16.510  63.830  1.00  0.00    -1.175 OA 
ENDROOT
BRANCH   2   8
ATOM      8  CB  ASP A   1     -11.401  13.738  64.428  1.00  0.00    -0.375 C  
ATOM      9  CG  ASP A   1     -12.454  13.366  65.439  1.00  0.00    -0.494 C  
ATOM     10  OD2 ASP A   1     -13.474  14.016  65.608  1.00  0.00    -0.604 OA 
ATOM     11  OD1 ASP A   1     -12.185  12.246  66.144  1.00  0.00    -0.647 OA 
ENDBRANCH   2   8
TORSDOF 1
ENDMDL
MODEL        9
REMARK 921   NORMALIZED FREE ENERGY PREDICTED BY IDOCK:   -4.47 KCAL/MOL
REMARK 922        TOTAL FREE ENERGY PREDICTED BY IDOCK:   -4.98 KCAL/MOL
REMARK 923 INTER-LIGAND FREE ENERGY PREDICTED BY IDOCK:   -4.57 KCAL/MOL
REMARK 924 INTRA-LIGAND FREE ENERGY PREDICTED BY IDOCK:   -0.41 KCAL/MOL
REMARK 927      BINDING AFFINITY PREDICTED BY RF-SCORE:    0.00 PKD
ROOT
ATOM      1  N   ASP A   1     -10.120  13.586  64.297  1.00  0.00    -0.771 NA 
ATOM      2  CA  ASP A   1     -10.753  12.435  63.586  1.00  0.00    -0.455 C  
ATOM      3  H1  ASP A   1     -10.253  14.461  63.791  1.00  0.00     0.000 HD 
ATOM      4  H2  ASP A   1      -9.132  13.411  64.483  1.00  0.00     0.000 HD 
ATOM      5  C   ASP A   1     -12.249  12.754  63.470  1.00  0.00    -0.525 C  
ATOM      6  O   ASP A   1     -12.470  14.090  63.400  1.00  0.00    -0.826 OA 
ATOM      7  OXT ASP A   1     -13.144  11.918  63.478  1.00  0.00    -0.715 OA 
ENDROOT
BRANCH   2   8
ATOM      8  CB  ASP A   1     -10.553  11.128  64.342  1.00  0.00    -0.411 C  
ATOM      9  CG  ASP A   1     -10.545  11.356  65.831  1.00  0.00    -0.263 C  
ATOM     10  OD2 ASP A   1     -11.563  11.385  66.506  1.00  0.00    -0.408 OA 
ATOM     11  OD1 ASP A   1      -9.317  11.518  66.368  1.00  0.00    -0.197 OA 
ENDBRANCH   2   8
TORSDOF 1
ENDMDL
MODEL       10
REMARK 921   NORMALIZED FREE ENERGY PREDICTED BY IDOCK:   -4.47 KCAL/MOL
REMARK 922        TOTAL FREE ENERGY PREDICTED BY IDOCK:   -4.97 KCAL/MOL
REMARK 923 INTER-LIGAND FREE ENERGY PREDICTED BY IDOCK:   -4.48 KCAL/MOL
REMARK 924 INTRA-LIGAND FREE ENERGY PREDICTED BY IDOCK:   -0.50 KCAL/MOL
REMARK 927      BINDING AFFINITY PREDICTED BY RF-SCORE:    0.00 PKD
ROOT
ATOM      1  N   ASP A   1     -13.009  12.387  64.799  1.00  0.00    -0.768 NA 
ATOM      2  CA  ASP A   1     -12.780  13.690  65.494  1.00  0.00    -0.466 C  
ATOM      3  H1  ASP A   1     -13.619  12.494  63.989  1.00  0.00     0.000 HD 
ATOM      4  H2  ASP A   1     -13.364  11.680  65.442  1.00  0.00     0.000 HD 
ATOM      5  C   ASP A   1     -12.136  14.633  64.469  1.00  0.00    -0.475 C  
ATOM      6  O   ASP A   1     -12.532  14.341  63.206  1.00  0.00    -0.705 OA 
ATOM      7  OXT ASP A   1     -11.333  15.516  64.741  1.00  0.00    -0.410 OA 
ENDROOT
BRANCH   2   8
ATOM      8  CB  ASP A   1     -11.869  13.531  66.703  1.00  0.00    -0.450 C  
ATOM      9  CG  ASP A   1     -11.400  12.107  66.848  1.00  0.00    -0.343 C  
ATOM     10  OD2 ASP A   1     -10.417  11.667  66.272  1.00  0.00    -0.230 OA 
ATOM     11  OD1 ASP A   1     -12.152  11.349  67.677  1.00  0.00    -0.630 OA 
ENDBRANCH   2   8
TORSDOF 1
ENDMDL
MODEL       11
REMARK 921   NORMALIZED FREE ENERGY PREDICTED BY IDOCK:   -4.39 KCAL/MOL
REMARK 922        TOTAL FREE ENERGY PREDICTED BY IDOCK:   -4.89 KCAL/MOL
REMARK 923 INTER-LIGAND FREE ENERGY PREDICTED BY IDOCK:   -4.62 KCAL/MOL
REMARK 924 INTRA-LIGAND FREE ENERGY PREDICTED BY IDOCK:   -0.28 KCAL/MOL
REMARK 927      BINDING AFFINITY PREDICTED BY RF-SCORE:    0.00 PKD
ROOT
ATOM      1  N   ASP A   1     -13.054  14.002  65.276  1.00  0.00    -0.765 NA 
ATOM      2  CA  ASP A   1     -11.964  13.959  64.257  1.00  0.00    -0.444 C  
ATOM      3  H1  ASP A   1     -13.964  13.801  64.864  1.00  0.00     0.000 HD 
ATOM      4  H2  ASP A   1     -13.060  14.891  65.777  1.00  0.00     0.000 HD 
ATOM      5  C   ASP A   1     -11.972  12.545  63.659  1.00  0.00    -0.537 C  
ATOM      6  O   ASP A   1     -13.214  12.004  63.675  1.00  0.00    -0.737 OA 
ATOM      7  OXT ASP A   1     -10.980  11.954  63.251  1.00  0.00    -0.377 OA 
ENDROOT
BRANCH   2   8
ATOM      8  CB  ASP A   1     -10.604  14.259  64.873  1.00  0.00    -0.452 C  
ATOM      9  CG  ASP A   1     -10.658  15.491  65.737  1.00  0.00    -0.356 C  
ATOM     10  OD2 ASP A   1     -10.988  15.465  66.913  1.00  0.00    -0.318 OA 
ATOM     11  OD1 ASP A   1     -10.303  16.633  65.110  1.00  0.00    -0.630 OA 
ENDBRANCH   2   8
TORSDOF 1
ENDMDL
MODEL       12
REMARK 921   NORMALIZED FREE ENERGY PREDICTED BY IDOCK:   -4.37 KCAL/MOL
REMARK 922        TOTAL FREE ENERGY PREDICTED BY IDOCK:   -4.88 KCAL/MOL
REMARK 923 INTER-LIGAND FREE ENERGY PREDICTED BY IDOCK:   -4.39 KCAL/MOL
REMARK 924 INTRA-LIGAND FREE ENERGY PREDICTED BY IDOCK:   -0.48 KCAL/MOL
REMARK 927      BINDING AFFINITY PREDICTED BY RF-SCORE:    0.00 PKD
ROOT
ATOM      1  N   ASP A   1     -11.211  11.260  62.999  1.00  0.00    -0.835 NA 
ATOM      2  CA  ASP A   1     -10.169  12.045  63.726  1.00  0.00    -0.422 C  
ATOM      3  H1  ASP A   1     -10.805  10.475  62.491  1.00  0.00     0.000 HD 
ATOM      4  H2  ASP A   1     -11.764  11.856  62.384  1.00  0.00     0.000 HD 
ATOM      5  C   ASP A   1      -9.488  11.079  64.704  1.00  0.00    -0.234 C  
ATOM      6  O   ASP A   1      -9.496   9.807  64.236  1.00  0.00    -0.263 OA 
ATOM      7  OXT ASP A   1      -9.026  11.398  65.793  1.00  0.00    -0.204 OA 
ENDROOT
BRANCH   2   8
ATOM      8  CB  ASP A   1     -10.775  13.218  64.485  1.00  0.00    -0.428 C  
ATOM      9  CG  ASP A   1     -12.263  13.298  64.266  1.00  0.00    -0.392 C  
ATOM     10  OD2 ASP A   1     -13.070  12.674  64.939  1.00  0.00    -0.850 OA 
ATOM     11  OD1 ASP A   1     -12.640  14.124  63.266  1.00  0.00    -0.766 OA 
ENDBRANCH   2   8
TORSDOF 1
ENDMDL
MODEL       13
REMARK 921   NORMALIZED FREE ENERGY PREDICTED BY IDOCK:   -4.35 KCAL/MOL
REMARK 922        TOTAL FREE ENERGY PREDICTED BY IDOCK:   -4.86 KCAL/MOL
REMARK 923 INTER-LIGAND FREE ENERGY PREDICTED BY IDOCK:   -4.35 KCAL/MOL
REMARK 924 INTRA-LIGAND FREE ENERGY PREDICTED BY IDOCK:   -0.51 KCAL/MOL
REMARK 927      BINDING AFFINITY PREDICTED BY RF-SCORE:    0.00 PKD
ROOT
ATOM      1  N   ASP A   1     -13.132  13.738  65.189  1.00  0.00    -0.751 NA 
ATOM      2  CA  ASP A   1     -11.742  13.378  64.779  1.00  0.00    -0.361 C  
ATOM      3  H1  ASP A   1     -13.729  13.913  64.381  1.00  0.00     0.000 HD 
ATOM      4  H2  ASP A   1     -13.137  14.527  65.834  1.00  0.00     0.000 HD 
ATOM      5  C   ASP A   1     -11.846  12.114  63.916  1.00  0.00    -0.466 C  
ATOM      6  O   ASP A   1     -13.025  12.062  63.249  1.00  0.00    -0.736 OA 
ATOM      7  OXT ASP A   1     -10.996  11.234  63.859  1.00  0.00    -0.386 OA 
ENDROOT
BRANCH   2   8
ATOM      8  CB  ASP A   1     -10.850  13.115  65.985  1.00  0.00    -0.287 C  
ATOM      9  CG  ASP A   1     -11.666  12.745  67.196  1.00  0.00    -0.380 C  
ATOM     10  OD2 ASP A   1     -12.023  11.602  67.434  1.00  0.00    -0.621 OA 
ATOM     11  OD1 ASP A   1     -11.968  13.781  68.008  1.00  0.00    -0.361 OA 
ENDBRANCH   2   8
TORSDOF 1
ENDMDL
MODEL       14
REMARK 921   NORMALIZED FREE ENERGY PREDICTED BY IDOCK:   -4.33 KCAL/MOL
REMARK 922        TOTAL FREE ENERGY PREDICTED BY IDOCK:   -4.83 KCAL/MOL
REMARK 923 INTER-LIGAND FREE ENERGY PREDICTED BY IDOCK:   -4.32 KCAL/MOL
REMARK 924 INTRA-LIGAND FREE ENERGY PREDICTED BY IDOCK:   -0.51 KCAL/MOL
REMARK 927      BINDING AFFINITY PREDICTED BY RF-SCORE:    0.00 PKD
ROOT
ATOM      1  N   ASP A   1     -10.274  13.762  64.298  1.00  0.00    -0.737 NA 
ATOM      2  CA  ASP A   1     -11.170  14.828  64.838  1.00  0.00    -0.406 C  
ATOM      3  H1  ASP A   1      -9.371  14.139  64.010  1.00  0.00     0.000 HD 
ATOM      4  H2  ASP A   1     -10.722  13.249  63.539  1.00  0.00     0.000 HD 
ATOM      5  C   ASP A   1     -10.448  15.446  66.043  1.00  0.00    -0.321 C  
ATOM      6  O   ASP A   1      -9.102  15.385  65.902  1.00  0.00    -0.311 OA 
ATOM      7  OXT ASP A   1     -11.007  15.904  67.032  1.00  0.00    -0.291 OA 
ENDROOT
BRANCH   2   8
ATOM      8  CB  ASP A   1     -12.518  14.266  65.267  1.00  0.00    -0.428 C  
ATOM      9  CG  ASP A   1     -12.527  12.761  65.202  1.00  0.00    -0.501 C  
ATOM     10  OD2 ASP A   1     -12.139  12.053  66.119  1.00  0.00    -0.582 OA 
ATOM     11  OD1 ASP A   1     -13.007  12.251  64.047  1.00  0.00    -0.740 OA 
ENDBRANCH   2   8
TORSDOF 1
ENDMDL
MODEL       15
REMARK 921   NORMALIZED FREE ENERGY PREDICTED BY IDOCK:   -4.32 KCAL/MOL
REMARK 922        TOTAL FREE ENERGY PREDICTED BY IDOCK:   -4.82 KCAL/MOL
REMARK 923 INTER-LIGAND FREE ENERGY PREDICTED BY IDOCK:   -4.30 KCAL/MOL
REMARK 924 INTRA-LIGAND FREE ENERGY PREDICTED BY IDOCK:   -0.52 KCAL/MOL
REMARK 927      BINDING AFFINITY PREDICTED BY RF-SCORE:    0.00 PKD
ROOT
ATOM      1  N   ASP A   1     -12.173  14.506  67.231  1.00  0.00    -0.581 NA 
ATOM      2  CA  ASP A   1     -10.810  14.455  66.622  1.00  0.00    -0.304 C  
ATOM      3  H1  ASP A   1     -12.156  14.926  68.160  1.00  0.00     0.000 HD 
ATOM      4  H2  ASP A   1     -12.607  13.583  67.248  1.00  0.00     0.000 HD 
ATOM      5  C   ASP A   1     -10.308  15.903  66.537  1.00  0.00    -0.300 C  
ATOM      6  O   ASP A   1     -10.826  16.669  67.528  1.00  0.00    -0.305 OA 
ATOM      7  OXT ASP A   1      -9.564  16.334  65.665  1.00  0.00    -0.466 OA 
ENDROOT
BRANCH   2   8
ATOM      8  CB  ASP A   1     -10.836  13.828  65.235  1.00  0.00    -0.326 C  
ATOM      9  CG  ASP A   1     -12.231  13.814  64.669  1.00  0.00    -0.406 C  
ATOM     10  OD2 ASP A   1     -12.712  14.757  64.058  1.00  0.00    -0.786 OA 
ATOM     11  OD1 ASP A   1     -12.914  12.669  64.884  1.00  0.00    -0.830 OA 
ENDBRANCH   2   8
TORSDOF 1
ENDMDL
MODEL       16
REMARK 921   NORMALIZED FREE ENERGY PREDICTED BY IDOCK:   -4.32 KCAL/MOL
REMARK 922        TOTAL FREE ENERGY PREDICTED BY IDOCK:   -4.82 KCAL/MOL
REMARK 923 INTER-LIGAND FREE ENERGY PREDICTED BY IDOCK:   -4.31 KCAL/MOL
REMARK 924 INTRA-LIGAND FREE ENERGY PREDICTED BY IDOCK:   -0.51 KCAL/MOL
REMARK 927      BINDING AFFINITY PREDICTED BY RF-SCORE:    0.00 PKD
ROOT
ATOM      1  N   ASP A   1      -9.886  13.444  64.335  1.00  0.00    -0.650 NA 
ATOM      2  CA  ASP A   1     -10.480  13.422  65.705  1.00  0.00    -0.290 C  
ATOM      3  H1  ASP A   1      -9.128  12.768  64.242  1.00  0.00     0.000 HD 
ATOM      4  H2  ASP A   1      -9.582  14.382  64.076  1.00  0.00     0.000 HD 
ATOM      5  C   ASP A   1     -11.009  12.000  65.936  1.00  0.00    -0.298 C  
ATOM      6  O   ASP A   1     -10.285  11.081  65.252  1.00  0.00    -0.257 OA 
ATOM      7  OXT ASP A   1     -11.987  11.721  66.619  1.00  0.00    -0.561 OA 
ENDROOT
BRANCH   2   8
ATOM      8  CB  ASP A   1     -11.612  14.431  65.843  1.00  0.00    -0.361 C  
ATOM      9  CG  ASP A   1     -11.941  15.066  64.518  1.00  0.00    -0.371 C  
ATOM     10  OD2 ASP A   1     -12.718  14.570  63.716  1.00  0.00    -0.780 OA 
ATOM     11  OD1 ASP A   1     -11.312  16.238  64.285  1.00  0.00    -0.741 OA 
ENDBRANCH   2   8
TORSDOF 1
ENDMDL
MODEL       17
REMARK 921   NORMALIZED FREE ENERGY PREDICTED BY IDOCK:   -4.26 KCAL/MOL
REMARK 922        TOTAL FREE ENERGY PREDICTED BY IDOCK:   -4.76 KCAL/MOL
REMARK 923 INTER-LIGAND FREE ENERGY PREDICTED BY IDOCK:   -4.24 KCAL/MOL
REMARK 924 INTRA-LIGAND FREE ENERGY PREDICTED BY IDOCK:   -0.52 KCAL/MOL
REMARK 927      BINDING AFFINITY PREDICTED BY RF-SCORE:    0.00 PKD
ROOT
ATOM      1  N   ASP A   1     -12.906  13.954  65.351  1.00  0.00    -0.722 NA 
ATOM      2  CA  ASP A   1     -11.654  13.296  64.870  1.00  0.00    -0.325 C  
ATOM      3  H1  ASP A   1     -13.641  13.273  65.541  1.00  0.00     0.000 HD 
ATOM      4  H2  ASP A   1     -13.223  14.672  64.699  1.00  0.00     0.000 HD 
ATOM      5  C   ASP A   1     -11.207  12.331  65.977  1.00  0.00    -0.332 C  
ATOM      6  O   ASP A   1     -12.263  11.857  66.681  1.00  0.00    -0.493 OA 
ATOM      7  OXT ASP A   1     -10.042  12.049  66.228  1.00  0.00    -0.213 OA 
ENDROOT
BRANCH   2   8
ATOM      8  CB  ASP A   1     -10.557  14.312  64.586  1.00  0.00    -0.364 C  
ATOM      9  CG  ASP A   1     -10.946  15.684  65.071  1.00  0.00    -0.431 C  
ATOM     10  OD2 ASP A   1     -10.757  16.064  66.217  1.00  0.00    -0.301 OA 
ATOM     11  OD1 ASP A   1     -11.518  16.470  64.134  1.00  0.00    -1.059 OA 
ENDBRANCH   2   8
TORSDOF 1
ENDMDL
MODEL       18
REMARK 921   NORMALIZED FREE ENERGY PREDICTED BY IDOCK:   -4.19 KCAL/MOL
REMARK 922        TOTAL FREE ENERGY PREDICTED BY IDOCK:   -4.68 KCAL/MOL
REMARK 923 INTER-LIGAND FREE ENERGY PREDICTED BY IDOCK:   -4.20 KCAL/MOL
REMARK 924 INTRA-LIGAND FREE ENERGY PREDICTED BY IDOCK:   -0.47 KCAL/MOL
REMARK 927      BINDING AFFINITY PREDICTED BY RF-SCORE:    0.00 PKD
ROOT
ATOM      1  N   ASP A   1     -12.148  12.514  66.268  1.00  0.00    -0.605 NA 
ATOM      2  CA  ASP A   1     -10.892  13.210  65.860  1.00  0.00    -0.273 C  
ATOM      3  H1  ASP A   1     -12.296  12.562  67.276  1.00  0.00     0.000 HD 
ATOM      4  H2  ASP A   1     -12.165  11.550  65.936  1.00  0.00     0.000 HD 
ATOM      5  C   ASP A   1     -11.031  14.672  66.303  1.00  0.00    -0.327 C  
ATOM      6  O   ASP A   1     -11.808  14.787  67.408  1.00  0.00    -0.377 OA 
ATOM      7  OXT ASP A   1     -10.539  15.629  65.718  1.00  0.00    -0.324 OA 
ENDROOT
BRANCH   2   8
ATOM      8  CB  ASP A   1     -10.672  13.138  64.355  1.00  0.00    -0.426 C  
ATOM      9  CG  ASP A   1     -11.980  13.022  63.618  1.00  0.00    -0.539 C  
ATOM     10  OD2 ASP A   1     -12.651  13.991  63.296  1.00  0.00    -0.801 OA 
ATOM     11  OD1 ASP A   1     -12.355  11.756  63.333  1.00  0.00    -0.532 OA 
ENDBRANCH   2   8
TORSDOF 1
ENDMDL
MODEL       19
REMARK 921   NORMALIZED FREE ENERGY PREDICTED BY IDOCK:   -4.17 KCAL/MOL
REMARK 922        TOTAL FREE ENERGY PREDICTED BY IDOCK:   -4.67 KCAL/MOL
REMARK 923 INTER-LIGAND FREE ENERGY PREDICTED BY IDOCK:   -4.15 KCAL/MOL
REMARK 924 INTRA-LIGAND FREE ENERGY PREDICTED BY IDOCK:   -0.52 KCAL/MOL
REMARK 927      BINDING AFFINITY PREDICTED BY RF-SCORE:    0.00 PKD
ROOT
ATOM      1  N   ASP A   1      -9.854  15.634  65.859  1.00  0.00    -0.324 NA 
ATOM      2  CA  ASP A   1     -10.543  14.664  64.957  1.00  0.00    -0.439 C  
ATOM      3  H1  ASP A   1      -9.484  16.432  65.343  1.00  0.00     0.000 HD 
ATOM      4  H2  ASP A   1      -9.128  15.178  66.411  1.00  0.00     0.000 HD 
ATOM      5  C   ASP A   1     -11.685  15.427  64.273  1.00  0.00    -0.206 C  
ATOM      6  O   ASP A   1     -11.389  16.742  64.128  1.00  0.00    -1.194 OA 
ATOM      7  OXT ASP A   1     -12.752  14.931  63.934  1.00  0.00    -0.789 OA 
ENDROOT
BRANCH   2   8
ATOM      8  CB  ASP A   1     -11.096  13.473  65.727  1.00  0.00    -0.295 C  
ATOM      9  CG  ASP A   1     -11.182  13.771  67.201  1.00  0.00    -0.311 C  
ATOM     10  OD2 ASP A   1     -12.143  14.324  67.714  1.00  0.00    -0.363 OA 
ATOM     11  OD1 ASP A   1     -10.111  13.369  67.919  1.00  0.00    -0.226 OA 
ENDBRANCH   2   8
TORSDOF 1
ENDMDL
MODEL       20
REMARK 921   NORMALIZED FREE ENERGY PREDICTED BY IDOCK:   -4.03 KCAL/MOL
REMARK 922        TOTAL FREE ENERGY PREDICTED BY IDOCK:   -4.51 KCAL/MOL
REMARK 923 INTER-LIGAND FREE ENERGY PREDICTED BY IDOCK:   -4.01 KCAL/MOL
REMARK 924 INTRA-LIGAND FREE ENERGY PREDICTED BY IDOCK:   -0.51 KCAL/MOL
REMARK 927      BINDING AFFINITY PREDICTED BY RF-SCORE:    0.00 PKD
ROOT
ATOM      1  N   ASP A   1      -9.976  13.734  64.865  1.00  0.00    -0.620 NA 
ATOM      2  CA  ASP A   1     -11.323  13.822  64.227  1.00  0.00    -0.326 C  
ATOM      3  H1  ASP A   1      -9.737  14.593  65.361  1.00  0.00     0.000 HD 
ATOM      4  H2  ASP A   1      -9.258  13.483  64.186  1.00  0.00     0.000 HD 
ATOM      5  C   ASP A   1     -12.332  14.080  65.354  1.00  0.00    -0.478 C  
ATOM      6  O   ASP A   1     -11.771  14.770  66.377  1.00  0.00    -0.346 OA 
ATOM      7  OXT ASP A   1     -13.491  13.683  65.359  1.00  0.00    -0.550 OA 
ENDROOT
BRANCH   2   8
ATOM      8  CB  ASP A   1     -11.681  12.540  63.488  1.00  0.00    -0.595 C  
ATOM      9  CG  ASP A   1     -10.632  11.480  63.697  1.00  0.00    -0.429 C  
ATOM     10  OD2 ASP A   1     -10.634  10.720  64.653  1.00  0.00    -0.328 OA 
ATOM     11  OD1 ASP A   1      -9.685  11.429  62.735  1.00  0.00    -0.335 OA 
ENDBRANCH   2   8
TORSDOF 1
ENDMDL
MODEL       21
REMARK 921   NORMALIZED FREE ENERGY PREDICTED BY IDOCK:   -4.02 KCAL/MOL
REMARK 922        TOTAL FREE ENERGY PREDICTED BY IDOCK:   -4.51 KCAL/MOL
REMARK 923 INTER-LIGAND FREE ENERGY PREDICTED BY IDOCK:   -4.00 KCAL/MOL
REMARK 924 INTRA-LIGAND FREE ENERGY PREDICTED BY IDOCK:   -0.51 KCAL/MOL
REMARK 927      BINDING AFFINITY PREDICTED BY RF-SCORE:    0.00 PKD
ROOT
ATOM      1  N   ASP A   1     -10.104  13.003  65.053  1.00  0.00    -0.471 NA 
ATOM      2  CA  ASP A   1     -10.816  12.909  66.362  1.00  0.00    -0.274 C  
ATOM      3  H1  ASP A   1      -9.137  12.687  65.126  1.00  0.00     0.000 HD 
ATOM      4  H2  ASP A   1     -10.159  13.945  64.666  1.00  0.00     0.000 HD 
ATOM      5  C   ASP A   1     -10.774  11.435  66.785  1.00  0.00    -0.271 C  
ATOM      6  O   ASP A   1      -9.666  10.812  66.313  1.00  0.00    -0.191 OA 
ATOM      7  OXT ASP A   1     -11.646  10.869  67.433  1.00  0.00    -0.509 OA 
ENDROOT
BRANCH   2   8
ATOM      8  CB  ASP A   1     -12.259  13.381  66.253  1.00  0.00    -0.456 C  
ATOM      9  CG  ASP A   1     -12.750  13.309  64.831  1.00  0.00    -0.327 C  
ATOM     10  OD2 ASP A   1     -13.230  12.298  64.342  1.00  0.00    -0.806 OA 
ATOM     11  OD1 ASP A   1     -12.625  14.460  64.134  1.00  0.00    -0.692 OA 
ENDBRANCH   2   8
TORSDOF 1
ENDMDL
MODEL       22
REMARK 921   NORMALIZED FREE ENERGY PREDICTED BY IDOCK:   -4.02 KCAL/MOL
REMARK 922        TOTAL FREE ENERGY PREDICTED BY IDOCK:   -4.50 KCAL/MOL
REMARK 923 INTER-LIGAND FREE ENERGY PREDICTED BY IDOCK:   -3.98 KCAL/MOL
REMARK 924 INTRA-LIGAND FREE ENERGY PREDICTED BY IDOCK:   -0.52 KCAL/MOL
REMARK 927      BINDING AFFINITY PREDICTED BY RF-SCORE:    0.00 PKD
ROOT
ATOM      1  N   ASP A   1     -11.853  16.353  71.982  1.00  0.00    -0.639 NA 
ATOM      2  CA  ASP A   1     -13.161  15.640  71.875  1.00  0.00    -0.464 C  
ATOM      3  H1  ASP A   1     -11.714  16.748  72.911  1.00  0.00     0.000 HD 
ATOM      4  H2  ASP A   1     -11.757  17.064  71.257  1.00  0.00     0.000 HD 
ATOM      5  C   ASP A   1     -13.144  14.522  72.927  1.00  0.00    -0.519 C  
ATOM      6  O   ASP A   1     -12.383  14.857  73.997  1.00  0.00    -0.547 OA 
ATOM      7  OXT ASP A   1     -13.710  13.442  72.808  1.00  0.00    -0.697 OA 
ENDROOT
BRANCH   2   8
ATOM      8  CB  ASP A   1     -13.369  15.049  70.487  1.00  0.00    -0.177 C  
ATOM      9  CG  ASP A   1     -12.074  14.990  69.721  1.00  0.00    -0.314 C  
ATOM     10  OD2 ASP A   1     -11.290  14.057  69.807  1.00  0.00    -0.243 OA 
ATOM     11  OD1 ASP A   1     -11.847  16.053  68.919  1.00  0.00    -0.379 OA 
ENDBRANCH   2   8
TORSDOF 1
ENDMDL
MODEL       23
REMARK 921   NORMALIZED FREE ENERGY PREDICTED BY IDOCK:   -3.99 KCAL/MOL
REMARK 922        TOTAL FREE ENERGY PREDICTED BY IDOCK:   -4.47 KCAL/MOL
REMARK 923 INTER-LIGAND FREE ENERGY PREDICTED BY IDOCK:   -4.01 KCAL/MOL
REMARK 924 INTRA-LIGAND FREE ENERGY PREDICTED BY IDOCK:   -0.47 KCAL/MOL
REMARK 927      BINDING AFFINITY PREDICTED BY RF-SCORE:    0.00 PKD
ROOT
ATOM      1  N   ASP A   1     -11.106  15.561  64.496  1.00  0.00    -0.703 NA 
ATOM      2  CA  ASP A   1     -10.743  14.155  64.844  1.00  0.00    -0.428 C  
ATOM      3  H1  ASP A   1     -11.412  15.643  63.527  1.00  0.00     0.000 HD 
ATOM      4  H2  ASP A   1     -10.341  16.204  64.700  1.00  0.00     0.000 HD 
ATOM      5  C   ASP A   1     -11.998  13.303  64.614  1.00  0.00    -0.394 C  
ATOM      6  O   ASP A   1     -12.777  13.817  63.631  1.00  0.00    -0.718 OA 
ATOM      7  OXT ASP A   1     -12.291  12.303  65.259  1.00  0.00    -0.555 OA 
ENDROOT
BRANCH   2   8
ATOM      8  CB  ASP A   1     -10.284  14.033  66.291  1.00  0.00    -0.300 C  
ATOM      9  CG  ASP A   1     -10.931  15.081  67.157  1.00  0.00    -0.329 C  
ATOM     10  OD2 ASP A   1     -12.026  14.933  67.677  1.00  0.00    -0.317 OA 
ATOM     11  OD1 ASP A   1     -10.198  16.204  67.322  1.00  0.00    -0.265 OA 
ENDBRANCH   2   8
TORSDOF 1
ENDMDL
MODEL       24
REMARK 921   NORMALIZED FREE ENERGY PREDICTED BY IDOCK:   -3.98 KCAL/MOL
REMARK 922        TOTAL FREE ENERGY PREDICTED BY IDOCK:   -4.46 KCAL/MOL
REMARK 923 INTER-LIGAND FREE ENERGY PREDICTED BY IDOCK:   -4.00 KCAL/MOL
REMARK 924 INTRA-LIGAND FREE ENERGY PREDICTED BY IDOCK:   -0.46 KCAL/MOL
REMARK 927      BINDING AFFINITY PREDICTED BY RF-SCORE:    0.00 PKD
ROOT
ATOM      1  N   ASP A   1     -11.170  11.952  65.819  1.00  0.00    -0.325 NA 
ATOM      2  CA  ASP A   1     -12.393  12.612  65.272  1.00  0.00    -0.466 C  
ATOM      3  H1  ASP A   1     -10.991  11.055  65.368  1.00  0.00     0.000 HD 
ATOM      4  H2  ASP A   1     -11.222  11.854  66.833  1.00  0.00     0.000 HD 
ATOM      5  C   ASP A   1     -12.152  12.816  63.770  1.00  0.00    -0.517 C  
ATOM      6  O   ASP A   1     -11.339  11.859  63.261  1.00  0.00    -0.360 OA 
ATOM      7  OXT ASP A   1     -12.601  13.745  63.111  1.00  0.00    -0.793 OA 
ENDROOT
BRANCH   2   8
ATOM      8  CB  ASP A   1     -12.660  13.951  65.946  1.00  0.00    -0.498 C  
ATOM      9  CG  ASP A   1     -11.694  14.194  67.075  1.00  0.00    -0.405 C  
ATOM     10  OD2 ASP A   1     -10.592  14.696  66.913  1.00  0.00    -0.274 OA 
ATOM     11  OD1 ASP A   1     -12.145  13.819  68.292  1.00  0.00    -0.362 OA 
ENDBRANCH   2   8
TORSDOF 1
ENDMDL
MODEL       25
REMARK 921   NORMALIZED FREE ENERGY PREDICTED BY IDOCK:   -3.95 KCAL/MOL
REMARK 922        TOTAL FREE ENERGY PREDICTED BY IDOCK:   -4.42 KCAL/MOL
REMARK 923 INTER-LIGAND FREE ENERGY PREDICTED BY IDOCK:   -3.91 KCAL/MOL
REMARK 924 INTRA-LIGAND FREE ENERGY PREDICTED BY IDOCK:   -0.51 KCAL/MOL
REMARK 927      BINDING AFFINITY PREDICTED BY RF-SCORE:    0.00 PKD
ROOT
ATOM      1  N   ASP A   1     -10.009  12.728  65.201  1.00  0.00    -0.456 NA 
ATOM      2  CA  ASP A   1     -11.461  12.388  65.272  1.00  0.00    -0.344 C  
ATOM      3  H1  ASP A   1      -9.447  11.926  64.914  1.00  0.00     0.000 HD 
ATOM      4  H2  ASP A   1      -9.675  13.121  66.080  1.00  0.00     0.000 HD 
ATOM      5  C   ASP A   1     -11.879  11.926  63.870  1.00  0.00    -0.411 C  
ATOM      6  O   ASP A   1     -10.847  11.345  63.209  1.00  0.00    -0.349 OA 
ATOM      7  OXT ASP A   1     -12.990  12.091  63.382  1.00  0.00    -0.772 OA 
ENDROOT
BRANCH   2   8
ATOM      8  CB  ASP A   1     -12.299  13.585  65.700  1.00  0.00    -0.522 C  
ATOM      9  CG  ASP A   1     -11.470  14.841  65.751  1.00  0.00    -0.322 C  
ATOM     10  OD2 ASP A   1     -11.274  15.550  64.775  1.00  0.00    -0.422 OA 
ATOM     11  OD1 ASP A   1     -10.960  15.129  66.968  1.00  0.00    -0.314 OA 
ENDBRANCH   2   8
TORSDOF 1
ENDMDL
MODEL       26
REMARK 921   NORMALIZED FREE ENERGY PREDICTED BY IDOCK:   -3.93 KCAL/MOL
REMARK 922        TOTAL FREE ENERGY PREDICTED BY IDOCK:   -4.41 KCAL/MOL
REMARK 923 INTER-LIGAND FREE ENERGY PREDICTED BY IDOCK:   -3.90 KCAL/MOL
REMARK 924 INTRA-LIGAND FREE ENERGY PREDICTED BY IDOCK:   -0.51 KCAL/MOL
REMARK 927      BINDING AFFINITY PREDICTED BY RF-SCORE:    0.00 PKD
ROOT
ATOM      1  N   ASP A   1     -10.375  13.472  64.001  1.00  0.00    -0.691 NA 
ATOM      2  CA  ASP A   1     -10.085  12.477  65.076  1.00  0.00    -0.236 C  
ATOM      3  H1  ASP A   1      -9.584  13.583  63.366  1.00  0.00     0.000 HD 
ATOM      4  H2  ASP A   1     -10.666  14.368  64.392  1.00  0.00     0.000 HD 
ATOM      5  C   ASP A   1      -9.779  11.146  64.378  1.00  0.00    -0.268 C  
ATOM      6  O   ASP A   1      -9.228  11.339  63.155  1.00  0.00    -0.278 OA 
ATOM      7  OXT ASP A   1     -10.034  10.040  64.839  1.00  0.00    -0.325 OA 
ENDROOT
BRANCH   2   8
ATOM      8  CB  ASP A   1     -11.266  12.312  66.024  1.00  0.00    -0.375 C  
ATOM      9  CG  ASP A   1     -12.480  13.041  65.512  1.00  0.00    -0.438 C  
ATOM     10  OD2 ASP A   1     -13.271  12.546  64.724  1.00  0.00    -0.839 OA 
ATOM     11  OD1 ASP A   1     -12.633  14.291  66.001  1.00  0.00    -0.447 OA 
ENDBRANCH   2   8
TORSDOF 1
ENDMDL
MODEL       27
REMARK 921   NORMALIZED FREE ENERGY PREDICTED BY IDOCK:   -3.91 KCAL/MOL
REMARK 922        TOTAL FREE ENERGY PREDICTED BY IDOCK:   -4.38 KCAL/MOL
REMARK 923 INTER-LIGAND FREE ENERGY PREDICTED BY IDOCK:   -3.88 KCAL/MOL
REMARK 924 INTRA-LIGAND FREE ENERGY PREDICTED BY IDOCK:   -0.50 KCAL/MOL
REMARK 927      BINDING AFFINITY PREDICTED BY RF-SCORE:    0.00 PKD
ROOT
ATOM      1  N   ASP A   1     -10.497  13.890  65.339  1.00  0.00    -0.327 NA 
ATOM      2  CA  ASP A   1     -11.716  13.477  66.095  1.00  0.00    -0.365 C  
ATOM      3  H1  ASP A   1      -9.804  14.324  65.948  1.00  0.00     0.000 HD 
ATOM      4  H2  ASP A   1     -10.734  14.497  64.554  1.00  0.00     0.000 HD 
ATOM      5  C   ASP A   1     -11.257  12.478  67.166  1.00  0.00    -0.300 C  
ATOM      6  O   ASP A   1      -9.987  12.727  67.568  1.00  0.00    -0.205 OA 
ATOM      7  OXT ASP A   1     -11.930  11.544  67.584  1.00  0.00    -0.630 OA 
ENDROOT
BRANCH   2   8
ATOM      8  CB  ASP A   1     -12.751  12.829  65.185  1.00  0.00    -0.402 C  
ATOM      9  CG  ASP A   1     -12.233  12.698  63.778  1.00  0.00    -0.514 C  
ATOM     10  OD2 ASP A   1     -11.565  11.748  63.399  1.00  0.00    -0.410 OA 
ATOM     11  OD1 ASP A   1     -12.571  13.716  62.957  1.00  0.00    -0.729 OA 
ENDBRANCH   2   8
TORSDOF 1
ENDMDL
MODEL       28
REMARK 921   NORMALIZED FREE ENERGY PREDICTED BY IDOCK:   -3.86 KCAL/MOL
REMARK 922        TOTAL FREE ENERGY PREDICTED BY IDOCK:   -4.34 KCAL/MOL
REMARK 923 INTER-LIGAND FREE ENERGY PREDICTED BY IDOCK:   -3.84 KCAL/MOL
REMARK 924 INTRA-LIGAND FREE ENERGY PREDICTED BY IDOCK:   -0.49 KCAL/MOL
REMARK 927      BINDING AFFINITY PREDICTED BY RF-SCORE:    0.00 PKD
ROOT
ATOM      1  N   ASP A   1     -10.025  13.171  64.039  1.00  0.00    -0.763 NA 
ATOM      2  CA  ASP A   1     -11.162  12.751  64.912  1.00  0.00    -0.297 C  
ATOM      3  H1  ASP A   1     -10.225  13.003  63.053  1.00  0.00     0.000 HD 
ATOM      4  H2  ASP A   1      -9.153  12.724  64.323  1.00  0.00     0.000 HD 
ATOM      5  C   ASP A   1     -12.383  13.571  64.475  1.00  0.00    -0.355 C  
ATOM      6  O   ASP A   1     -12.325  13.888  63.158  1.00  0.00    -0.696 OA 
ATOM      7  OXT ASP A   1     -13.284  13.934  65.221  1.00  0.00    -0.774 OA 
ENDROOT
BRANCH   2   8
ATOM      8  CB  ASP A   1     -10.863  13.000  66.384  1.00  0.00    -0.294 C  
ATOM      9  CG  ASP A   1      -9.509  13.635  66.565  1.00  0.00    -0.259 C  
ATOM     10  OD2 ASP A   1      -9.325  14.841  66.506  1.00  0.00    -0.261 OA 
ATOM     11  OD1 ASP A   1      -8.507  12.762  66.807  1.00  0.00    -0.144 OA 
ENDBRANCH   2   8
TORSDOF 1
ENDMDL
MODEL       29
REMARK 921   NORMALIZED FREE ENERGY PREDICTED BY IDOCK:   -3.84 KCAL/MOL
REMARK 922        TOTAL FREE ENERGY PREDICTED BY IDOCK:   -4.31 KCAL/MOL
REMARK 923 INTER-LIGAND FREE ENERGY PREDICTED BY IDOCK:   -3.79 KCAL/MOL
REMARK 924 INTRA-LIGAND FREE ENERGY PREDICTED BY IDOCK:   -0.52 KCAL/MOL
REMARK 927      BINDING AFFINITY PREDICTED BY RF-SCORE:    0.00 PKD
ROOT
ATOM      1  N   ASP A   1     -11.768  11.779  66.769  1.00  0.00    -0.571 NA 
ATOM      2  CA  ASP A   1     -10.609  12.278  65.971  1.00  0.00    -0.254 C  
ATOM      3  H1  ASP A   1     -11.474  11.419  67.677  1.00  0.00     0.000 HD 
ATOM      4  H2  ASP A   1     -12.306  11.085  66.250  1.00  0.00     0.000 HD 
ATOM      5  C   ASP A   1      -9.952  13.394  66.793  1.00  0.00    -0.264 C  
ATOM      6  O   ASP A   1     -10.112  13.194  68.124  1.00  0.00    -0.225 OA 
ATOM      7  OXT ASP A   1      -9.386  14.371  66.317  1.00  0.00    -0.283 OA 
ENDROOT
BRANCH   2   8
ATOM      8  CB  ASP A   1     -11.048  12.814  64.615  1.00  0.00    -0.349 C  
ATOM      9  CG  ASP A   1     -12.518  13.140  64.609  1.00  0.00    -0.373 C  
ATOM     10  OD2 ASP A   1     -12.964  14.215  64.980  1.00  0.00    -0.721 OA 
ATOM     11  OD1 ASP A   1     -13.312  12.148  64.150  1.00  0.00    -0.750 OA 
ENDBRANCH   2   8
TORSDOF 1
ENDMDL
MODEL       30
REMARK 921   NORMALIZED FREE ENERGY PREDICTED BY IDOCK:   -3.78 KCAL/MOL
REMARK 922        TOTAL FREE ENERGY PREDICTED BY IDOCK:   -4.25 KCAL/MOL
REMARK 923 INTER-LIGAND FREE ENERGY PREDICTED BY IDOCK:   -4.12 KCAL/MOL
REMARK 924 INTRA-LIGAND FREE ENERGY PREDICTED BY IDOCK:   -0.13 KCAL/MOL
REMARK 927      BINDING AFFINITY PREDICTED BY RF-SCORE:    0.00 PKD
ROOT
ATOM      1  N   ASP A   1     -11.013  11.400  62.992  1.00  0.00    -0.825 NA 
ATOM      2  CA  ASP A   1     -11.057  12.118  64.300  1.00  0.00    -0.346 C  
ATOM      3  H1  ASP A   1     -10.068  11.089  62.764  1.00  0.00     0.000 HD 
ATOM      4  H2  ASP A   1     -11.409  11.966  62.242  1.00  0.00     0.000 HD 
ATOM      5  C   ASP A   1     -10.554  11.135  65.365  1.00  0.00    -0.227 C  
ATOM      6  O   ASP A   1      -9.662  10.255  64.848  1.00  0.00    -0.273 OA 
ATOM      7  OXT ASP A   1     -10.934  11.111  66.529  1.00  0.00    -0.271 OA 
ENDROOT
BRANCH   2   8
ATOM      8  CB  ASP A   1     -12.467  12.582  64.640  1.00  0.00    -0.539 C  
ATOM      9  CG  ASP A   1     -12.498  14.057  64.940  1.00  0.00    -0.396 C  
ATOM     10  OD2 ASP A   1     -12.617  14.911  64.074  1.00  0.00    -0.832 OA 
ATOM     11  OD1 ASP A   1     -12.391  14.367  66.250  1.00  0.00    -0.409 OA 
ENDBRANCH   2   8
TORSDOF 1
ENDMDL
MODEL       31
REMARK 921   NORMALIZED FREE ENERGY PREDICTED BY IDOCK:   -3.77 KCAL/MOL
REMARK 922        TOTAL FREE ENERGY PREDICTED BY IDOCK:   -4.24 KCAL/MOL
REMARK 923 INTER-LIGAND FREE ENERGY PREDICTED BY IDOCK:   -3.99 KCAL/MOL
REMARK 924 INTRA-LIGAND FREE ENERGY PREDICTED BY IDOCK:   -0.25 KCAL/MOL
REMARK 927      BINDING AFFINITY PREDICTED BY RF-SCORE:    0.00 PKD
ROOT
ATOM      1  N   ASP A   1     -11.459  15.011  67.597  1.00  0.00    -0.339 NA 
ATOM      2  CA  ASP A   1     -12.071  13.942  66.752  1.00  0.00    -0.439 C  
ATOM      3  H1  ASP A   1     -11.903  15.067  68.514  1.00  0.00     0.000 HD 
ATOM      4  H2  ASP A   1     -11.472  15.913  67.123  1.00  0.00     0.000 HD 
ATOM      5  C   ASP A   1     -11.888  12.619  67.509  1.00  0.00    -0.334 C  
ATOM      6  O   ASP A   1     -11.872  12.810  68.851  1.00  0.00    -0.305 OA 
ATOM      7  OXT ASP A   1     -11.733  11.526  66.978  1.00  0.00    -0.556 OA 
ENDROOT
BRANCH   2   8
ATOM      8  CB  ASP A   1     -11.408  13.858  65.384  1.00  0.00    -0.311 C  
ATOM      9  CG  ASP A   1     -11.674  15.100  64.574  1.00  0.00    -0.328 C  
ATOM     10  OD2 ASP A   1     -10.984  16.105  64.650  1.00  0.00    -0.642 OA 
ATOM     11  OD1 ASP A   1     -12.737  15.013  63.745  1.00  0.00    -0.741 OA 
ENDBRANCH   2   8
TORSDOF 1
ENDMDL
MODEL       32
REMARK 921   NORMALIZED FREE ENERGY PREDICTED BY IDOCK:   -3.76 KCAL/MOL
REMARK 922        TOTAL FREE ENERGY PREDICTED BY IDOCK:   -4.23 KCAL/MOL
REMARK 923 INTER-LIGAND FREE ENERGY PREDICTED BY IDOCK:   -3.95 KCAL/MOL
REMARK 924 INTRA-LIGAND FREE ENERGY PREDICTED BY IDOCK:   -0.28 KCAL/MOL
REMARK 927      BINDING AFFINITY PREDICTED BY RF-SCORE:    0.00 PKD
ROOT
ATOM      1  N   ASP A   1     -12.071  11.674  67.662  1.00  0.00    -0.573 NA 
ATOM      2  CA  ASP A   1     -11.524  13.063  67.654  1.00  0.00    -0.324 C  
ATOM      3  H1  ASP A   1     -11.632  11.100  68.382  1.00  0.00     0.000 HD 
ATOM      4  H2  ASP A   1     -11.996  11.239  66.742  1.00  0.00     0.000 HD 
ATOM      5  C   ASP A   1     -11.798  13.656  69.042  1.00  0.00    -0.352 C  
ATOM      6  O   ASP A   1     -11.812  12.697  70.000  1.00  0.00    -0.329 OA 
ATOM      7  OXT ASP A   1     -12.019  14.840  69.265  1.00  0.00    -0.303 OA 
ENDROOT
BRANCH   2   8
ATOM      8  CB  ASP A   1     -12.179  13.920  66.580  1.00  0.00    -0.482 C  
ATOM      9  CG  ASP A   1     -12.185  13.215  65.249  1.00  0.00    -0.455 C  
ATOM     10  OD2 ASP A   1     -13.063  12.435  64.912  1.00  0.00    -0.765 OA 
ATOM     11  OD1 ASP A   1     -11.141  13.518  64.447  1.00  0.00    -0.370 OA 
ENDBRANCH   2   8
TORSDOF 1
ENDMDL
MODEL       33
REMARK 921   NORMALIZED FREE ENERGY PREDICTED BY IDOCK:   -3.72 KCAL/MOL
REMARK 922        TOTAL FREE ENERGY PREDICTED BY IDOCK:   -4.18 KCAL/MOL
REMARK 923 INTER-LIGAND FREE ENERGY PREDICTED BY IDOCK:   -3.67 KCAL/MOL
REMARK 924 INTRA-LIGAND FREE ENERGY PREDICTED BY IDOCK:   -0.52 KCAL/MOL
REMARK 927      BINDING AFFINITY PREDICTED BY RF-SCORE:    0.00 PKD
ROOT
ATOM      1  N   ASP A   1     -11.866  13.254  70.509  1.00  0.00    -0.542 NA 
ATOM      2  CA  ASP A   1     -12.386  14.534  69.943  1.00  0.00    -0.298 C  
ATOM      3  H1  ASP A   1     -11.388  12.696  69.801  1.00  0.00     0.000 HD 
ATOM      4  H2  ASP A   1     -12.606  12.721  70.965  1.00  0.00     0.000 HD 
ATOM      5  C   ASP A   1     -11.176  15.302  69.396  1.00  0.00    -0.285 C  
ATOM      6  O   ASP A   1     -10.201  14.459  68.975  1.00  0.00    -0.230 OA 
ATOM      7  OXT ASP A   1     -11.074  16.522  69.373  1.00  0.00    -0.311 OA 
ENDROOT
BRANCH   2   8
ATOM      8  CB  ASP A   1     -13.100  15.367  70.999  1.00  0.00    -0.565 C  
ATOM      9  CG  ASP A   1     -12.874  14.807  72.379  1.00  0.00    -0.348 C  
ATOM     10  OD2 ASP A   1     -11.904  15.093  73.063  1.00  0.00    -0.388 OA 
ATOM     11  OD1 ASP A   1     -13.838  13.963  72.808  1.00  0.00    -0.701 OA 
ENDBRANCH   2   8
TORSDOF 1
ENDMDL
MODEL       34
REMARK 921   NORMALIZED FREE ENERGY PREDICTED BY IDOCK:   -3.71 KCAL/MOL
REMARK 922        TOTAL FREE ENERGY PREDICTED BY IDOCK:   -4.17 KCAL/MOL
REMARK 923 INTER-LIGAND FREE ENERGY PREDICTED BY IDOCK:   -4.04 KCAL/MOL
REMARK 924 INTRA-LIGAND FREE ENERGY PREDICTED BY IDOCK:   -0.13 KCAL/MOL
REMARK 927      BINDING AFFINITY PREDICTED BY RF-SCORE:    0.00 PKD
ROOT
ATOM      1  N   ASP A   1      -9.829  14.425  66.114  1.00  0.00    -0.307 NA 
ATOM      2  CA  ASP A   1     -10.686  14.129  64.927  1.00  0.00    -0.428 C  
ATOM      3  H1  ASP A   1      -9.107  15.112  65.896  1.00  0.00     0.000 HD 
ATOM      4  H2  ASP A   1      -9.426  13.573  66.504  1.00  0.00     0.000 HD 
ATOM      5  C   ASP A   1     -11.331  15.456  64.504  1.00  0.00    -0.313 C  
ATOM      6  O   ASP A   1     -10.538  16.514  64.803  1.00  0.00    -0.684 OA 
ATOM      7  OXT ASP A   1     -12.440  15.562  63.995  1.00  0.00    -0.641 OA 
ENDROOT
BRANCH   2   8
ATOM      8  CB  ASP A   1     -11.763  13.104  65.252  1.00  0.00    -0.375 C  
ATOM      9  CG  ASP A   1     -11.815  12.019  64.209  1.00  0.00    -0.346 C  
ATOM     10  OD2 ASP A   1     -11.107  11.025  64.245  1.00  0.00    -0.242 OA 
ATOM     11  OD1 ASP A   1     -12.718  12.228  63.226  1.00  0.00    -0.699 OA 
ENDBRANCH   2   8
TORSDOF 1
ENDMDL
MODEL       35
REMARK 921   NORMALIZED FREE ENERGY PREDICTED BY IDOCK:   -3.70 KCAL/MOL
REMARK 922        TOTAL FREE ENERGY PREDICTED BY IDOCK:   -4.16 KCAL/MOL
REMARK 923 INTER-LIGAND FREE ENERGY PREDICTED BY IDOCK:   -3.66 KCAL/MOL
REMARK 924 INTRA-LIGAND FREE ENERGY PREDICTED BY IDOCK:   -0.50 KCAL/MOL
REMARK 927      BINDING AFFINITY PREDICTED BY RF-SCORE:    0.00 PKD
ROOT
ATOM      1  N   ASP A   1     -10.719  17.277  67.080  1.00  0.00    -0.242 NA 
ATOM      2  CA  ASP A   1      -9.416  16.646  66.712  1.00  0.00    -0.244 C  
ATOM      3  H1  ASP A   1     -10.636  17.851  67.919  1.00  0.00     0.000 HD 
ATOM      4  H2  ASP A   1     -11.456  16.578  67.179  1.00  0.00     0.000 HD 
ATOM      5  C   ASP A   1      -8.422  17.790  66.472  1.00  0.00    -0.260 C  
ATOM      6  O   ASP A   1      -8.717  18.875  67.230  1.00  0.00    -0.273 OA 
ATOM      7  OXT ASP A   1      -7.497  17.755  65.670  1.00  0.00    -0.533 OA 
ENDROOT
BRANCH   2   8
ATOM      8  CB  ASP A   1      -9.540  15.789  65.459  1.00  0.00    -0.202 C  
ATOM      9  CG  ASP A   1     -10.923  15.881  64.871  1.00  0.00    -0.411 C  
ATOM     10  OD2 ASP A   1     -11.258  16.758  64.089  1.00  0.00    -1.155 OA 
ATOM     11  OD1 ASP A   1     -11.770  14.908  65.271  1.00  0.00    -0.335 OA 
ENDBRANCH   2   8
TORSDOF 1
ENDMDL
MODEL       36
REMARK 921   NORMALIZED FREE ENERGY PREDICTED BY IDOCK:   -3.69 KCAL/MOL
REMARK 922        TOTAL FREE ENERGY PREDICTED BY IDOCK:   -4.15 KCAL/MOL
REMARK 923 INTER-LIGAND FREE ENERGY PREDICTED BY IDOCK:   -4.02 KCAL/MOL
REMARK 924 INTRA-LIGAND FREE ENERGY PREDICTED BY IDOCK:   -0.13 KCAL/MOL
REMARK 927      BINDING AFFINITY PREDICTED BY RF-SCORE:    0.00 PKD
ROOT
ATOM      1  N   ASP A   1     -14.066   9.077  73.133  1.00  0.00    -1.223 NA 
ATOM      2  CA  ASP A   1     -12.860   8.923  72.266  1.00  0.00    -0.411 C  
ATOM      3  H1  ASP A   1     -13.987   9.887  73.747  1.00  0.00     0.000 HD 
ATOM      4  H2  ASP A   1     -14.256   8.226  73.661  1.00  0.00     0.000 HD 
ATOM      5  C   ASP A   1     -12.744  10.207  71.434  1.00  0.00    -0.425 C  
ATOM      6  O   ASP A   1     -13.249  11.277  72.096  1.00  0.00    -0.481 OA 
ATOM      7  OXT ASP A   1     -12.291  10.265  70.297  1.00  0.00    -0.259 OA 
ENDROOT
BRANCH   2   8
ATOM      8  CB  ASP A   1     -12.978   7.714  71.348  1.00  0.00    -0.350 C  
ATOM      9  CG  ASP A   1     -11.805   6.785  71.518  1.00  0.00    -0.333 C  
ATOM     10  OD2 ASP A   1     -11.765   5.911  72.371  1.00  0.00    -0.309 OA 
ATOM     11  OD1 ASP A   1     -10.795   6.988  70.643  1.00  0.00    -0.232 OA 
ENDBRANCH   2   8
TORSDOF 1
ENDMDL
MODEL       37
REMARK 921   NORMALIZED FREE ENERGY PREDICTED BY IDOCK:   -3.67 KCAL/MOL
REMARK 922        TOTAL FREE ENERGY PREDICTED BY IDOCK:   -4.13 KCAL/MOL
REMARK 923 INTER-LIGAND FREE ENERGY PREDICTED BY IDOCK:   -3.62 KCAL/MOL
REMARK 924 INTRA-LIGAND FREE ENERGY PREDICTED BY IDOCK:   -0.51 KCAL/MOL
REMARK 927      BINDING AFFINITY PREDICTED BY RF-SCORE:    0.00 PKD
ROOT
ATOM      1  N   ASP A   1     -12.364  14.436  66.835  1.00  0.00    -0.547 NA 
ATOM      2  CA  ASP A   1     -11.416  13.439  66.255  1.00  0.00    -0.325 C  
ATOM      3  H1  ASP A   1     -12.697  14.148  67.755  1.00  0.00     0.000 HD 
ATOM      4  H2  ASP A   1     -13.140  14.625  66.201  1.00  0.00     0.000 HD 
ATOM      5  C   ASP A   1     -10.237  13.326  67.231  1.00  0.00    -0.240 C  
ATOM      6  O   ASP A   1     -10.623  13.567  68.508  1.00  0.00    -0.238 OA 
ATOM      7  OXT ASP A   1      -9.081  13.088  66.906  1.00  0.00    -0.222 OA 
ENDROOT
BRANCH   2   8
ATOM      8  CB  ASP A   1     -10.918  13.868  64.881  1.00  0.00    -0.391 C  
ATOM      9  CG  ASP A   1     -11.404  15.250  64.534  1.00  0.00    -0.300 C  
ATOM     10  OD2 ASP A   1     -10.816  16.267  64.869  1.00  0.00    -0.625 OA 
ATOM     11  OD1 ASP A   1     -12.545  15.280  63.811  1.00  0.00    -0.733 OA 
ENDBRANCH   2   8
TORSDOF 1
ENDMDL
MODEL       38
REMARK 921   NORMALIZED FREE ENERGY PREDICTED BY IDOCK:   -3.65 KCAL/MOL
REMARK 922        TOTAL FREE ENERGY PREDICTED BY IDOCK:   -4.11 KCAL/MOL
REMARK 923 INTER-LIGAND FREE ENERGY PREDICTED BY IDOCK:   -3.98 KCAL/MOL
REMARK 924 INTRA-LIGAND FREE ENERGY PREDICTED BY IDOCK:   -0.13 KCAL/MOL
REMARK 927      BINDING AFFINITY PREDICTED BY RF-SCORE:    0.00 PKD
ROOT
ATOM      1  N   ASP A   1     -10.763  13.611  65.433  1.00  0.00    -0.297 NA 
ATOM      2  CA  ASP A   1     -10.882  15.070  65.727  1.00  0.00    -0.350 C  
ATOM      3  H1  ASP A   1     -11.677  13.177  65.299  1.00  0.00     0.000 HD 
ATOM      4  H2  ASP A   1     -10.224  13.129  66.152  1.00  0.00     0.000 HD 
ATOM      5  C   ASP A   1     -11.598  15.707  64.529  1.00  0.00    -0.262 C  
ATOM      6  O   ASP A   1     -12.448  14.835  63.934  1.00  0.00    -0.811 OA 
ATOM      7  OXT ASP A   1     -11.405  16.848  64.126  1.00  0.00    -1.208 OA 
ENDROOT
BRANCH   2   8
ATOM      8  CB  ASP A   1      -9.518  15.717  65.927  1.00  0.00    -0.376 C  
ATOM      9  CG  ASP A   1      -9.436  16.415  67.259  1.00  0.00    -0.227 C  
ATOM     10  OD2 ASP A   1      -9.120  15.845  68.292  1.00  0.00    -0.181 OA 
ATOM     11  OD1 ASP A   1      -9.734  17.732  67.222  1.00  0.00    -0.272 OA 
ENDBRANCH   2   8
TORSDOF 1
ENDMDL
MODEL       39
REMARK 921   NORMALIZED FREE ENERGY PREDICTED BY IDOCK:   -3.63 KCAL/MOL
REMARK 922        TOTAL FREE ENERGY PREDICTED BY IDOCK:   -4.09 KCAL/MOL
REMARK 923 INTER-LIGAND FREE ENERGY PREDICTED BY IDOCK:   -3.57 KCAL/MOL
REMARK 924 INTRA-LIGAND FREE ENERGY PREDICTED BY IDOCK:   -0.52 KCAL/MOL
REMARK 927      BINDING AFFINITY PREDICTED BY RF-SCORE:    0.00 PKD
ROOT
ATOM      1  N   ASP A   1      -8.133  20.325  65.863  1.00  0.00    -0.550 NA 
ATOM      2  CA  ASP A   1      -8.604  20.291  67.280  1.00  0.00    -0.347 C  
ATOM      3  H1  ASP A   1      -7.193  20.714  65.787  1.00  0.00     0.000 HD 
ATOM      4  H2  ASP A   1      -8.791  20.824  65.264  1.00  0.00     0.000 HD 
ATOM      5  C   ASP A   1      -7.608  19.421  68.057  1.00  0.00    -0.289 C  
ATOM      6  O   ASP A   1      -6.365  19.484  67.521  1.00  0.00    -0.197 OA 
ATOM      7  OXT ASP A   1      -7.896  18.720  69.020  1.00  0.00    -0.278 OA 
ENDROOT
BRANCH   2   8
ATOM      8  CB  ASP A   1     -10.007  19.711  67.393  1.00  0.00    -0.510 C  
ATOM      9  CG  ASP A   1     -10.443  19.084  66.095  1.00  0.00    -0.467 C  
ATOM     10  OD2 ASP A   1     -10.181  17.930  65.791  1.00  0.00    -0.577 OA 
ATOM     11  OD1 ASP A   1     -11.158  19.899  65.290  1.00  0.00    -0.360 OA 
ENDBRANCH   2   8
TORSDOF 1
ENDMDL
MODEL       40
REMARK 921   NORMALIZED FREE ENERGY PREDICTED BY IDOCK:   -3.58 KCAL/MOL
REMARK 922        TOTAL FREE ENERGY PREDICTED BY IDOCK:   -4.04 KCAL/MOL
REMARK 923 INTER-LIGAND FREE ENERGY PREDICTED BY IDOCK:   -3.77 KCAL/MOL
REMARK 924 INTRA-LIGAND FREE ENERGY PREDICTED BY IDOCK:   -0.28 KCAL/MOL
REMARK 927      BINDING AFFINITY PREDICTED BY RF-SCORE:    0.00 PKD
ROOT
ATOM      1  N   ASP A   1     -12.345  10.717  68.826  1.00  0.00    -0.792 NA 
ATOM      2  CA  ASP A   1     -11.720  11.931  69.432  1.00  0.00    -0.339 C  
ATOM      3  H1  ASP A   1     -12.226   9.896  69.419  1.00  0.00     0.000 HD 
ATOM      4  H2  ASP A   1     -11.993  10.549  67.884  1.00  0.00     0.000 HD 
ATOM      5  C   ASP A   1     -12.408  12.154  70.786  1.00  0.00    -0.297 C  
ATOM      6  O   ASP A   1     -12.826  10.986  71.332  1.00  0.00    -0.400 OA 
ATOM      7  OXT ASP A   1     -12.597  13.249  71.301  1.00  0.00    -0.358 OA 
ENDROOT
BRANCH   2   8
ATOM      8  CB  ASP A   1     -11.897  13.157  68.547  1.00  0.00    -0.377 C  
ATOM      9  CG  ASP A   1     -11.492  12.865  67.126  1.00  0.00    -0.336 C  
ATOM     10  OD2 ASP A   1     -12.253  12.380  66.303  1.00  0.00    -0.620 OA 
ATOM     11  OD1 ASP A   1     -10.215  13.190  66.828  1.00  0.00    -0.245 OA 
ENDBRANCH   2   8
TORSDOF 1
ENDMDL
MODEL       41
REMARK 921   NORMALIZED FREE ENERGY PREDICTED BY IDOCK:   -3.55 KCAL/MOL
REMARK 922        TOTAL FREE ENERGY PREDICTED BY IDOCK:   -4.00 KCAL/MOL
REMARK 923 INTER-LIGAND FREE ENERGY PREDICTED BY IDOCK:   -3.87 KCAL/MOL
REMARK 924 INTRA-LIGAND FREE ENERGY PREDICTED BY IDOCK:   -0.13 KCAL/MOL
REMARK 927      BINDING AFFINITY PREDICTED BY RF-SCORE:    0.00 PKD
ROOT
ATOM      1  N   ASP A   1     -11.004  15.614  67.903  1.00  0.00    -0.310 NA 
ATOM      2  CA  ASP A   1     -11.105  15.213  66.468  1.00  0.00    -0.305 C  
ATOM      3  H1  ASP A   1     -10.072  15.954  68.135  1.00  0.00     0.000 HD 
ATOM      4  H2  ASP A   1     -11.288  14.854  68.522  1.00  0.00     0.000 HD 
ATOM      5  C   ASP A   1     -10.776  16.459  65.636  1.00  0.00    -0.270 C  
ATOM      6  O   ASP A   1      -9.915  17.280  66.286  1.00  0.00    -0.289 OA 
ATOM      7  OXT ASP A   1     -11.256  16.712  64.537  1.00  0.00    -0.909 OA 
ENDROOT
BRANCH   2   8
ATOM      8  CB  ASP A   1     -12.497  14.704  66.122  1.00  0.00    -0.025 C  
ATOM      9  CG  ASP A   1     -12.427  13.443  65.301  1.00  0.00    -0.483 C  
ATOM     10  OD2 ASP A   1     -12.336  12.330  65.797  1.00  0.00    -0.622 OA 
ATOM     11  OD1 ASP A   1     -12.480  13.637  63.966  1.00  0.00    -0.659 OA 
ENDBRANCH   2   8
TORSDOF 1
ENDMDL
MODEL       42
REMARK 921   NORMALIZED FREE ENERGY PREDICTED BY IDOCK:   -3.54 KCAL/MOL
REMARK 922        TOTAL FREE ENERGY PREDICTED BY IDOCK:   -4.00 KCAL/MOL
REMARK 923 INTER-LIGAND FREE ENERGY PREDICTED BY IDOCK:   -3.86 KCAL/MOL
REMARK 924 INTRA-LIGAND FREE ENERGY PREDICTED BY IDOCK:   -0.13 KCAL/MOL
REMARK 927      BINDING AFFINITY PREDICTED BY RF-SCORE:    0.00 PKD
ROOT
ATOM      1  N   ASP A   1     -11.963  11.861  66.903  1.00  0.00    -0.591 NA 
ATOM      2  CA  ASP A   1     -11.404  13.099  66.283  1.00  0.00    -0.315 C  
ATOM      3  H1  ASP A   1     -11.225  11.239  67.234  1.00  0.00     0.000 HD 
ATOM      4  H2  ASP A   1     -12.597  11.379  66.266  1.00  0.00     0.000 HD 
ATOM      5  C   ASP A   1     -10.570  13.800  67.364  1.00  0.00    -0.260 C  
ATOM      6  O   ASP A   1     -10.040  12.910  68.239  1.00  0.00    -0.233 OA 
ATOM      7  OXT ASP A   1     -10.427  15.012  67.460  1.00  0.00    -0.250 OA 
ENDROOT
BRANCH   2   8
ATOM      8  CB  ASP A   1     -12.505  14.027  65.788  1.00  0.00    -0.523 C  
ATOM      9  CG  ASP A   1     -12.204  14.540  64.404  1.00  0.00    -0.458 C  
ATOM     10  OD2 ASP A   1     -12.504  13.931  63.389  1.00  0.00    -0.833 OA 
ATOM     11  OD1 ASP A   1     -11.579  15.736  64.372  1.00  0.00    -0.401 OA 
ENDBRANCH   2   8
TORSDOF 1
ENDMDL
MODEL       43
REMARK 921   NORMALIZED FREE ENERGY PREDICTED BY IDOCK:   -3.53 KCAL/MOL
REMARK 922        TOTAL FREE ENERGY PREDICTED BY IDOCK:   -3.98 KCAL/MOL
REMARK 923 INTER-LIGAND FREE ENERGY PREDICTED BY IDOCK:   -3.52 KCAL/MOL
REMARK 924 INTRA-LIGAND FREE ENERGY PREDICTED BY IDOCK:   -0.47 KCAL/MOL
REMARK 927      BINDING AFFINITY PREDICTED BY RF-SCORE:    0.00 PKD
ROOT
ATOM      1  N   ASP A   1     -12.733   9.055  70.948  1.00  0.00    -0.503 NA 
ATOM      2  CA  ASP A   1     -11.274   8.913  70.664  1.00  0.00    -0.266 C  
ATOM      3  H1  ASP A   1     -13.120   8.209  71.364  1.00  0.00     0.000 HD 
ATOM      4  H2  ASP A   1     -13.250   9.329  70.112  1.00  0.00     0.000 HD 
ATOM      5  C   ASP A   1     -10.587   8.623  72.005  1.00  0.00    -0.351 C  
ATOM      6  O   ASP A   1     -11.410   7.960  72.853  1.00  0.00    -0.406 OA 
ATOM      7  OXT ASP A   1      -9.452   8.977  72.299  1.00  0.00    -0.315 OA 
ENDROOT
BRANCH   2   8
ATOM      8  CB  ASP A   1     -10.696  10.177  70.042  1.00  0.00    -0.356 C  
ATOM      9  CG  ASP A   1     -11.774  11.193  69.771  1.00  0.00    -0.345 C  
ATOM     10  OD2 ASP A   1     -12.160  11.994  70.608  1.00  0.00    -0.373 OA 
ATOM     11  OD1 ASP A   1     -12.280  11.155  68.519  1.00  0.00    -0.600 OA 
ENDBRANCH   2   8
TORSDOF 1
ENDMDL
MODEL       44
REMARK 921   NORMALIZED FREE ENERGY PREDICTED BY IDOCK:   -3.51 KCAL/MOL
REMARK 922        TOTAL FREE ENERGY PREDICTED BY IDOCK:   -3.96 KCAL/MOL
REMARK 923 INTER-LIGAND FREE ENERGY PREDICTED BY IDOCK:   -3.47 KCAL/MOL
REMARK 924 INTRA-LIGAND FREE ENERGY PREDICTED BY IDOCK:   -0.49 KCAL/MOL
REMARK 927      BINDING AFFINITY PREDICTED BY RF-SCORE:    0.00 PKD
ROOT
ATOM      1  N   ASP A   1     -12.782  13.978  66.791  1.00  0.00    -0.408 NA 
ATOM      2  CA  ASP A   1     -11.620  13.078  67.057  1.00  0.00    -0.360 C  
ATOM      3  H1  ASP A   1     -12.932  14.636  67.556  1.00  0.00     0.000 HD 
ATOM      4  H2  ASP A   1     -13.627  13.445  66.589  1.00  0.00     0.000 HD 
ATOM      5  C   ASP A   1     -10.390  13.980  67.226  1.00  0.00    -0.264 C  
ATOM      6  O   ASP A   1     -10.726  15.192  67.730  1.00  0.00    -0.265 OA 
ATOM      7  OXT ASP A   1      -9.248  13.669  66.910  1.00  0.00    -0.237 OA 
ENDROOT
BRANCH   2   8
ATOM      8  CB  ASP A   1     -11.397  12.096  65.915  1.00  0.00    -0.407 C  
ATOM      9  CG  ASP A   1     -11.923  12.644  64.614  1.00  0.00    -0.402 C  
ATOM     10  OD2 ASP A   1     -11.267  13.370  63.883  1.00  0.00    -0.344 OA 
ATOM     11  OD1 ASP A   1     -13.183  12.262  64.313  1.00  0.00    -0.785 OA 
ENDBRANCH   2   8
TORSDOF 1
ENDMDL
MODEL       45
REMARK 921   NORMALIZED FREE ENERGY PREDICTED BY IDOCK:   -3.50 KCAL/MOL
REMARK 922        TOTAL FREE ENERGY PREDICTED BY IDOCK:   -3.95 KCAL/MOL
REMARK 923 INTER-LIGAND FREE ENERGY PREDICTED BY IDOCK:   -3.48 KCAL/MOL
REMARK 924 INTRA-LIGAND FREE ENERGY PREDICTED BY IDOCK:   -0.48 KCAL/MOL
REMARK 927      BINDING AFFINITY PREDICTED BY RF-SCORE:    0.00 PKD
ROOT
ATOM      1  N   ASP A   1      -8.402  18.206  68.383  1.00  0.00    -0.294 NA 
ATOM      2  CA  ASP A   1      -7.735  19.037  67.337  1.00  0.00    -0.234 C  
ATOM      3  H1  ASP A   1      -7.739  17.881  69.086  1.00  0.00     0.000 HD 
ATOM      4  H2  ASP A   1      -8.916  17.429  67.968  1.00  0.00     0.000 HD 
ATOM      5  C   ASP A   1      -7.101  20.234  68.059  1.00  0.00    -0.281 C  
ATOM      6  O   ASP A   1      -6.741  19.918  69.326  1.00  0.00    -0.333 OA 
ATOM      7  OXT ASP A   1      -6.970  21.352  67.575  1.00  0.00    -0.539 OA 
ENDROOT
BRANCH   2   8
ATOM      8  CB  ASP A   1      -8.725  19.523  66.287  1.00  0.00    -0.383 C  
ATOM      9  CG  ASP A   1     -10.104  18.975  66.545  1.00  0.00    -0.403 C  
ATOM     10  OD2 ASP A   1     -10.905  19.513  67.293  1.00  0.00    -0.493 OA 
ATOM     11  OD1 ASP A   1     -10.392  17.839  65.873  1.00  0.00    -0.517 OA 
ENDBRANCH   2   8
TORSDOF 1
ENDMDL
MODEL       46
REMARK 921   NORMALIZED FREE ENERGY PREDICTED BY IDOCK:   -3.50 KCAL/MOL
REMARK 922        TOTAL FREE ENERGY PREDICTED BY IDOCK:   -3.95 KCAL/MOL
REMARK 923 INTER-LIGAND FREE ENERGY PREDICTED BY IDOCK:   -3.67 KCAL/MOL
REMARK 924 INTRA-LIGAND FREE ENERGY PREDICTED BY IDOCK:   -0.28 KCAL/MOL
REMARK 927      BINDING AFFINITY PREDICTED BY RF-SCORE:    0.00 PKD
ROOT
ATOM      1  N   ASP A   1     -12.174  10.018  69.786  1.00  0.00    -0.478 NA 
ATOM      2  CA  ASP A   1     -11.920  11.239  70.606  1.00  0.00    -0.336 C  
ATOM      3  H1  ASP A   1     -12.128   9.169  70.349  1.00  0.00     0.000 HD 
ATOM      4  H2  ASP A   1     -11.543   9.969  68.986  1.00  0.00     0.000 HD 
ATOM      5  C   ASP A   1     -12.997  11.271  71.699  1.00  0.00    -0.432 C  
ATOM      6  O   ASP A   1     -13.399  10.022  72.040  1.00  0.00    -0.429 OA 
ATOM      7  OXT ASP A   1     -13.471  12.292  72.183  1.00  0.00    -0.509 OA 
ENDROOT
BRANCH   2   8
ATOM      8  CB  ASP A   1     -11.990  12.507  69.766  1.00  0.00    -0.359 C  
ATOM      9  CG  ASP A   1     -11.444  12.273  68.382  1.00  0.00    -0.307 C  
ATOM     10  OD2 ASP A   1     -12.121  11.838  67.463  1.00  0.00    -0.599 OA 
ATOM     11  OD1 ASP A   1     -10.139  12.590  68.231  1.00  0.00    -0.219 OA 
ENDBRANCH   2   8
TORSDOF 1
ENDMDL
MODEL       47
REMARK 921   NORMALIZED FREE ENERGY PREDICTED BY IDOCK:   -3.50 KCAL/MOL
REMARK 922        TOTAL FREE ENERGY PREDICTED BY IDOCK:   -3.95 KCAL/MOL
REMARK 923 INTER-LIGAND FREE ENERGY PREDICTED BY IDOCK:   -3.52 KCAL/MOL
REMARK 924 INTRA-LIGAND FREE ENERGY PREDICTED BY IDOCK:   -0.42 KCAL/MOL
REMARK 927      BINDING AFFINITY PREDICTED BY RF-SCORE:    0.00 PKD
ROOT
ATOM      1  N   ASP A   1     -12.069  13.179  70.659  1.00  0.00    -0.504 NA 
ATOM      2  CA  ASP A   1     -12.206  14.483  71.375  1.00  0.00    -0.358 C  
ATOM      3  H1  ASP A   1     -12.154  12.388  71.297  1.00  0.00     0.000 HD 
ATOM      4  H2  ASP A   1     -11.200  13.137  70.127  1.00  0.00     0.000 HD 
ATOM      5  C   ASP A   1     -13.592  14.484  72.034  1.00  0.00    -0.416 C  
ATOM      6  O   ASP A   1     -13.990  13.229  72.359  1.00  0.00    -0.608 OA 
ATOM      7  OXT ASP A   1     -14.279  15.481  72.213  1.00  0.00    -0.549 OA 
ENDROOT
BRANCH   2   8
ATOM      8  CB  ASP A   1     -12.078  15.664  70.423  1.00  0.00    -0.425 C  
ATOM      9  CG  ASP A   1     -11.568  15.225  69.076  1.00  0.00    -0.343 C  
ATOM     10  OD2 ASP A   1     -12.299  14.816  68.188  1.00  0.00    -0.106 OA 
ATOM     11  OD1 ASP A   1     -10.230  15.327  68.922  1.00  0.00    -0.216 OA 
ENDBRANCH   2   8
TORSDOF 1
ENDMDL
MODEL       48
REMARK 921   NORMALIZED FREE ENERGY PREDICTED BY IDOCK:   -3.49 KCAL/MOL
REMARK 922        TOTAL FREE ENERGY PREDICTED BY IDOCK:   -3.94 KCAL/MOL
REMARK 923 INTER-LIGAND FREE ENERGY PREDICTED BY IDOCK:   -3.45 KCAL/MOL
REMARK 924 INTRA-LIGAND FREE ENERGY PREDICTED BY IDOCK:   -0.49 KCAL/MOL
REMARK 927      BINDING AFFINITY PREDICTED BY RF-SCORE:    0.00 PKD
ROOT
ATOM      1  N   ASP A   1     -13.302   9.733  70.605  1.00  0.00    -0.607 NA 
ATOM      2  CA  ASP A   1     -12.185   9.652  71.592  1.00  0.00    -0.402 C  
ATOM      3  H1  ASP A   1     -13.327  10.638  70.136  1.00  0.00     0.000 HD 
ATOM      4  H2  ASP A   1     -14.199   9.515  71.039  1.00  0.00     0.000 HD 
ATOM      5  C   ASP A   1     -10.884   9.876  70.809  1.00  0.00    -0.317 C  
ATOM      6  O   ASP A   1     -11.082  10.676  69.732  1.00  0.00    -0.257 OA 
ATOM      7  OXT ASP A   1      -9.805   9.369  71.088  1.00  0.00    -0.282 OA 
ENDROOT
BRANCH   2   8
ATOM      8  CB  ASP A   1     -12.148   8.301  72.293  1.00  0.00    -0.439 C  
ATOM      9  CG  ASP A   1     -12.775   7.229  71.441  1.00  0.00    -0.389 C  
ATOM     10  OD2 ASP A   1     -12.156   6.607  70.591  1.00  0.00    -0.394 OA 
ATOM     11  OD1 ASP A   1     -14.082   7.001  71.695  1.00  0.00    -0.359 OA 
ENDBRANCH   2   8
TORSDOF 1
ENDMDL
MODEL       49
REMARK 921   NORMALIZED FREE ENERGY PREDICTED BY IDOCK:   -3.47 KCAL/MOL
REMARK 922        TOTAL FREE ENERGY PREDICTED BY IDOCK:   -3.92 KCAL/MOL
REMARK 923 INTER-LIGAND FREE ENERGY PREDICTED BY IDOCK:   -3.41 KCAL/MOL
REMARK 924 INTRA-LIGAND FREE ENERGY PREDICTED BY IDOCK:   -0.51 KCAL/MOL
REMARK 927      BINDING AFFINITY PREDICTED BY RF-SCORE:    0.00 PKD
ROOT
ATOM      1  N   ASP A   1     -12.580   7.269  70.737  1.00  0.00    -0.598 NA 
ATOM      2  CA  ASP A   1     -11.296   7.749  71.328  1.00  0.00    -0.264 C  
ATOM      3  H1  ASP A   1     -12.536   6.280  70.491  1.00  0.00     0.000 HD 
ATOM      4  H2  ASP A   1     -12.858   7.839  69.938  1.00  0.00     0.000 HD 
ATOM      5  C   ASP A   1     -11.041   6.904  72.583  1.00  0.00    -0.270 C  
ATOM      6  O   ASP A   1     -11.572   5.662  72.464  1.00  0.00    -0.300 OA 
ATOM      7  OXT ASP A   1     -10.468   7.302  73.589  1.00  0.00    -0.365 OA 
ENDROOT
BRANCH   2   8
ATOM      8  CB  ASP A   1     -11.361   9.225  71.695  1.00  0.00    -0.467 C  
ATOM      9  CG  ASP A   1     -12.759   9.764  71.538  1.00  0.00    -0.406 C  
ATOM     10  OD2 ASP A   1     -13.604   9.689  72.416  1.00  0.00    -0.433 OA 
ATOM     11  OD1 ASP A   1     -13.006  10.346  70.345  1.00  0.00    -0.303 OA 
ENDBRANCH   2   8
TORSDOF 1
ENDMDL
MODEL       50
REMARK 921   NORMALIZED FREE ENERGY PREDICTED BY IDOCK:   -3.45 KCAL/MOL
REMARK 922        TOTAL FREE ENERGY PREDICTED BY IDOCK:   -3.90 KCAL/MOL
REMARK 923 INTER-LIGAND FREE ENERGY PREDICTED BY IDOCK:   -3.40 KCAL/MOL
REMARK 924 INTRA-LIGAND FREE ENERGY PREDICTED BY IDOCK:   -0.50 KCAL/MOL
REMARK 927      BINDING AFFINITY PREDICTED BY RF-SCORE:    0.00 PKD
ROOT
ATOM      1  N   ASP A   1     -11.486   7.217  73.022  1.00  0.00    -0.559 NA 
ATOM      2  CA  ASP A   1     -12.214   6.473  71.951  1.00  0.00    -0.324 C  
ATOM      3  H1  ASP A   1     -10.745   6.652  73.437  1.00  0.00     0.000 HD 
ATOM      4  H2  ASP A   1     -12.128   7.568  73.732  1.00  0.00     0.000 HD 
ATOM      5  C   ASP A   1     -11.175   6.100  70.885  1.00  0.00    -0.299 C  
ATOM      6  O   ASP A   1      -9.944   5.928  71.427  1.00  0.00    -0.178 OA 
ATOM      7  OXT ASP A   1     -11.406   6.006  69.686  1.00  0.00    -0.411 OA 
ENDROOT
BRANCH   2   8
ATOM      8  CB  ASP A   1     -13.320   7.316  71.332  1.00  0.00    -0.399 C  
ATOM      9  CG  ASP A   1     -13.343   8.702  71.921  1.00  0.00    -0.382 C  
ATOM     10  OD2 ASP A   1     -12.652   9.617  71.499  1.00  0.00    -0.337 OA 
ATOM     11  OD1 ASP A   1     -14.198   8.858  72.954  1.00  0.00    -0.514 OA 
ENDBRANCH   2   8
TORSDOF 1
ENDMDL
MODEL       51
REMARK 921   NORMALIZED FREE ENERGY PREDICTED BY IDOCK:   -3.44 KCAL/MOL
REMARK 922        TOTAL FREE ENERGY PREDICTED BY IDOCK:   -3.89 KCAL/MOL
REMARK 923 INTER-LIGAND FREE ENERGY PREDICTED BY IDOCK:   -3.40 KCAL/MOL
REMARK 924 INTRA-LIGAND FREE ENERGY PREDICTED BY IDOCK:   -0.48 KCAL/MOL
REMARK 927      BINDING AFFINITY PREDICTED BY RF-SCORE:    0.00 PKD
ROOT
ATOM      1  N   ASP A   1      -7.812  18.279  65.708  1.00  0.00    -0.520 NA 
ATOM      2  CA  ASP A   1      -8.326  17.751  67.008  1.00  0.00    -0.226 C  
ATOM      3  H1  ASP A   1      -7.793  17.556  64.989  1.00  0.00     0.000 HD 
ATOM      4  H2  ASP A   1      -6.898  18.717  65.820  1.00  0.00     0.000 HD 
ATOM      5  C   ASP A   1      -9.745  17.230  66.745  1.00  0.00    -0.281 C  
ATOM      6  O   ASP A   1      -9.886  16.787  65.472  1.00  0.00    -0.564 OA 
ATOM      7  OXT ASP A   1     -10.657  17.245  67.563  1.00  0.00    -0.354 OA 
ENDROOT
BRANCH   2   8
ATOM      8  CB  ASP A   1      -8.354  18.830  68.082  1.00  0.00    -0.334 C  
ATOM      9  CG  ASP A   1      -8.496  20.201  67.473  1.00  0.00    -0.335 C  
ATOM     10  OD2 ASP A   1      -9.576  20.698  67.195  1.00  0.00    -0.438 OA 
ATOM     11  OD1 ASP A   1      -7.328  20.846  67.264  1.00  0.00    -0.351 OA 
ENDBRANCH   2   8
TORSDOF 1
ENDMDL
MODEL       52
REMARK 921   NORMALIZED FREE ENERGY PREDICTED BY IDOCK:   -3.44 KCAL/MOL
REMARK 922        TOTAL FREE ENERGY PREDICTED BY IDOCK:   -3.89 KCAL/MOL
REMARK 923 INTER-LIGAND FREE ENERGY PREDICTED BY IDOCK:   -3.37 KCAL/MOL
REMARK 924 INTRA-LIGAND FREE ENERGY PREDICTED BY IDOCK:   -0.52 KCAL/MOL
REMARK 927      BINDING AFFINITY PREDICTED BY RF-SCORE:    0.00 PKD
ROOT
ATOM      1  N   ASP A   1     -10.387  18.375  69.065  1.00  0.00    -0.453 NA 
ATOM      2  CA  ASP A   1      -9.636  17.848  67.887  1.00  0.00    -0.286 C  
ATOM      3  H1  ASP A   1     -10.413  19.395  69.070  1.00  0.00     0.000 HD 
ATOM      4  H2  ASP A   1     -10.011  18.009  69.940  1.00  0.00     0.000 HD 
ATOM      5  C   ASP A   1     -10.357  18.364  66.634  1.00  0.00    -0.396 C  
ATOM      6  O   ASP A   1     -10.959  19.557  66.861  1.00  0.00    -0.462 OA 
ATOM      7  OXT ASP A   1     -10.423  17.763  65.569  1.00  0.00    -0.646 OA 
ENDROOT
BRANCH   2   8
ATOM      8  CB  ASP A   1      -9.596  16.326  67.879  1.00  0.00    -0.227 C  
ATOM      9  CG  ASP A   1     -10.587  15.751  68.856  1.00  0.00    -0.233 C  
ATOM     10  OD2 ASP A   1     -11.758  15.545  68.573  1.00  0.00    -0.363 OA 
ATOM     11  OD1 ASP A   1     -10.078  15.470  70.075  1.00  0.00    -0.301 OA 
ENDBRANCH   2   8
TORSDOF 1
ENDMDL
MODEL       53
REMARK 921   NORMALIZED FREE ENERGY PREDICTED BY IDOCK:   -3.43 KCAL/MOL
REMARK 922        TOTAL FREE ENERGY PREDICTED BY IDOCK:   -3.88 KCAL/MOL
REMARK 923 INTER-LIGAND FREE ENERGY PREDICTED BY IDOCK:   -3.36 KCAL/MOL
REMARK 924 INTRA-LIGAND FREE ENERGY PREDICTED BY IDOCK:   -0.52 KCAL/MOL
REMARK 927      BINDING AFFINITY PREDICTED BY RF-SCORE:    0.00 PKD
ROOT
ATOM      1  N   ASP A   1      -9.327  18.170  65.845  1.00  0.00    -0.492 NA 
ATOM      2  CA  ASP A   1      -9.304  16.738  66.267  1.00  0.00    -0.279 C  
ATOM      3  H1  ASP A   1      -9.364  18.264  64.831  1.00  0.00     0.000 HD 
ATOM      4  H2  ASP A   1      -8.540  18.686  66.238  1.00  0.00     0.000 HD 
ATOM      5  C   ASP A   1     -10.588  16.095  65.724  1.00  0.00    -0.334 C  
ATOM      6  O   ASP A   1     -10.999  16.693  64.579  1.00  0.00    -0.885 OA 
ATOM      7  OXT ASP A   1     -11.197  15.183  66.269  1.00  0.00    -0.337 OA 
ENDROOT
BRANCH   2   8
ATOM      8  CB  ASP A   1      -9.249  16.597  67.782  1.00  0.00    -0.214 C  
ATOM      9  CG  ASP A   1      -9.515  17.914  68.461  1.00  0.00    -0.313 C  
ATOM     10  OD2 ASP A   1     -10.640  18.317  68.717  1.00  0.00    -0.184 OA 
ATOM     11  OD1 ASP A   1      -8.407  18.619  68.775  1.00  0.00    -0.322 OA 
ENDBRANCH   2   8
TORSDOF 1
ENDMDL
MODEL       54
REMARK 921   NORMALIZED FREE ENERGY PREDICTED BY IDOCK:   -3.43 KCAL/MOL
REMARK 922        TOTAL FREE ENERGY PREDICTED BY IDOCK:   -3.87 KCAL/MOL
REMARK 923 INTER-LIGAND FREE ENERGY PREDICTED BY IDOCK:   -3.74 KCAL/MOL
REMARK 924 INTRA-LIGAND FREE ENERGY PREDICTED BY IDOCK:   -0.13 KCAL/MOL
REMARK 927      BINDING AFFINITY PREDICTED BY RF-SCORE:    0.00 PKD
ROOT
ATOM      1  N   ASP A   1     -12.215  14.293  67.430  1.00  0.00    -0.604 NA 
ATOM      2  CA  ASP A   1     -11.711  13.262  66.474  1.00  0.00    -0.377 C  
ATOM      3  H1  ASP A   1     -12.261  15.216  66.998  1.00  0.00     0.000 HD 
ATOM      4  H2  ASP A   1     -11.660  14.309  68.285  1.00  0.00     0.000 HD 
ATOM      5  C   ASP A   1     -12.685  13.241  65.289  1.00  0.00    -0.412 C  
ATOM      6  O   ASP A   1     -13.253  14.456  65.089  1.00  0.00    -0.602 OA 
ATOM      7  OXT ASP A   1     -12.955  12.249  64.623  1.00  0.00    -0.741 OA 
ENDROOT
BRANCH   2   8
ATOM      8  CB  ASP A   1     -11.641  11.884  67.118  1.00  0.00    -0.363 C  
ATOM      9  CG  ASP A   1     -10.320  11.218  66.837  1.00  0.00    -0.234 C  
ATOM     10  OD2 ASP A   1      -9.325  11.394  67.524  1.00  0.00    -0.161 OA 
ATOM     11  OD1 ASP A   1     -10.321  10.398  65.763  1.00  0.00    -0.248 OA 
ENDBRANCH   2   8
TORSDOF 1
ENDMDL
MODEL       55
REMARK 921   NORMALIZED FREE ENERGY PREDICTED BY IDOCK:   -3.42 KCAL/MOL
REMARK 922        TOTAL FREE ENERGY PREDICTED BY IDOCK:   -3.86 KCAL/MOL
REMARK 923 INTER-LIGAND FREE ENERGY PREDICTED BY IDOCK:   -3.63 KCAL/MOL
REMARK 924 INTRA-LIGAND FREE ENERGY PREDICTED BY IDOCK:   -0.23 KCAL/MOL
REMARK 927      BINDING AFFINITY PREDICTED BY RF-SCORE:    0.00 PKD
ROOT
ATOM      1  N   ASP A   1     -11.158  17.081  64.393  1.00  0.00    -1.075 NA 
ATOM      2  CA  ASP A   1     -10.728  16.971  65.818  1.00  0.00    -0.142 C  
ATOM      3  H1  ASP A   1     -11.918  17.752  64.280  1.00  0.00     0.000 HD 
ATOM      4  H2  ASP A   1     -11.406  16.170  64.007  1.00  0.00     0.000 HD 
ATOM      5  C   ASP A   1     -10.267  18.368  66.252  1.00  0.00    -0.406 C  
ATOM      6  O   ASP A   1     -10.931  19.342  65.583  1.00  0.00    -0.373 OA 
ATOM      7  OXT ASP A   1      -9.382  18.589  67.070  1.00  0.00    -0.276 OA 
ENDROOT
BRANCH   2   8
ATOM      8  CB  ASP A   1      -9.593  15.969  65.988  1.00  0.00    -0.385 C  
ATOM      9  CG  ASP A   1     -10.075  14.559  65.770  1.00  0.00    -0.342 C  
ATOM     10  OD2 ASP A   1     -10.134  14.038  64.666  1.00  0.00    -0.358 OA 
ATOM     11  OD1 ASP A   1     -10.433  13.907  66.897  1.00  0.00    -0.272 OA 
ENDBRANCH   2   8
TORSDOF 1
ENDMDL
MODEL       56
REMARK 921   NORMALIZED FREE ENERGY PREDICTED BY IDOCK:   -3.41 KCAL/MOL
REMARK 922        TOTAL FREE ENERGY PREDICTED BY IDOCK:   -3.86 KCAL/MOL
REMARK 923 INTER-LIGAND FREE ENERGY PREDICTED BY IDOCK:   -3.42 KCAL/MOL
REMARK 924 INTRA-LIGAND FREE ENERGY PREDICTED BY IDOCK:   -0.44 KCAL/MOL
REMARK 927      BINDING AFFINITY PREDICTED BY RF-SCORE:    0.00 PKD
ROOT
ATOM      1  N   ASP A   1     -11.251   8.866  69.865  1.00  0.00    -0.425 NA 
ATOM      2  CA  ASP A   1     -11.638   9.711  71.034  1.00  0.00    -0.359 C  
ATOM      3  H1  ASP A   1     -11.050   7.906  70.144  1.00  0.00     0.000 HD 
ATOM      4  H2  ASP A   1     -10.471   9.276  69.352  1.00  0.00     0.000 HD 
ATOM      5  C   ASP A   1     -12.887   9.068  71.653  1.00  0.00    -0.359 C  
ATOM      6  O   ASP A   1     -12.901   7.725  71.465  1.00  0.00    -0.326 OA 
ATOM      7  OXT ASP A   1     -13.785   9.683  72.213  1.00  0.00    -0.417 OA 
ENDROOT
BRANCH   2   8
ATOM      8  CB  ASP A   1     -11.940  11.144  70.618  1.00  0.00    -0.459 C  
ATOM      9  CG  ASP A   1     -11.546  11.389  69.185  1.00  0.00    -0.314 C  
ATOM     10  OD2 ASP A   1     -12.282  11.147  68.241  1.00  0.00    -0.613 OA 
ATOM     11  OD1 ASP A   1     -10.309  11.907  69.023  1.00  0.00    -0.150 OA 
ENDBRANCH   2   8
TORSDOF 1
ENDMDL
MODEL       57
REMARK 921   NORMALIZED FREE ENERGY PREDICTED BY IDOCK:   -3.40 KCAL/MOL
REMARK 922        TOTAL FREE ENERGY PREDICTED BY IDOCK:   -3.85 KCAL/MOL
REMARK 923 INTER-LIGAND FREE ENERGY PREDICTED BY IDOCK:   -3.33 KCAL/MOL
REMARK 924 INTRA-LIGAND FREE ENERGY PREDICTED BY IDOCK:   -0.52 KCAL/MOL
REMARK 927      BINDING AFFINITY PREDICTED BY RF-SCORE:    0.00 PKD
ROOT
ATOM      1  N   ASP A   1     -11.154   9.459  71.263  1.00  0.00    -0.348 NA 
ATOM      2  CA  ASP A   1     -12.428   8.682  71.216  1.00  0.00    -0.252 C  
ATOM      3  H1  ASP A   1     -11.272  10.400  70.887  1.00  0.00     0.000 HD 
ATOM      4  H2  ASP A   1     -10.398   8.963  70.792  1.00  0.00     0.000 HD 
ATOM      5  C   ASP A   1     -13.453   9.460  72.052  1.00  0.00    -0.449 C  
ATOM      6  O   ASP A   1     -13.208  10.792  72.028  1.00  0.00    -0.484 OA 
ATOM      7  OXT ASP A   1     -14.360   8.948  72.698  1.00  0.00    -0.613 OA 
ENDROOT
BRANCH   2   8
ATOM      8  CB  ASP A   1     -12.252   7.278  71.778  1.00  0.00    -0.368 C  
ATOM      9  CG  ASP A   1     -10.919   7.128  72.462  1.00  0.00    -0.273 C  
ATOM     10  OD2 ASP A   1     -10.732   7.428  73.631  1.00  0.00    -0.371 OA 
ATOM     11  OD1 ASP A   1      -9.939   6.626  71.679  1.00  0.00    -0.175 OA 
ENDBRANCH   2   8
TORSDOF 1
ENDMDL
MODEL       58
REMARK 921   NORMALIZED FREE ENERGY PREDICTED BY IDOCK:   -3.40 KCAL/MOL
REMARK 922        TOTAL FREE ENERGY PREDICTED BY IDOCK:   -3.85 KCAL/MOL
REMARK 923 INTER-LIGAND FREE ENERGY PREDICTED BY IDOCK:   -3.44 KCAL/MOL
REMARK 924 INTRA-LIGAND FREE ENERGY PREDICTED BY IDOCK:   -0.41 KCAL/MOL
REMARK 927      BINDING AFFINITY PREDICTED BY RF-SCORE:    0.00 PKD
ROOT
ATOM      1  N   ASP A   1     -10.733  12.023  66.006  1.00  0.00    -0.269 NA 
ATOM      2  CA  ASP A   1     -11.148  11.596  64.636  1.00  0.00    -0.278 C  
ATOM      3  H1  ASP A   1     -10.398  11.236  66.561  1.00  0.00     0.000 HD 
ATOM      4  H2  ASP A   1     -11.483  12.523  66.483  1.00  0.00     0.000 HD 
ATOM      5  C   ASP A   1      -9.913  10.970  63.974  1.00  0.00    -0.335 C  
ATOM      6  O   ASP A   1      -9.093  10.397  64.889  1.00  0.00    -0.179 OA 
ATOM      7  OXT ASP A   1      -9.667  11.011  62.775  1.00  0.00    -0.302 OA 
ENDROOT
BRANCH   2   8
ATOM      8  CB  ASP A   1     -11.648  12.770  63.807  1.00  0.00    -0.548 C  
ATOM      9  CG  ASP A   1     -11.901  13.978  64.671  1.00  0.00    -0.417 C  
ATOM     10  OD2 ASP A   1     -11.029  14.783  64.962  1.00  0.00    -0.365 OA 
ATOM     11  OD1 ASP A   1     -13.176  14.108  65.095  1.00  0.00    -0.743 OA 
ENDBRANCH   2   8
TORSDOF 1
ENDMDL
MODEL       59
REMARK 921   NORMALIZED FREE ENERGY PREDICTED BY IDOCK:   -3.39 KCAL/MOL
REMARK 922        TOTAL FREE ENERGY PREDICTED BY IDOCK:   -3.83 KCAL/MOL
REMARK 923 INTER-LIGAND FREE ENERGY PREDICTED BY IDOCK:   -3.32 KCAL/MOL
REMARK 924 INTRA-LIGAND FREE ENERGY PREDICTED BY IDOCK:   -0.51 KCAL/MOL
REMARK 927      BINDING AFFINITY PREDICTED BY RF-SCORE:    0.00 PKD
ROOT
ATOM      1  N   ASP A   1     -12.236  10.869  68.331  1.00  0.00    -0.810 NA 
ATOM      2  CA  ASP A   1     -10.884  10.550  67.782  1.00  0.00    -0.294 C  
ATOM      3  H1  ASP A   1     -12.512  10.210  69.058  1.00  0.00     0.000 HD 
ATOM      4  H2  ASP A   1     -12.935  10.921  67.590  1.00  0.00     0.000 HD 
ATOM      5  C   ASP A   1      -9.900  10.619  68.958  1.00  0.00    -0.205 C  
ATOM      6  O   ASP A   1     -10.499  10.290  70.128  1.00  0.00    -0.271 OA 
ATOM      7  OXT ASP A   1      -8.728  10.964  68.869  1.00  0.00    -0.162 OA 
ENDROOT
BRANCH   2   8
ATOM      8  CB  ASP A   1     -10.471  11.535  66.696  1.00  0.00    -0.277 C  
ATOM      9  CG  ASP A   1     -11.474  12.650  66.562  1.00  0.00    -0.353 C  
ATOM     10  OD2 ASP A   1     -11.441  13.662  67.245  1.00  0.00    -0.311 OA 
ATOM     11  OD1 ASP A   1     -12.417  12.447  65.616  1.00  0.00    -0.640 OA 
ENDBRANCH   2   8
TORSDOF 1
ENDMDL
MODEL       60
REMARK 921   NORMALIZED FREE ENERGY PREDICTED BY IDOCK:   -3.38 KCAL/MOL
REMARK 922        TOTAL FREE ENERGY PREDICTED BY IDOCK:   -3.82 KCAL/MOL
REMARK 923 INTER-LIGAND FREE ENERGY PREDICTED BY IDOCK:   -3.33 KCAL/MOL
REMARK 924 INTRA-LIGAND FREE ENERGY PREDICTED BY IDOCK:   -0.50 KCAL/MOL
REMARK 927      BINDING AFFINITY PREDICTED BY RF-SCORE:    0.00 PKD
ROOT
ATOM      1  N   ASP A   1      -9.924  13.762  66.765  1.00  0.00    -0.263 NA 
ATOM      2  CA  ASP A   1     -11.381  13.436  66.802  1.00  0.00    -0.325 C  
ATOM      3  H1  ASP A   1      -9.423  13.172  66.101  1.00  0.00     0.000 HD 
ATOM      4  H2  ASP A   1      -9.508  13.712  67.695  1.00  0.00     0.000 HD 
ATOM      5  C   ASP A   1     -11.922  13.661  65.384  1.00  0.00    -0.378 C  
ATOM      6  O   ASP A   1     -10.970  13.435  64.446  1.00  0.00    -0.370 OA 
ATOM      7  OXT ASP A   1     -13.058  14.037  65.121  1.00  0.00    -0.776 OA 
ENDROOT
BRANCH   2   8
ATOM      8  CB  ASP A   1     -12.129  14.316  67.794  1.00  0.00    -0.316 C  
ATOM      9  CG  ASP A   1     -11.209  15.325  68.429  1.00  0.00    -0.309 C  
ATOM     10  OD2 ASP A   1     -10.960  16.410  67.925  1.00  0.00    -0.339 OA 
ATOM     11  OD1 ASP A   1     -10.682  14.939  69.611  1.00  0.00    -0.250 OA 
ENDBRANCH   2   8
TORSDOF 1
ENDMDL
MODEL       61
REMARK 921   NORMALIZED FREE ENERGY PREDICTED BY IDOCK:   -3.37 KCAL/MOL
REMARK 922        TOTAL FREE ENERGY PREDICTED BY IDOCK:   -3.82 KCAL/MOL
REMARK 923 INTER-LIGAND FREE ENERGY PREDICTED BY IDOCK:   -3.48 KCAL/MOL
REMARK 924 INTRA-LIGAND FREE ENERGY PREDICTED BY IDOCK:   -0.34 KCAL/MOL
REMARK 927      BINDING AFFINITY PREDICTED BY RF-SCORE:    0.00 PKD
ROOT
ATOM      1  N   ASP A   1     -11.188  11.164  70.190  1.00  0.00    -0.480 NA 
ATOM      2  CA  ASP A   1     -12.580  11.071  70.722  1.00  0.00    -0.369 C  
ATOM      3  H1  ASP A   1     -11.099  11.905  69.495  1.00  0.00     0.000 HD 
ATOM      4  H2  ASP A   1     -10.869  10.268  69.822  1.00  0.00     0.000 HD 
ATOM      5  C   ASP A   1     -12.905  12.431  71.354  1.00  0.00    -0.260 C  
ATOM      6  O   ASP A   1     -12.240  13.439  70.739  1.00  0.00    -0.358 OA 
ATOM      7  OXT ASP A   1     -13.641  12.594  72.320  1.00  0.00    -0.547 OA 
ENDROOT
BRANCH   2   8
ATOM      8  CB  ASP A   1     -12.713   9.966  71.761  1.00  0.00    -0.523 C  
ATOM      9  CG  ASP A   1     -11.609   8.952  71.621  1.00  0.00    -0.338 C  
ATOM     10  OD2 ASP A   1     -10.517   9.078  72.155  1.00  0.00    -0.321 OA 
ATOM     11  OD1 ASP A   1     -11.922   7.880  70.862  1.00  0.00    -0.279 OA 
ENDBRANCH   2   8
TORSDOF 1
ENDMDL
MODEL       62
REMARK 921   NORMALIZED FREE ENERGY PREDICTED BY IDOCK:   -3.37 KCAL/MOL
REMARK 922        TOTAL FREE ENERGY PREDICTED BY IDOCK:   -3.81 KCAL/MOL
REMARK 923 INTER-LIGAND FREE ENERGY PREDICTED BY IDOCK:   -3.46 KCAL/MOL
REMARK 924 INTRA-LIGAND FREE ENERGY PREDICTED BY IDOCK:   -0.35 KCAL/MOL
REMARK 927      BINDING AFFINITY PREDICTED BY RF-SCORE:    0.00 PKD
ROOT
ATOM      1  N   ASP A   1     -13.035   6.819  72.057  1.00  0.00    -0.546 NA 
ATOM      2  CA  ASP A   1     -12.236   8.076  72.151  1.00  0.00    -0.331 C  
ATOM      3  H1  ASP A   1     -13.666   6.713  72.852  1.00  0.00     0.000 HD 
ATOM      4  H2  ASP A   1     -12.434   6.002  71.948  1.00  0.00     0.000 HD 
ATOM      5  C   ASP A   1     -13.237   9.238  72.189  1.00  0.00    -0.461 C  
ATOM      6  O   ASP A   1     -14.408   8.868  72.763  1.00  0.00    -0.600 OA 
ATOM      7  OXT ASP A   1     -13.032  10.353  71.725  1.00  0.00    -0.420 OA 
ENDROOT
BRANCH   2   8
ATOM      8  CB  ASP A   1     -11.294   8.235  70.965  1.00  0.00    -0.299 C  
ATOM      9  CG  ASP A   1     -11.045   6.913  70.287  1.00  0.00    -0.297 C  
ATOM     10  OD2 ASP A   1     -11.777   6.461  69.420  1.00  0.00    -0.327 OA 
ATOM     11  OD1 ASP A   1      -9.938   6.265  70.710  1.00  0.00    -0.183 OA 
ENDBRANCH   2   8
TORSDOF 1
ENDMDL
MODEL       63
REMARK 921   NORMALIZED FREE ENERGY PREDICTED BY IDOCK:   -3.33 KCAL/MOL
REMARK 922        TOTAL FREE ENERGY PREDICTED BY IDOCK:   -3.78 KCAL/MOL
REMARK 923 INTER-LIGAND FREE ENERGY PREDICTED BY IDOCK:   -3.50 KCAL/MOL
REMARK 924 INTRA-LIGAND FREE ENERGY PREDICTED BY IDOCK:   -0.28 KCAL/MOL
REMARK 927      BINDING AFFINITY PREDICTED BY RF-SCORE:    0.00 PKD
ROOT
ATOM      1  N   ASP A   1     -10.647  18.791  65.638  1.00  0.00    -0.578 NA 
ATOM      2  CA  ASP A   1     -10.489  18.370  67.062  1.00  0.00    -0.399 C  
ATOM      3  H1  ASP A   1     -11.134  19.683  65.560  1.00  0.00     0.000 HD 
ATOM      4  H2  ASP A   1     -11.106  18.067  65.085  1.00  0.00     0.000 HD 
ATOM      5  C   ASP A   1      -9.685  19.473  67.764  1.00  0.00    -0.354 C  
ATOM      6  O   ASP A   1      -9.905  20.686  67.200  1.00  0.00    -0.469 OA 
ATOM      7  OXT ASP A   1      -8.908  19.288  68.692  1.00  0.00    -0.361 OA 
ENDROOT
BRANCH   2   8
ATOM      8  CB  ASP A   1      -9.762  17.038  67.178  1.00  0.00    -0.259 C  
ATOM      9  CG  ASP A   1     -10.376  16.001  66.274  1.00  0.00    -0.321 C  
ATOM     10  OD2 ASP A   1     -10.061  15.870  65.102  1.00  0.00    -0.451 OA 
ATOM     11  OD1 ASP A   1     -11.303  15.218  66.867  1.00  0.00    -0.307 OA 
ENDBRANCH   2   8
TORSDOF 1
ENDMDL
MODEL       64
REMARK 921   NORMALIZED FREE ENERGY PREDICTED BY IDOCK:   -3.33 KCAL/MOL
REMARK 922        TOTAL FREE ENERGY PREDICTED BY IDOCK:   -3.77 KCAL/MOL
REMARK 923 INTER-LIGAND FREE ENERGY PREDICTED BY IDOCK:   -3.36 KCAL/MOL
REMARK 924 INTRA-LIGAND FREE ENERGY PREDICTED BY IDOCK:   -0.41 KCAL/MOL
REMARK 927      BINDING AFFINITY PREDICTED BY RF-SCORE:    0.00 PKD
ROOT
ATOM      1  N   ASP A   1     -10.697  16.389  64.612  1.00  0.00    -0.808 NA 
ATOM      2  CA  ASP A   1     -10.356  15.867  65.969  1.00  0.00    -0.348 C  
ATOM      3  H1  ASP A   1     -10.693  17.408  64.589  1.00  0.00     0.000 HD 
ATOM      4  H2  ASP A   1     -11.586  16.013  64.281  1.00  0.00     0.000 HD 
ATOM      5  C   ASP A   1      -8.957  16.397  66.310  1.00  0.00    -0.333 C  
ATOM      6  O   ASP A   1      -8.719  17.592  65.716  1.00  0.00    -0.514 OA 
ATOM      7  OXT ASP A   1      -8.134  15.805  66.997  1.00  0.00    -0.192 OA 
ENDROOT
BRANCH   2   8
ATOM      8  CB  ASP A   1     -10.363  14.345  66.005  1.00  0.00    -0.319 C  
ATOM      9  CG  ASP A   1     -11.017  13.774  64.774  1.00  0.00    -0.392 C  
ATOM     10  OD2 ASP A   1     -10.413  13.571  63.732  1.00  0.00    -0.069 OA 
ATOM     11  OD1 ASP A   1     -12.331  13.495  64.915  1.00  0.00    -0.391 OA 
ENDBRANCH   2   8
TORSDOF 1
ENDMDL
MODEL       65
REMARK 921   NORMALIZED FREE ENERGY PREDICTED BY IDOCK:   -3.33 KCAL/MOL
REMARK 922        TOTAL FREE ENERGY PREDICTED BY IDOCK:   -3.77 KCAL/MOL
REMARK 923 INTER-LIGAND FREE ENERGY PREDICTED BY IDOCK:   -3.49 KCAL/MOL
REMARK 924 INTRA-LIGAND FREE ENERGY PREDICTED BY IDOCK:   -0.28 KCAL/MOL
REMARK 927      BINDING AFFINITY PREDICTED BY RF-SCORE:    0.00 PKD
ROOT
ATOM      1  N   ASP A   1     -11.889  12.552  70.376  1.00  0.00    -0.550 NA 
ATOM      2  CA  ASP A   1     -11.838  14.008  70.048  1.00  0.00    -0.320 C  
ATOM      3  H1  ASP A   1     -11.673  12.379  71.357  1.00  0.00     0.000 HD 
ATOM      4  H2  ASP A   1     -11.282  12.011  69.760  1.00  0.00     0.000 HD 
ATOM      5  C   ASP A   1     -12.871  14.701  70.946  1.00  0.00    -0.365 C  
ATOM      6  O   ASP A   1     -13.030  14.046  72.122  1.00  0.00    -0.352 OA 
ATOM      7  OXT ASP A   1     -13.510  15.699  70.634  1.00  0.00    -0.476 OA 
ENDROOT
BRANCH   2   8
ATOM      8  CB  ASP A   1     -12.160  14.267  68.583  1.00  0.00    -0.295 C  
ATOM      9  CG  ASP A   1     -11.484  13.259  67.690  1.00  0.00    -0.321 C  
ATOM     10  OD2 ASP A   1     -11.974  12.172  67.423  1.00  0.00    -0.563 OA 
ATOM     11  OD1 ASP A   1     -10.290  13.655  67.199  1.00  0.00    -0.248 OA 
ENDBRANCH   2   8
TORSDOF 1
ENDMDL
MODEL       66
REMARK 921   NORMALIZED FREE ENERGY PREDICTED BY IDOCK:   -3.31 KCAL/MOL
REMARK 922        TOTAL FREE ENERGY PREDICTED BY IDOCK:   -3.75 KCAL/MOL
REMARK 923 INTER-LIGAND FREE ENERGY PREDICTED BY IDOCK:   -3.23 KCAL/MOL
REMARK 924 INTRA-LIGAND FREE ENERGY PREDICTED BY IDOCK:   -0.52 KCAL/MOL
REMARK 927      BINDING AFFINITY PREDICTED BY RF-SCORE:    0.00 PKD
ROOT
ATOM      1  N   ASP A   1      -8.372  20.246  67.487  1.00  0.00    -0.327 NA 
ATOM      2  CA  ASP A   1      -7.689  19.040  66.933  1.00  0.00    -0.242 C  
ATOM      3  H1  ASP A   1      -7.703  20.963  67.768  1.00  0.00     0.000 HD 
ATOM      4  H2  ASP A   1      -8.997  20.000  68.255  1.00  0.00     0.000 HD 
ATOM      5  C   ASP A   1      -6.877  19.509  65.718  1.00  0.00    -0.278 C  
ATOM      6  O   ASP A   1      -6.468  20.794  65.857  1.00  0.00    -0.237 OA 
ATOM      7  OXT ASP A   1      -6.654  18.831  64.723  1.00  0.00    -0.499 OA 
ENDROOT
BRANCH   2   8
ATOM      8  CB  ASP A   1      -8.687  17.970  66.514  1.00  0.00    -0.279 C  
ATOM      9  CG  ASP A   1     -10.086  18.525  66.451  1.00  0.00    -0.405 C  
ATOM     10  OD2 ASP A   1     -10.538  19.083  65.462  1.00  0.00    -0.557 OA 
ATOM     11  OD1 ASP A   1     -10.811  18.351  67.577  1.00  0.00    -0.408 OA 
ENDBRANCH   2   8
TORSDOF 1
ENDMDL
MODEL       67
REMARK 921   NORMALIZED FREE ENERGY PREDICTED BY IDOCK:   -3.30 KCAL/MOL
REMARK 922        TOTAL FREE ENERGY PREDICTED BY IDOCK:   -3.74 KCAL/MOL
REMARK 923 INTER-LIGAND FREE ENERGY PREDICTED BY IDOCK:   -3.26 KCAL/MOL
REMARK 924 INTRA-LIGAND FREE ENERGY PREDICTED BY IDOCK:   -0.47 KCAL/MOL
REMARK 927      BINDING AFFINITY PREDICTED BY RF-SCORE:    0.00 PKD
ROOT
ATOM      1  N   ASP A   1     -12.214   7.401  72.654  1.00  0.00    -0.528 NA 
ATOM      2  CA  ASP A   1     -11.830   8.805  72.320  1.00  0.00    -0.333 C  
ATOM      3  H1  ASP A   1     -12.824   7.361  73.470  1.00  0.00     0.000 HD 
ATOM      4  H2  ASP A   1     -11.392   6.809  72.774  1.00  0.00     0.000 HD 
ATOM      5  C   ASP A   1     -13.132   9.568  72.043  1.00  0.00    -0.438 C  
ATOM      6  O   ASP A   1     -14.168   9.061  72.755  1.00  0.00    -0.572 OA 
ATOM      7  OXT ASP A   1     -13.243  10.495  71.250  1.00  0.00    -0.365 OA 
ENDROOT
BRANCH   2   8
ATOM      8  CB  ASP A   1     -10.919   8.865  71.101  1.00  0.00    -0.356 C  
ATOM      9  CG  ASP A   1     -10.578   7.483  70.608  1.00  0.00    -0.224 C  
ATOM     10  OD2 ASP A   1     -11.284   6.861  69.829  1.00  0.00    -0.283 OA 
ATOM     11  OD1 ASP A   1      -9.419   6.984  71.090  1.00  0.00    -0.165 OA 
ENDBRANCH   2   8
TORSDOF 1
ENDMDL
MODEL       68
REMARK 921   NORMALIZED FREE ENERGY PREDICTED BY IDOCK:   -3.29 KCAL/MOL
REMARK 922        TOTAL FREE ENERGY PREDICTED BY IDOCK:   -3.73 KCAL/MOL
REMARK 923 INTER-LIGAND FREE ENERGY PREDICTED BY IDOCK:   -3.53 KCAL/MOL
REMARK 924 INTRA-LIGAND FREE ENERGY PREDICTED BY IDOCK:   -0.20 KCAL/MOL
REMARK 927      BINDING AFFINITY PREDICTED BY RF-SCORE:    0.00 PKD
ROOT
ATOM      1  N   ASP A   1      -8.125  17.490  67.572  1.00  0.00    -0.203 NA 
ATOM      2  CA  ASP A   1      -8.962  18.429  66.767  1.00  0.00    -0.288 C  
ATOM      3  H1  ASP A   1      -7.145  17.771  67.580  1.00  0.00     0.000 HD 
ATOM      4  H2  ASP A   1      -8.233  16.527  67.252  1.00  0.00     0.000 HD 
ATOM      5  C   ASP A   1      -8.817  19.814  67.409  1.00  0.00    -0.326 C  
ATOM      6  O   ASP A   1      -7.607  19.965  68.001  1.00  0.00    -0.294 OA 
ATOM      7  OXT ASP A   1      -9.692  20.671  67.427  1.00  0.00    -0.457 OA 
ENDROOT
BRANCH   2   8
ATOM      8  CB  ASP A   1     -10.425  18.008  66.754  1.00  0.00    -0.335 C  
ATOM      9  CG  ASP A   1     -10.652  16.853  65.814  1.00  0.00    -0.230 C  
ATOM     10  OD2 ASP A   1     -10.503  15.687  66.143  1.00  0.00    -0.293 OA 
ATOM     11  OD1 ASP A   1     -11.042  17.209  64.571  1.00  0.00    -1.105 OA 
ENDBRANCH   2   8
TORSDOF 1
ENDMDL
MODEL       69
REMARK 921   NORMALIZED FREE ENERGY PREDICTED BY IDOCK:   -3.27 KCAL/MOL
REMARK 922        TOTAL FREE ENERGY PREDICTED BY IDOCK:   -3.71 KCAL/MOL
REMARK 923 INTER-LIGAND FREE ENERGY PREDICTED BY IDOCK:   -3.44 KCAL/MOL
REMARK 924 INTRA-LIGAND FREE ENERGY PREDICTED BY IDOCK:   -0.27 KCAL/MOL
REMARK 927      BINDING AFFINITY PREDICTED BY RF-SCORE:    0.00 PKD
ROOT
ATOM      1  N   ASP A   1     -10.897   9.243  71.593  1.00  0.00    -0.372 NA 
ATOM      2  CA  ASP A   1     -12.335   9.092  71.967  1.00  0.00    -0.384 C  
ATOM      3  H1  ASP A   1     -10.296   8.639  72.154  1.00  0.00     0.000 HD 
ATOM      4  H2  ASP A   1     -10.599  10.217  71.646  1.00  0.00     0.000 HD 
ATOM      5  C   ASP A   1     -12.702   7.620  71.734  1.00  0.00    -0.330 C  
ATOM      6  O   ASP A   1     -11.633   6.806  71.911  1.00  0.00    -0.265 OA 
ATOM      7  OXT ASP A   1     -13.808   7.222  71.391  1.00  0.00    -0.394 OA 
ENDROOT
BRANCH   2   8
ATOM      8  CB  ASP A   1     -13.232   9.994  71.130  1.00  0.00    -0.441 C  
ATOM      9  CG  ASP A   1     -12.779  11.429  71.201  1.00  0.00    -0.377 C  
ATOM     10  OD2 ASP A   1     -11.923  11.894  70.465  1.00  0.00    -0.354 OA 
ATOM     11  OD1 ASP A   1     -13.403  12.169  72.143  1.00  0.00    -0.522 OA 
ENDBRANCH   2   8
TORSDOF 1
ENDMDL
MODEL       70
REMARK 921   NORMALIZED FREE ENERGY PREDICTED BY IDOCK:   -3.27 KCAL/MOL
REMARK 922        TOTAL FREE ENERGY PREDICTED BY IDOCK:   -3.70 KCAL/MOL
REMARK 923 INTER-LIGAND FREE ENERGY PREDICTED BY IDOCK:   -3.61 KCAL/MOL
REMARK 924 INTRA-LIGAND FREE ENERGY PREDICTED BY IDOCK:   -0.09 KCAL/MOL
REMARK 927      BINDING AFFINITY PREDICTED BY RF-SCORE:    0.00 PKD
ROOT
ATOM      1  N   ASP A   1     -12.666  15.580  71.170  1.00  0.00    -0.435 NA 
ATOM      2  CA  ASP A   1     -12.931  14.226  70.600  1.00  0.00    -0.257 C  
ATOM      3  H1  ASP A   1     -13.500  15.975  71.605  1.00  0.00     0.000 HD 
ATOM      4  H2  ASP A   1     -12.279  16.210  70.467  1.00  0.00     0.000 HD 
ATOM      5  C   ASP A   1     -13.390  13.336  71.763  1.00  0.00    -0.393 C  
ATOM      6  O   ASP A   1     -14.031  14.055  72.717  1.00  0.00    -0.669 OA 
ATOM      7  OXT ASP A   1     -13.175  12.134  71.850  1.00  0.00    -0.478 OA 
ENDROOT
BRANCH   2   8
ATOM      8  CB  ASP A   1     -11.688  13.636  69.949  1.00  0.00    -0.346 C  
ATOM      9  CG  ASP A   1     -11.798  13.654  68.447  1.00  0.00    -0.372 C  
ATOM     10  OD2 ASP A   1     -11.480  14.619  67.768  1.00  0.00    -0.310 OA 
ATOM     11  OD1 ASP A   1     -12.271  12.512  67.904  1.00  0.00    -0.352 OA 
ENDBRANCH   2   8
TORSDOF 1
ENDMDL
MODEL       71
REMARK 921   NORMALIZED FREE ENERGY PREDICTED BY IDOCK:   -3.25 KCAL/MOL
REMARK 922        TOTAL FREE ENERGY PREDICTED BY IDOCK:   -3.69 KCAL/MOL
REMARK 923 INTER-LIGAND FREE ENERGY PREDICTED BY IDOCK:   -3.17 KCAL/MOL
REMARK 924 INTRA-LIGAND FREE ENERGY PREDICTED BY IDOCK:   -0.52 KCAL/MOL
REMARK 927      BINDING AFFINITY PREDICTED BY RF-SCORE:    0.00 PKD
ROOT
ATOM      1  N   ASP A   1      -8.162  18.018  65.907  1.00  0.00    -0.526 NA 
ATOM      2  CA  ASP A   1      -9.218  17.760  66.932  1.00  0.00    -0.258 C  
ATOM      3  H1  ASP A   1      -8.519  17.895  64.959  1.00  0.00     0.000 HD 
ATOM      4  H2  ASP A   1      -7.336  17.443  66.071  1.00  0.00     0.000 HD 
ATOM      5  C   ASP A   1     -10.352  18.758  66.662  1.00  0.00    -0.420 C  
ATOM      6  O   ASP A   1     -10.430  19.080  65.347  1.00  0.00    -0.475 OA 
ATOM      7  OXT ASP A   1     -11.077  19.241  67.522  1.00  0.00    -0.423 OA 
ENDROOT
BRANCH   2   8
ATOM      8  CB  ASP A   1      -8.685  17.944  68.346  1.00  0.00    -0.296 C  
ATOM      9  CG  ASP A   1      -7.420  18.761  68.351  1.00  0.00    -0.298 C  
ATOM     10  OD2 ASP A   1      -7.416  19.982  68.380  1.00  0.00    -0.298 OA 
ATOM     11  OD1 ASP A   1      -6.282  18.034  68.326  1.00  0.00    -0.177 OA 
ENDBRANCH   2   8
TORSDOF 1
ENDMDL
MODEL       72
REMARK 921   NORMALIZED FREE ENERGY PREDICTED BY IDOCK:   -3.22 KCAL/MOL
REMARK 922        TOTAL FREE ENERGY PREDICTED BY IDOCK:   -3.65 KCAL/MOL
REMARK 923 INTER-LIGAND FREE ENERGY PREDICTED BY IDOCK:   -3.46 KCAL/MOL
REMARK 924 INTRA-LIGAND FREE ENERGY PREDICTED BY IDOCK:   -0.20 KCAL/MOL
REMARK 927      BINDING AFFINITY PREDICTED BY RF-SCORE:    0.00 PKD
ROOT
ATOM      1  N   ASP A   1     -12.089  15.429  68.183  1.00  0.00    -0.435 NA 
ATOM      2  CA  ASP A   1     -11.231  14.279  67.771  1.00  0.00    -0.291 C  
ATOM      3  H1  ASP A   1     -12.154  15.506  69.198  1.00  0.00     0.000 HD 
ATOM      4  H2  ASP A   1     -13.013  15.377  67.755  1.00  0.00     0.000 HD 
ATOM      5  C   ASP A   1      -9.840  14.525  68.371  1.00  0.00    -0.227 C  
ATOM      6  O   ASP A   1      -9.914  15.226  69.528  1.00  0.00    -0.238 OA 
ATOM      7  OXT ASP A   1      -8.786  14.172  67.857  1.00  0.00    -0.163 OA 
ENDROOT
BRANCH   2   8
ATOM      8  CB  ASP A   1     -11.135  14.164  66.255  1.00  0.00    -0.318 C  
ATOM      9  CG  ASP A   1     -12.384  13.556  65.675  1.00  0.00    -0.476 C  
ATOM     10  OD2 ASP A   1     -13.372  14.213  65.385  1.00  0.00    -0.705 OA 
ATOM     11  OD1 ASP A   1     -12.326  12.219  65.491  1.00  0.00    -0.602 OA 
ENDBRANCH   2   8
TORSDOF 1
ENDMDL
MODEL       73
REMARK 921   NORMALIZED FREE ENERGY PREDICTED BY IDOCK:   -3.20 KCAL/MOL
REMARK 922        TOTAL FREE ENERGY PREDICTED BY IDOCK:   -3.63 KCAL/MOL
REMARK 923 INTER-LIGAND FREE ENERGY PREDICTED BY IDOCK:   -3.19 KCAL/MOL
REMARK 924 INTRA-LIGAND FREE ENERGY PREDICTED BY IDOCK:   -0.44 KCAL/MOL
REMARK 927      BINDING AFFINITY PREDICTED BY RF-SCORE:    0.00 PKD
ROOT
ATOM      1  N   ASP A   1     -10.744   9.505  70.791  1.00  0.00    -0.296 NA 
ATOM      2  CA  ASP A   1     -11.992   9.839  71.540  1.00  0.00    -0.407 C  
ATOM      3  H1  ASP A   1     -10.152   8.859  71.313  1.00  0.00     0.000 HD 
ATOM      4  H2  ASP A   1     -10.233  10.346  70.526  1.00  0.00     0.000 HD 
ATOM      5  C   ASP A   1     -12.734   8.517  71.778  1.00  0.00    -0.349 C  
ATOM      6  O   ASP A   1     -11.875   7.473  71.875  1.00  0.00    -0.278 OA 
ATOM      7  OXT ASP A   1     -13.952   8.400  71.834  1.00  0.00    -0.383 OA 
ENDROOT
BRANCH   2   8
ATOM      8  CB  ASP A   1     -12.875  10.803  70.761  1.00  0.00    -0.408 C  
ATOM      9  CG  ASP A   1     -12.158  11.344  69.553  1.00  0.00    -0.302 C  
ATOM     10  OD2 ASP A   1     -12.140  10.768  68.476  1.00  0.00    -0.493 OA 
ATOM     11  OD1 ASP A   1     -11.537  12.527  69.751  1.00  0.00    -0.277 OA 
ENDBRANCH   2   8
TORSDOF 1
ENDMDL
MODEL       74
REMARK 921   NORMALIZED FREE ENERGY PREDICTED BY IDOCK:   -3.20 KCAL/MOL
REMARK 922        TOTAL FREE ENERGY PREDICTED BY IDOCK:   -3.63 KCAL/MOL
REMARK 923 INTER-LIGAND FREE ENERGY PREDICTED BY IDOCK:   -3.49 KCAL/MOL
REMARK 924 INTRA-LIGAND FREE ENERGY PREDICTED BY IDOCK:   -0.13 KCAL/MOL
REMARK 927      BINDING AFFINITY PREDICTED BY RF-SCORE:    0.00 PKD
ROOT
ATOM      1  N   ASP A   1      -8.581  16.272  67.457  1.00  0.00    -0.175 NA 
ATOM      2  CA  ASP A   1      -9.335  16.676  66.233  1.00  0.00    -0.292 C  
ATOM      3  H1  ASP A   1      -7.648  16.683  67.478  1.00  0.00     0.000 HD 
ATOM      4  H2  ASP A   1      -8.543  15.257  67.552  1.00  0.00     0.000 HD 
ATOM      5  C   ASP A   1      -9.434  18.207  66.257  1.00  0.00    -0.222 C  
ATOM      6  O   ASP A   1      -8.372  18.765  66.889  1.00  0.00    -0.255 OA 
ATOM      7  OXT ASP A   1     -10.370  18.854  65.803  1.00  0.00    -0.549 OA 
ENDROOT
BRANCH   2   8
ATOM      8  CB  ASP A   1     -10.728  16.061  66.201  1.00  0.00    -0.246 C  
ATOM      9  CG  ASP A   1     -11.025  15.455  64.854  1.00  0.00    -0.437 C  
ATOM     10  OD2 ASP A   1     -10.707  14.315  64.553  1.00  0.00    -0.388 OA 
ATOM     11  OD1 ASP A   1     -11.680  16.273  64.002  1.00  0.00    -0.930 OA 
ENDBRANCH   2   8
TORSDOF 1
ENDMDL
MODEL       75
REMARK 921   NORMALIZED FREE ENERGY PREDICTED BY IDOCK:   -3.14 KCAL/MOL
REMARK 922        TOTAL FREE ENERGY PREDICTED BY IDOCK:   -3.57 KCAL/MOL
REMARK 923 INTER-LIGAND FREE ENERGY PREDICTED BY IDOCK:   -3.44 KCAL/MOL
REMARK 924 INTRA-LIGAND FREE ENERGY PREDICTED BY IDOCK:   -0.13 KCAL/MOL
REMARK 927      BINDING AFFINITY PREDICTED BY RF-SCORE:    0.00 PKD
ROOT
ATOM      1  N   ASP A   1     -10.886  13.812  68.845  1.00  0.00    -0.250 NA 
ATOM      2  CA  ASP A   1     -11.751  12.983  67.954  1.00  0.00    -0.357 C  
ATOM      3  H1  ASP A   1     -11.155  13.718  69.825  1.00  0.00     0.000 HD 
ATOM      4  H2  ASP A   1     -10.878  14.789  68.553  1.00  0.00     0.000 HD 
ATOM      5  C   ASP A   1     -11.591  11.526  68.409  1.00  0.00    -0.308 C  
ATOM      6  O   ASP A   1     -11.321  11.445  69.735  1.00  0.00    -0.274 OA 
ATOM      7  OXT ASP A   1     -11.656  10.552  67.669  1.00  0.00    -0.447 OA 
ENDROOT
BRANCH   2   8
ATOM      8  CB  ASP A   1     -11.350  13.122  66.492  1.00  0.00    -0.350 C  
ATOM      9  CG  ASP A   1     -12.549  13.389  65.621  1.00  0.00    -0.438 C  
ATOM     10  OD2 ASP A   1     -12.992  14.510  65.422  1.00  0.00    -0.470 OA 
ATOM     11  OD1 ASP A   1     -13.097  12.286  65.066  1.00  0.00    -0.546 OA 
ENDBRANCH   2   8
TORSDOF 1
ENDMDL
MODEL       76
REMARK 921   NORMALIZED FREE ENERGY PREDICTED BY IDOCK:   -3.14 KCAL/MOL
REMARK 922        TOTAL FREE ENERGY PREDICTED BY IDOCK:   -3.57 KCAL/MOL
REMARK 923 INTER-LIGAND FREE ENERGY PREDICTED BY IDOCK:   -3.06 KCAL/MOL
REMARK 924 INTRA-LIGAND FREE ENERGY PREDICTED BY IDOCK:   -0.51 KCAL/MOL
REMARK 927      BINDING AFFINITY PREDICTED BY RF-SCORE:    0.00 PKD
ROOT
ATOM      1  N   ASP A   1     -10.965   7.364  73.447  1.00  0.00    -0.548 NA 
ATOM      2  CA  ASP A   1     -10.315   7.460  72.106  1.00  0.00    -0.199 C  
ATOM      3  H1  ASP A   1     -10.307   7.059  74.164  1.00  0.00     0.000 HD 
ATOM      4  H2  ASP A   1     -11.788   6.763  73.419  1.00  0.00     0.000 HD 
ATOM      5  C   ASP A   1      -9.173   8.476  72.239  1.00  0.00    -0.272 C  
ATOM      6  O   ASP A   1      -8.660   8.489  73.493  1.00  0.00    -0.341 OA 
ATOM      7  OXT ASP A   1      -8.790   9.218  71.342  1.00  0.00    -0.313 OA 
ENDROOT
BRANCH   2   8
ATOM      8  CB  ASP A   1     -11.297   7.914  71.035  1.00  0.00    -0.292 C  
ATOM      9  CG  ASP A   1     -12.625   8.290  71.639  1.00  0.00    -0.327 C  
ATOM     10  OD2 ASP A   1     -12.866   9.403  72.081  1.00  0.00    -0.386 OA 
ATOM     11  OD1 ASP A   1     -13.540   7.296  71.647  1.00  0.00    -0.377 OA 
ENDBRANCH   2   8
TORSDOF 1
ENDMDL
MODEL       77
REMARK 921   NORMALIZED FREE ENERGY PREDICTED BY IDOCK:   -3.13 KCAL/MOL
REMARK 922        TOTAL FREE ENERGY PREDICTED BY IDOCK:   -3.56 KCAL/MOL
REMARK 923 INTER-LIGAND FREE ENERGY PREDICTED BY IDOCK:   -3.04 KCAL/MOL
REMARK 924 INTRA-LIGAND FREE ENERGY PREDICTED BY IDOCK:   -0.52 KCAL/MOL
REMARK 927      BINDING AFFINITY PREDICTED BY RF-SCORE:    0.00 PKD
ROOT
ATOM      1  N   ASP A   1     -11.296   8.464  69.947  1.00  0.00    -0.454 NA 
ATOM      2  CA  ASP A   1     -10.968   9.065  71.274  1.00  0.00    -0.313 C  
ATOM      3  H1  ASP A   1     -10.804   8.934  69.188  1.00  0.00     0.000 HD 
ATOM      4  H2  ASP A   1     -12.303   8.449  69.785  1.00  0.00     0.000 HD 
ATOM      5  C   ASP A   1      -9.451   8.924  71.462  1.00  0.00    -0.277 C  
ATOM      6  O   ASP A   1      -8.798   8.946  70.274  1.00  0.00    -0.147 OA 
ATOM      7  OXT ASP A   1      -8.892   8.770  72.541  1.00  0.00    -0.402 OA 
ENDROOT
BRANCH   2   8
ATOM      8  CB  ASP A   1     -11.703   8.363  72.408  1.00  0.00    -0.452 C  
ATOM      9  CG  ASP A   1     -12.337   7.081  71.934  1.00  0.00    -0.323 C  
ATOM     10  OD2 ASP A   1     -11.740   6.016  71.899  1.00  0.00    -0.295 OA 
ATOM     11  OD1 ASP A   1     -13.628   7.199  71.557  1.00  0.00    -0.380 OA 
ENDBRANCH   2   8
TORSDOF 1
ENDMDL
MODEL       78
REMARK 921   NORMALIZED FREE ENERGY PREDICTED BY IDOCK:   -3.13 KCAL/MOL
REMARK 922        TOTAL FREE ENERGY PREDICTED BY IDOCK:   -3.56 KCAL/MOL
REMARK 923 INTER-LIGAND FREE ENERGY PREDICTED BY IDOCK:   -3.08 KCAL/MOL
REMARK 924 INTRA-LIGAND FREE ENERGY PREDICTED BY IDOCK:   -0.49 KCAL/MOL
REMARK 927      BINDING AFFINITY PREDICTED BY RF-SCORE:    0.00 PKD
ROOT
ATOM      1  N   ASP A   1     -13.129   7.377  70.730  1.00  0.00    -0.585 NA 
ATOM      2  CA  ASP A   1     -12.228   6.713  71.719  1.00  0.00    -0.353 C  
ATOM      3  H1  ASP A   1     -13.926   7.821  71.185  1.00  0.00     0.000 HD 
ATOM      4  H2  ASP A   1     -13.429   6.727  70.004  1.00  0.00     0.000 HD 
ATOM      5  C   ASP A   1     -11.745   7.805  72.683  1.00  0.00    -0.309 C  
ATOM      6  O   ASP A   1     -12.665   8.791  72.820  1.00  0.00    -0.331 OA 
ATOM      7  OXT ASP A   1     -10.651   7.816  73.234  1.00  0.00    -0.364 OA 
ENDROOT
BRANCH   2   8
ATOM      8  CB  ASP A   1     -11.037   6.050  71.039  1.00  0.00    -0.348 C  
ATOM      9  CG  ASP A   1     -10.711   6.725  69.733  1.00  0.00    -0.249 C  
ATOM     10  OD2 ASP A   1      -9.986   7.705  69.652  1.00  0.00    -0.180 OA 
ATOM     11  OD1 ASP A   1     -11.279   6.155  68.648  1.00  0.00    -0.356 OA 
ENDBRANCH   2   8
TORSDOF 1
ENDMDL
MODEL       79
REMARK 921   NORMALIZED FREE ENERGY PREDICTED BY IDOCK:   -3.12 KCAL/MOL
REMARK 922        TOTAL FREE ENERGY PREDICTED BY IDOCK:   -3.55 KCAL/MOL
REMARK 923 INTER-LIGAND FREE ENERGY PREDICTED BY IDOCK:   -3.42 KCAL/MOL
REMARK 924 INTRA-LIGAND FREE ENERGY PREDICTED BY IDOCK:   -0.13 KCAL/MOL
REMARK 927      BINDING AFFINITY PREDICTED BY RF-SCORE:    0.00 PKD
ROOT
ATOM      1  N   ASP A   1     -10.557  17.328  65.320  1.00  0.00    -0.657 NA 
ATOM      2  CA  ASP A   1     -10.085  17.530  66.723  1.00  0.00    -0.320 C  
ATOM      3  H1  ASP A   1     -10.289  16.412  64.961  1.00  0.00     0.000 HD 
ATOM      4  H2  ASP A   1     -10.235  18.077  64.708  1.00  0.00     0.000 HD 
ATOM      5  C   ASP A   1     -10.725  16.422  67.570  1.00  0.00    -0.298 C  
ATOM      6  O   ASP A   1     -10.938  15.298  66.843  1.00  0.00    -0.320 OA 
ATOM      7  OXT ASP A   1     -11.044  16.539  68.747  1.00  0.00    -0.332 OA 
ENDROOT
BRANCH   2   8
ATOM      8  CB  ASP A   1     -10.485  18.897  67.260  1.00  0.00    -0.510 C  
ATOM      9  CG  ASP A   1      -9.296  19.630  67.822  1.00  0.00    -0.337 C  
ATOM     10  OD2 ASP A   1      -8.550  20.314  67.138  1.00  0.00    -0.331 OA 
ATOM     11  OD1 ASP A   1      -9.121  19.479  69.153  1.00  0.00    -0.312 OA 
ENDBRANCH   2   8
TORSDOF 1
ENDMDL
MODEL       80
REMARK 921   NORMALIZED FREE ENERGY PREDICTED BY IDOCK:   -3.12 KCAL/MOL
REMARK 922        TOTAL FREE ENERGY PREDICTED BY IDOCK:   -3.55 KCAL/MOL
REMARK 923 INTER-LIGAND FREE ENERGY PREDICTED BY IDOCK:   -3.03 KCAL/MOL
REMARK 924 INTRA-LIGAND FREE ENERGY PREDICTED BY IDOCK:   -0.52 KCAL/MOL
REMARK 927      BINDING AFFINITY PREDICTED BY RF-SCORE:    0.00 PKD
ROOT
ATOM      1  N   ASP A   1      -9.671  12.567  64.954  1.00  0.00    -0.484 NA 
ATOM      2  CA  ASP A   1      -9.664  13.757  65.855  1.00  0.00    -0.196 C  
ATOM      3  H1  ASP A   1      -8.727  12.299  64.676  1.00  0.00     0.000 HD 
ATOM      4  H2  ASP A   1     -10.268  12.718  64.141  1.00  0.00     0.000 HD 
ATOM      5  C   ASP A   1      -8.840  13.373  67.091  1.00  0.00    -0.222 C  
ATOM      6  O   ASP A   1      -7.880  12.466  66.788  1.00  0.00    -0.066 OA 
ATOM      7  OXT ASP A   1      -9.040  13.796  68.223  1.00  0.00    -0.189 OA 
ENDROOT
BRANCH   2   8
ATOM      8  CB  ASP A   1     -11.074  14.157  66.269  1.00  0.00    -0.318 C  
ATOM      9  CG  ASP A   1     -12.081  13.119  65.849  1.00  0.00    -0.444 C  
ATOM     10  OD2 ASP A   1     -12.350  12.139  66.526  1.00  0.00    -0.474 OA 
ATOM     11  OD1 ASP A   1     -12.673  13.360  64.659  1.00  0.00    -0.637 OA 
ENDBRANCH   2   8
TORSDOF 1
ENDMDL
MODEL       81
REMARK 921   NORMALIZED FREE ENERGY PREDICTED BY IDOCK:   -3.12 KCAL/MOL
REMARK 922        TOTAL FREE ENERGY PREDICTED BY IDOCK:   -3.55 KCAL/MOL
REMARK 923 INTER-LIGAND FREE ENERGY PREDICTED BY IDOCK:   -3.05 KCAL/MOL
REMARK 924 INTRA-LIGAND FREE ENERGY PREDICTED BY IDOCK:   -0.49 KCAL/MOL
REMARK 927      BINDING AFFINITY PREDICTED BY RF-SCORE:    0.00 PKD
ROOT
ATOM      1  N   ASP A   1     -11.521  13.566  69.468  1.00  0.00    -0.377 NA 
ATOM      2  CA  ASP A   1     -10.473  14.105  68.551  1.00  0.00    -0.252 C  
ATOM      3  H1  ASP A   1     -11.735  14.220  70.221  1.00  0.00     0.000 HD 
ATOM      4  H2  ASP A   1     -11.262  12.650  69.833  1.00  0.00     0.000 HD 
ATOM      5  C   ASP A   1     -11.021  15.416  67.972  1.00  0.00    -0.307 C  
ATOM      6  O   ASP A   1     -11.864  16.030  68.839  1.00  0.00    -0.379 OA 
ATOM      7  OXT ASP A   1     -10.768  15.846  66.854  1.00  0.00    -0.321 OA 
ENDROOT
BRANCH   2   8
ATOM      8  CB  ASP A   1     -10.153  13.130  67.426  1.00  0.00    -0.229 C  
ATOM      9  CG  ASP A   1     -11.318  12.216  67.151  1.00  0.00    -0.331 C  
ATOM     10  OD2 ASP A   1     -12.232  12.511  66.396  1.00  0.00    -0.584 OA 
ATOM     11  OD1 ASP A   1     -11.270  11.033  67.801  1.00  0.00    -0.274 OA 
ENDBRANCH   2   8
TORSDOF 1
ENDMDL
MODEL       82
REMARK 921   NORMALIZED FREE ENERGY PREDICTED BY IDOCK:   -3.10 KCAL/MOL
REMARK 922        TOTAL FREE ENERGY PREDICTED BY IDOCK:   -3.53 KCAL/MOL
REMARK 923 INTER-LIGAND FREE ENERGY PREDICTED BY IDOCK:   -3.09 KCAL/MOL
REMARK 924 INTRA-LIGAND FREE ENERGY PREDICTED BY IDOCK:   -0.44 KCAL/MOL
REMARK 927      BINDING AFFINITY PREDICTED BY RF-SCORE:    0.00 PKD
ROOT
ATOM      1  N   ASP A   1     -10.363  12.968  68.847  1.00  0.00    -0.431 NA 
ATOM      2  CA  ASP A   1     -11.195  13.552  67.753  1.00  0.00    -0.282 C  
ATOM      3  H1  ASP A   1     -10.929  12.438  69.509  1.00  0.00     0.000 HD 
ATOM      4  H2  ASP A   1      -9.811  13.684  69.318  1.00  0.00     0.000 HD 
ATOM      5  C   ASP A   1     -11.881  12.379  67.041  1.00  0.00    -0.297 C  
ATOM      6  O   ASP A   1     -12.101  11.343  67.887  1.00  0.00    -0.646 OA 
ATOM      7  OXT ASP A   1     -12.163  12.353  65.850  1.00  0.00    -0.629 OA 
ENDROOT
BRANCH   2   8
ATOM      8  CB  ASP A   1     -10.350  14.343  66.764  1.00  0.00    -0.273 C  
ATOM      9  CG  ASP A   1      -8.942  14.518  67.269  1.00  0.00    -0.210 C  
ATOM     10  OD2 ASP A   1      -8.062  13.691  67.088  1.00  0.00    -0.160 OA 
ATOM     11  OD1 ASP A   1      -8.724  15.673  67.935  1.00  0.00    -0.164 OA 
ENDBRANCH   2   8
TORSDOF 1
ENDMDL
MODEL       83
REMARK 921   NORMALIZED FREE ENERGY PREDICTED BY IDOCK:   -3.05 KCAL/MOL
REMARK 922        TOTAL FREE ENERGY PREDICTED BY IDOCK:   -3.48 KCAL/MOL
REMARK 923 INTER-LIGAND FREE ENERGY PREDICTED BY IDOCK:   -2.97 KCAL/MOL
REMARK 924 INTRA-LIGAND FREE ENERGY PREDICTED BY IDOCK:   -0.51 KCAL/MOL
REMARK 927      BINDING AFFINITY PREDICTED BY RF-SCORE:    0.00 PKD
ROOT
ATOM      1  N   ASP A   1      -9.591  13.640  68.744  1.00  0.00    -0.408 NA 
ATOM      2  CA  ASP A   1     -11.044  13.299  68.689  1.00  0.00    -0.268 C  
ATOM      3  H1  ASP A   1      -9.013  12.809  68.864  1.00  0.00     0.000 HD 
ATOM      4  H2  ASP A   1      -9.398  14.334  69.466  1.00  0.00     0.000 HD 
ATOM      5  C   ASP A   1     -11.232  12.350  67.498  1.00  0.00    -0.294 C  
ATOM      6  O   ASP A   1     -10.122  11.606  67.273  1.00  0.00    -0.196 OA 
ATOM      7  OXT ASP A   1     -12.240  12.291  66.805  1.00  0.00    -0.558 OA 
ENDROOT
BRANCH   2   8
ATOM      8  CB  ASP A   1     -11.907  14.541  68.511  1.00  0.00    -0.355 C  
ATOM      9  CG  ASP A   1     -11.117  15.671  67.904  1.00  0.00    -0.324 C  
ATOM     10  OD2 ASP A   1     -10.975  15.812  66.699  1.00  0.00    -0.286 OA 
ATOM     11  OD1 ASP A   1     -10.580  16.526  68.801  1.00  0.00    -0.280 OA 
ENDBRANCH   2   8
TORSDOF 1
ENDMDL
MODEL       84
REMARK 921   NORMALIZED FREE ENERGY PREDICTED BY IDOCK:   -3.02 KCAL/MOL
REMARK 922        TOTAL FREE ENERGY PREDICTED BY IDOCK:   -3.44 KCAL/MOL
REMARK 923 INTER-LIGAND FREE ENERGY PREDICTED BY IDOCK:   -2.93 KCAL/MOL
REMARK 924 INTRA-LIGAND FREE ENERGY PREDICTED BY IDOCK:   -0.51 KCAL/MOL
REMARK 927      BINDING AFFINITY PREDICTED BY RF-SCORE:    0.00 PKD
ROOT
ATOM      1  N   ASP A   1     -10.686   7.233  73.962  1.00  0.00    -0.572 NA 
ATOM      2  CA  ASP A   1     -11.179   7.907  72.723  1.00  0.00    -0.405 C  
ATOM      3  H1  ASP A   1     -11.436   6.741  74.447  1.00  0.00     0.000 HD 
ATOM      4  H2  ASP A   1     -10.212   7.890  74.580  1.00  0.00     0.000 HD 
ATOM      5  C   ASP A   1     -11.759   6.809  71.822  1.00  0.00    -0.312 C  
ATOM      6  O   ASP A   1     -12.259   5.780  72.548  1.00  0.00    -0.196 OA 
ATOM      7  OXT ASP A   1     -11.744   6.830  70.597  1.00  0.00    -0.349 OA 
ENDROOT
BRANCH   2   8
ATOM      8  CB  ASP A   1     -10.059   8.641  71.999  1.00  0.00    -0.401 C  
ATOM      9  CG  ASP A   1      -8.708   8.119  72.412  1.00  0.00    -0.189 C  
ATOM     10  OD2 ASP A   1      -8.177   7.154  71.884  1.00  0.00    -0.104 OA 
ATOM     11  OD1 ASP A   1      -8.121   8.809  73.414  1.00  0.00    -0.402 OA 
ENDBRANCH   2   8
TORSDOF 1
ENDMDL
MODEL       85
REMARK 921   NORMALIZED FREE ENERGY PREDICTED BY IDOCK:   -3.02 KCAL/MOL
REMARK 922        TOTAL FREE ENERGY PREDICTED BY IDOCK:   -3.44 KCAL/MOL
REMARK 923 INTER-LIGAND FREE ENERGY PREDICTED BY IDOCK:   -2.93 KCAL/MOL
REMARK 924 INTRA-LIGAND FREE ENERGY PREDICTED BY IDOCK:   -0.51 KCAL/MOL
REMARK 927      BINDING AFFINITY PREDICTED BY RF-SCORE:    0.00 PKD
ROOT
ATOM      1  N   ASP A   1     -12.363  13.997  66.825  1.00  0.00    -0.525 NA 
ATOM      2  CA  ASP A   1     -11.721  14.622  68.020  1.00  0.00    -0.342 C  
ATOM      3  H1  ASP A   1     -12.613  14.695  66.124  1.00  0.00     0.000 HD 
ATOM      4  H2  ASP A   1     -13.168  13.430  67.089  1.00  0.00     0.000 HD 
ATOM      5  C   ASP A   1     -10.462  15.344  67.522  1.00  0.00    -0.275 C  
ATOM      6  O   ASP A   1     -10.609  15.778  66.246  1.00  0.00    -0.306 OA 
ATOM      7  OXT ASP A   1      -9.433  15.482  68.171  1.00  0.00    -0.196 OA 
ENDROOT
BRANCH   2   8
ATOM      8  CB  ASP A   1     -11.348  13.581  69.067  1.00  0.00    -0.336 C  
ATOM      9  CG  ASP A   1     -11.225  12.211  68.453  1.00  0.00    -0.265 C  
ATOM     10  OD2 ASP A   1     -10.196  11.802  67.936  1.00  0.00    -0.183 OA 
ATOM     11  OD1 ASP A   1     -12.346  11.460  68.525  1.00  0.00    -0.504 OA 
ENDBRANCH   2   8
TORSDOF 1
ENDMDL
MODEL       86
REMARK 921   NORMALIZED FREE ENERGY PREDICTED BY IDOCK:   -3.02 KCAL/MOL
REMARK 922        TOTAL FREE ENERGY PREDICTED BY IDOCK:   -3.44 KCAL/MOL
REMARK 923 INTER-LIGAND FREE ENERGY PREDICTED BY IDOCK:   -2.96 KCAL/MOL
REMARK 924 INTRA-LIGAND FREE ENERGY PREDICTED BY IDOCK:   -0.48 KCAL/MOL
REMARK 927      BINDING AFFINITY PREDICTED BY RF-SCORE:    0.00 PKD
ROOT
ATOM      1  N   ASP A   1     -12.134  12.504  66.038  1.00  0.00    -0.612 NA 
ATOM      2  CA  ASP A   1     -11.357  13.297  65.040  1.00  0.00    -0.305 C  
ATOM      3  H1  ASP A   1     -12.971  12.093  65.625  1.00  0.00     0.000 HD 
ATOM      4  H2  ASP A   1     -12.361  13.062  66.861  1.00  0.00     0.000 HD 
ATOM      5  C   ASP A   1     -10.968  12.332  63.912  1.00  0.00    -0.406 C  
ATOM      6  O   ASP A   1     -11.885  11.344  63.764  1.00  0.00    -0.232 OA 
ATOM      7  OXT ASP A   1      -9.942  12.410  63.248  1.00  0.00    -0.392 OA 
ENDROOT
BRANCH   2   8
ATOM      8  CB  ASP A   1     -10.107  13.910  65.657  1.00  0.00    -0.332 C  
ATOM      9  CG  ASP A   1      -9.619  13.092  66.824  1.00  0.00    -0.248 C  
ATOM     10  OD2 ASP A   1      -8.872  12.133  66.699  1.00  0.00    -0.202 OA 
ATOM     11  OD1 ASP A   1     -10.067  13.507  68.028  1.00  0.00    -0.230 OA 
ENDBRANCH   2   8
TORSDOF 1
ENDMDL
MODEL       87
REMARK 921   NORMALIZED FREE ENERGY PREDICTED BY IDOCK:   -3.01 KCAL/MOL
REMARK 922        TOTAL FREE ENERGY PREDICTED BY IDOCK:   -3.43 KCAL/MOL
REMARK 923 INTER-LIGAND FREE ENERGY PREDICTED BY IDOCK:   -2.94 KCAL/MOL
REMARK 924 INTRA-LIGAND FREE ENERGY PREDICTED BY IDOCK:   -0.48 KCAL/MOL
REMARK 927      BINDING AFFINITY PREDICTED BY RF-SCORE:    0.00 PKD
ROOT
ATOM      1  N   ASP A   1      -9.502  14.057  67.407  1.00  0.00    -0.218 NA 
ATOM      2  CA  ASP A   1     -10.179  13.826  66.097  1.00  0.00    -0.301 C  
ATOM      3  H1  ASP A   1      -8.562  14.435  67.285  1.00  0.00     0.000 HD 
ATOM      4  H2  ASP A   1      -9.492  13.211  67.976  1.00  0.00     0.000 HD 
ATOM      5  C   ASP A   1     -10.244  15.184  65.385  1.00  0.00    -0.372 C  
ATOM      6  O   ASP A   1      -9.205  15.981  65.736  1.00  0.00    -0.356 OA 
ATOM      7  OXT ASP A   1     -11.139  15.532  64.624  1.00  0.00    -0.412 OA 
ENDROOT
BRANCH   2   8
ATOM      8  CB  ASP A   1     -11.582  13.263  66.280  1.00  0.00    -0.384 C  
ATOM      9  CG  ASP A   1     -11.904  13.066  67.738  1.00  0.00    -0.347 C  
ATOM     10  OD2 ASP A   1     -12.358  13.951  68.445  1.00  0.00    -0.261 OA 
ATOM     11  OD1 ASP A   1     -11.656  11.822  68.204  1.00  0.00    -0.292 OA 
ENDBRANCH   2   8
TORSDOF 1
ENDMDL
MODEL       88
REMARK 921   NORMALIZED FREE ENERGY PREDICTED BY IDOCK:   -3.00 KCAL/MOL
REMARK 922        TOTAL FREE ENERGY PREDICTED BY IDOCK:   -3.43 KCAL/MOL
REMARK 923 INTER-LIGAND FREE ENERGY PREDICTED BY IDOCK:   -2.92 KCAL/MOL
REMARK 924 INTRA-LIGAND FREE ENERGY PREDICTED BY IDOCK:   -0.51 KCAL/MOL
REMARK 927      BINDING AFFINITY PREDICTED BY RF-SCORE:    0.00 PKD
ROOT
ATOM      1  N   ASP A   1     -11.369  14.032  65.662  1.00  0.00    -0.309 NA 
ATOM      2  CA  ASP A   1     -11.142  15.280  66.450  1.00  0.00    -0.273 C  
ATOM      3  H1  ASP A   1     -12.060  14.172  64.925  1.00  0.00     0.000 HD 
ATOM      4  H2  ASP A   1     -11.623  13.251  66.267  1.00  0.00     0.000 HD 
ATOM      5  C   ASP A   1     -10.650  16.346  65.462  1.00  0.00    -0.330 C  
ATOM      6  O   ASP A   1     -11.152  16.142  64.219  1.00  0.00    -0.653 OA 
ATOM      7  OXT ASP A   1      -9.871  17.249  65.739  1.00  0.00    -0.528 OA 
ENDROOT
BRANCH   2   8
ATOM      8  CB  ASP A   1     -10.110  15.071  67.550  1.00  0.00    -0.228 C  
ATOM      9  CG  ASP A   1      -9.511  13.691  67.480  1.00  0.00    -0.222 C  
ATOM     10  OD2 ASP A   1      -8.553  13.416  66.774  1.00  0.00    -0.152 OA 
ATOM     11  OD1 ASP A   1     -10.113  12.776  68.269  1.00  0.00    -0.229 OA 
ENDBRANCH   2   8
TORSDOF 1
ENDMDL
MODEL       89
REMARK 921   NORMALIZED FREE ENERGY PREDICTED BY IDOCK:   -3.00 KCAL/MOL
REMARK 922        TOTAL FREE ENERGY PREDICTED BY IDOCK:   -3.42 KCAL/MOL
REMARK 923 INTER-LIGAND FREE ENERGY PREDICTED BY IDOCK:   -2.90 KCAL/MOL
REMARK 924 INTRA-LIGAND FREE ENERGY PREDICTED BY IDOCK:   -0.52 KCAL/MOL
REMARK 927      BINDING AFFINITY PREDICTED BY RF-SCORE:    0.00 PKD
ROOT
ATOM      1  N   ASP A   1      -8.873  15.165  66.792  1.00  0.00    -0.254 NA 
ATOM      2  CA  ASP A   1      -9.488  16.285  66.019  1.00  0.00    -0.334 C  
ATOM      3  H1  ASP A   1      -8.046  15.470  67.305  1.00  0.00     0.000 HD 
ATOM      4  H2  ASP A   1      -8.665  14.368  66.192  1.00  0.00     0.000 HD 
ATOM      5  C   ASP A   1      -9.867  17.370  67.034  1.00  0.00    -0.286 C  
ATOM      6  O   ASP A   1      -9.036  17.363  68.106  1.00  0.00    -0.252 OA 
ATOM      7  OXT ASP A   1     -10.822  18.129  66.923  1.00  0.00    -0.277 OA 
ENDROOT
BRANCH   2   8
ATOM      8  CB  ASP A   1     -10.723  15.829  65.254  1.00  0.00    -0.446 C  
ATOM      9  CG  ASP A   1     -11.184  14.473  65.721  1.00  0.00    -0.334 C  
ATOM     10  OD2 ASP A   1     -11.932  14.316  66.674  1.00  0.00    -0.410 OA 
ATOM     11  OD1 ASP A   1     -10.708  13.437  64.997  1.00  0.00    -0.308 OA 
ENDBRANCH   2   8
TORSDOF 1
ENDMDL
MODEL       90
REMARK 921   NORMALIZED FREE ENERGY PREDICTED BY IDOCK:   -2.99 KCAL/MOL
REMARK 922        TOTAL FREE ENERGY PREDICTED BY IDOCK:   -3.41 KCAL/MOL
REMARK 923 INTER-LIGAND FREE ENERGY PREDICTED BY IDOCK:   -3.15 KCAL/MOL
REMARK 924 INTRA-LIGAND FREE ENERGY PREDICTED BY IDOCK:   -0.26 KCAL/MOL
REMARK 927      BINDING AFFINITY PREDICTED BY RF-SCORE:    0.00 PKD
ROOT
ATOM      1  N   ASP A   1      -9.938  14.482  69.221  1.00  0.00    -0.409 NA 
ATOM      2  CA  ASP A   1     -11.410  14.284  69.063  1.00  0.00    -0.272 C  
ATOM      3  H1  ASP A   1      -9.677  15.464  69.128  1.00  0.00     0.000 HD 
ATOM      4  H2  ASP A   1      -9.412  13.895  68.574  1.00  0.00     0.000 HD 
ATOM      5  C   ASP A   1     -12.089  15.116  70.159  1.00  0.00    -0.343 C  
ATOM      6  O   ASP A   1     -11.355  16.209  70.483  1.00  0.00    -0.371 OA 
ATOM      7  OXT ASP A   1     -13.143  14.820  70.709  1.00  0.00    -0.361 OA 
ENDROOT
BRANCH   2   8
ATOM      8  CB  ASP A   1     -11.798  12.819  69.202  1.00  0.00    -0.352 C  
ATOM      9  CG  ASP A   1     -11.150  11.980  68.132  1.00  0.00    -0.245 C  
ATOM     10  OD2 ASP A   1     -10.028  11.510  68.243  1.00  0.00    -0.188 OA 
ATOM     11  OD1 ASP A   1     -11.913  11.780  67.035  1.00  0.00    -0.610 OA 
ENDBRANCH   2   8
TORSDOF 1
ENDMDL
MODEL       91
REMARK 921   NORMALIZED FREE ENERGY PREDICTED BY IDOCK:   -2.99 KCAL/MOL
REMARK 922        TOTAL FREE ENERGY PREDICTED BY IDOCK:   -3.41 KCAL/MOL
REMARK 923 INTER-LIGAND FREE ENERGY PREDICTED BY IDOCK:   -2.91 KCAL/MOL
REMARK 924 INTRA-LIGAND FREE ENERGY PREDICTED BY IDOCK:   -0.50 KCAL/MOL
REMARK 927      BINDING AFFINITY PREDICTED BY RF-SCORE:    0.00 PKD
ROOT
ATOM      1  N   ASP A   1      -9.039  13.131  66.206  1.00  0.00    -0.457 NA 
ATOM      2  CA  ASP A   1     -10.312  13.761  65.745  1.00  0.00    -0.307 C  
ATOM      3  H1  ASP A   1      -8.350  13.831  66.480  1.00  0.00     0.000 HD 
ATOM      4  H2  ASP A   1      -8.663  12.494  65.504  1.00  0.00     0.000 HD 
ATOM      5  C   ASP A   1     -10.845  14.595  66.917  1.00  0.00    -0.305 C  
ATOM      6  O   ASP A   1      -9.838  15.061  67.696  1.00  0.00    -0.219 OA 
ATOM      7  OXT ASP A   1     -12.031  14.788  67.154  1.00  0.00    -0.351 OA 
ENDROOT
BRANCH   2   8
ATOM      8  CB  ASP A   1     -11.341  12.715  65.335  1.00  0.00    -0.348 C  
ATOM      9  CG  ASP A   1     -11.079  11.398  66.016  1.00  0.00    -0.173 C  
ATOM     10  OD2 ASP A   1     -11.505  11.125  67.127  1.00  0.00    -0.461 OA 
ATOM     11  OD1 ASP A   1     -10.336  10.530  65.294  1.00  0.00    -0.287 OA 
ENDBRANCH   2   8
TORSDOF 1
ENDMDL
MODEL       92
REMARK 921   NORMALIZED FREE ENERGY PREDICTED BY IDOCK:   -2.97 KCAL/MOL
REMARK 922        TOTAL FREE ENERGY PREDICTED BY IDOCK:   -3.40 KCAL/MOL
REMARK 923 INTER-LIGAND FREE ENERGY PREDICTED BY IDOCK:   -2.88 KCAL/MOL
REMARK 924 INTRA-LIGAND FREE ENERGY PREDICTED BY IDOCK:   -0.51 KCAL/MOL
REMARK 927      BINDING AFFINITY PREDICTED BY RF-SCORE:    0.00 PKD
ROOT
ATOM      1  N   ASP A   1      -8.902  14.126  66.347  1.00  0.00    -0.472 NA 
ATOM      2  CA  ASP A   1      -9.414  14.737  67.610  1.00  0.00    -0.204 C  
ATOM      3  H1  ASP A   1      -9.318  13.211  66.175  1.00  0.00     0.000 HD 
ATOM      4  H2  ASP A   1      -7.884  14.079  66.342  1.00  0.00     0.000 HD 
ATOM      5  C   ASP A   1     -10.935  14.869  67.454  1.00  0.00    -0.314 C  
ATOM      6  O   ASP A   1     -11.440  13.901  66.651  1.00  0.00    -0.328 OA 
ATOM      7  OXT ASP A   1     -11.614  15.757  67.955  1.00  0.00    -0.321 OA 
ENDROOT
BRANCH   2   8
ATOM      8  CB  ASP A   1      -8.794  16.104  67.866  1.00  0.00    -0.182 C  
ATOM      9  CG  ASP A   1      -7.975  16.560  66.687  1.00  0.00    -0.284 C  
ATOM     10  OD2 ASP A   1      -8.453  17.152  65.732  1.00  0.00    -0.522 OA 
ATOM     11  OD1 ASP A   1      -6.659  16.267  66.770  1.00  0.00    -0.255 OA 
ENDBRANCH   2   8
TORSDOF 1
ENDMDL
MODEL       93
REMARK 921   NORMALIZED FREE ENERGY PREDICTED BY IDOCK:   -2.97 KCAL/MOL
REMARK 922        TOTAL FREE ENERGY PREDICTED BY IDOCK:   -3.39 KCAL/MOL
REMARK 923 INTER-LIGAND FREE ENERGY PREDICTED BY IDOCK:   -2.87 KCAL/MOL
REMARK 924 INTRA-LIGAND FREE ENERGY PREDICTED BY IDOCK:   -0.52 KCAL/MOL
REMARK 927      BINDING AFFINITY PREDICTED BY RF-SCORE:    0.00 PKD
ROOT
ATOM      1  N   ASP A   1      -9.389  13.263  68.625  1.00  0.00    -0.391 NA 
ATOM      2  CA  ASP A   1     -10.074  14.464  68.060  1.00  0.00    -0.232 C  
ATOM      3  H1  ASP A   1      -8.380  13.401  68.689  1.00  0.00     0.000 HD 
ATOM      4  H2  ASP A   1      -9.617  12.421  68.097  1.00  0.00     0.000 HD 
ATOM      5  C   ASP A   1      -9.759  15.637  68.997  1.00  0.00    -0.241 C  
ATOM      6  O   ASP A   1      -8.554  15.486  69.598  1.00  0.00    -0.246 OA 
ATOM      7  OXT ASP A   1     -10.512  16.578  69.215  1.00  0.00    -0.285 OA 
ENDROOT
BRANCH   2   8
ATOM      8  CB  ASP A   1     -11.580  14.259  67.964  1.00  0.00    -0.364 C  
ATOM      9  CG  ASP A   1     -12.020  13.068  68.774  1.00  0.00    -0.266 C  
ATOM     10  OD2 ASP A   1     -12.283  13.133  69.966  1.00  0.00    -0.306 OA 
ATOM     11  OD1 ASP A   1     -12.110  11.916  68.076  1.00  0.00    -0.541 OA 
ENDBRANCH   2   8
TORSDOF 1
ENDMDL
MODEL       94
REMARK 921   NORMALIZED FREE ENERGY PREDICTED BY IDOCK:   -2.97 KCAL/MOL
REMARK 922        TOTAL FREE ENERGY PREDICTED BY IDOCK:   -3.39 KCAL/MOL
REMARK 923 INTER-LIGAND FREE ENERGY PREDICTED BY IDOCK:   -2.87 KCAL/MOL
REMARK 924 INTRA-LIGAND FREE ENERGY PREDICTED BY IDOCK:   -0.52 KCAL/MOL
REMARK 927      BINDING AFFINITY PREDICTED BY RF-SCORE:    0.00 PKD
ROOT
ATOM      1  N   ASP A   1      -8.854  15.036  68.236  1.00  0.00    -0.167 NA 
ATOM      2  CA  ASP A   1      -9.587  14.718  66.974  1.00  0.00    -0.241 C  
ATOM      3  H1  ASP A   1      -7.875  15.260  68.057  1.00  0.00     0.000 HD 
ATOM      4  H2  ASP A   1      -8.944  14.283  68.919  1.00  0.00     0.000 HD 
ATOM      5  C   ASP A   1      -9.485  15.959  66.077  1.00  0.00    -0.354 C  
ATOM      6  O   ASP A   1      -8.341  16.648  66.307  1.00  0.00    -0.290 OA 
ATOM      7  OXT ASP A   1     -10.343  16.315  65.279  1.00  0.00    -0.552 OA 
ENDROOT
BRANCH   2   8
ATOM      8  CB  ASP A   1     -11.048  14.383  67.241  1.00  0.00    -0.318 C  
ATOM      9  CG  ASP A   1     -11.440  14.740  68.651  1.00  0.00    -0.302 C  
ATOM     10  OD2 ASP A   1     -11.820  15.855  68.974  1.00  0.00    -0.389 OA 
ATOM     11  OD1 ASP A   1     -11.345  13.724  69.535  1.00  0.00    -0.260 OA 
ENDBRANCH   2   8
TORSDOF 1
ENDMDL
MODEL       95
REMARK 921   NORMALIZED FREE ENERGY PREDICTED BY IDOCK:   -2.96 KCAL/MOL
REMARK 922        TOTAL FREE ENERGY PREDICTED BY IDOCK:   -3.38 KCAL/MOL
REMARK 923 INTER-LIGAND FREE ENERGY PREDICTED BY IDOCK:   -3.10 KCAL/MOL
REMARK 924 INTRA-LIGAND FREE ENERGY PREDICTED BY IDOCK:   -0.28 KCAL/MOL
REMARK 927      BINDING AFFINITY PREDICTED BY RF-SCORE:    0.00 PKD
ROOT
ATOM      1  N   ASP A   1     -12.345  14.147  68.202  1.00  0.00    -0.538 NA 
ATOM      2  CA  ASP A   1     -11.042  14.871  68.279  1.00  0.00    -0.282 C  
ATOM      3  H1  ASP A   1     -12.564  13.671  69.077  1.00  0.00     0.000 HD 
ATOM      4  H2  ASP A   1     -12.366  13.501  67.413  1.00  0.00     0.000 HD 
ATOM      5  C   ASP A   1     -11.168  15.892  69.417  1.00  0.00    -0.336 C  
ATOM      6  O   ASP A   1     -12.020  15.463  70.380  1.00  0.00    -0.300 OA 
ATOM      7  OXT ASP A   1     -10.606  16.980  69.445  1.00  0.00    -0.335 OA 
ENDROOT
BRANCH   2   8
ATOM      8  CB  ASP A   1     -10.714  15.581  66.972  1.00  0.00    -0.321 C  
ATOM      9  CG  ASP A   1     -11.004  14.699  65.786  1.00  0.00    -0.330 C  
ATOM     10  OD2 ASP A   1     -12.106  14.625  65.264  1.00  0.00    -0.347 OA 
ATOM     11  OD1 ASP A   1      -9.942  13.997  65.335  1.00  0.00    -0.316 OA 
ENDBRANCH   2   8
TORSDOF 1
ENDMDL
MODEL       96
REMARK 921   NORMALIZED FREE ENERGY PREDICTED BY IDOCK:   -2.96 KCAL/MOL
REMARK 922        TOTAL FREE ENERGY PREDICTED BY IDOCK:   -3.38 KCAL/MOL
REMARK 923 INTER-LIGAND FREE ENERGY PREDICTED BY IDOCK:   -3.02 KCAL/MOL
REMARK 924 INTRA-LIGAND FREE ENERGY PREDICTED BY IDOCK:   -0.36 KCAL/MOL
REMARK 927      BINDING AFFINITY PREDICTED BY RF-SCORE:    0.00 PKD
ROOT
ATOM      1  N   ASP A   1      -9.650  10.670  65.774  1.00  0.00    -0.198 NA 
ATOM      2  CA  ASP A   1     -10.392  11.619  66.656  1.00  0.00    -0.222 C  
ATOM      3  H1  ASP A   1      -8.954  10.138  66.295  1.00  0.00     0.000 HD 
ATOM      4  H2  ASP A   1      -9.231  11.152  64.979  1.00  0.00     0.000 HD 
ATOM      5  C   ASP A   1     -11.076  10.776  67.740  1.00  0.00    -0.318 C  
ATOM      6  O   ASP A   1     -10.371   9.651  68.016  1.00  0.00    -0.193 OA 
ATOM      7  OXT ASP A   1     -12.146  11.052  68.269  1.00  0.00    -0.604 OA 
ENDROOT
BRANCH   2   8
ATOM      8  CB  ASP A   1     -11.432  12.415  65.879  1.00  0.00    -0.422 C  
ATOM      9  CG  ASP A   1     -11.135  12.402  64.402  1.00  0.00    -0.333 C  
ATOM     10  OD2 ASP A   1     -11.514  11.513  63.655  1.00  0.00    -0.412 OA 
ATOM     11  OD1 ASP A   1     -10.419  13.460  63.964  1.00  0.00    -0.323 OA 
ENDBRANCH   2   8
TORSDOF 1
ENDMDL
MODEL       97
REMARK 921   NORMALIZED FREE ENERGY PREDICTED BY IDOCK:   -2.96 KCAL/MOL
REMARK 922        TOTAL FREE ENERGY PREDICTED BY IDOCK:   -3.38 KCAL/MOL
REMARK 923 INTER-LIGAND FREE ENERGY PREDICTED BY IDOCK:   -3.20 KCAL/MOL
REMARK 924 INTRA-LIGAND FREE ENERGY PREDICTED BY IDOCK:   -0.18 KCAL/MOL
REMARK 927      BINDING AFFINITY PREDICTED BY RF-SCORE:    0.00 PKD
ROOT
ATOM      1  N   ASP A   1     -12.129  16.203  71.481  1.00  0.00    -0.616 NA 
ATOM      2  CA  ASP A   1     -12.102  15.421  70.209  1.00  0.00    -0.369 C  
ATOM      3  H1  ASP A   1     -13.041  16.151  71.936  1.00  0.00     0.000 HD 
ATOM      4  H2  ASP A   1     -11.844  17.170  71.329  1.00  0.00     0.000 HD 
ATOM      5  C   ASP A   1     -12.427  13.967  70.575  1.00  0.00    -0.352 C  
ATOM      6  O   ASP A   1     -13.234  13.895  71.661  1.00  0.00    -0.338 OA 
ATOM      7  OXT ASP A   1     -11.986  12.984  69.992  1.00  0.00    -0.330 OA 
ENDROOT
BRANCH   2   8
ATOM      8  CB  ASP A   1     -10.741  15.498  69.530  1.00  0.00    -0.272 C  
ATOM      9  CG  ASP A   1     -10.585  16.789  68.769  1.00  0.00    -0.348 C  
ATOM     10  OD2 ASP A   1     -10.188  17.822  69.286  1.00  0.00    -0.312 OA 
ATOM     11  OD1 ASP A   1     -10.911  16.713  67.461  1.00  0.00    -0.266 OA 
ENDBRANCH   2   8
TORSDOF 1
ENDMDL
MODEL       98
REMARK 921   NORMALIZED FREE ENERGY PREDICTED BY IDOCK:   -2.95 KCAL/MOL
REMARK 922        TOTAL FREE ENERGY PREDICTED BY IDOCK:   -3.37 KCAL/MOL
REMARK 923 INTER-LIGAND FREE ENERGY PREDICTED BY IDOCK:   -2.86 KCAL/MOL
REMARK 924 INTRA-LIGAND FREE ENERGY PREDICTED BY IDOCK:   -0.51 KCAL/MOL
REMARK 927      BINDING AFFINITY PREDICTED BY RF-SCORE:    0.00 PKD
ROOT
ATOM      1  N   ASP A   1      -9.865  12.683  65.224  1.00  0.00    -0.448 NA 
ATOM      2  CA  ASP A   1      -9.276  11.499  65.917  1.00  0.00    -0.210 C  
ATOM      3  H1  ASP A   1      -9.602  12.713  64.239  1.00  0.00     0.000 HD 
ATOM      4  H2  ASP A   1      -9.621  13.552  65.700  1.00  0.00     0.000 HD 
ATOM      5  C   ASP A   1      -9.805  10.253  65.192  1.00  0.00    -0.321 C  
ATOM      6  O   ASP A   1     -10.048  10.504  63.882  1.00  0.00    -0.327 OA 
ATOM      7  OXT ASP A   1     -10.022   9.173  65.727  1.00  0.00    -0.277 OA 
ENDROOT
BRANCH   2   8
ATOM      8  CB  ASP A   1      -9.669  11.454  67.387  1.00  0.00    -0.196 C  
ATOM      9  CG  ASP A   1     -10.913  12.263  67.644  1.00  0.00    -0.244 C  
ATOM     10  OD2 ASP A   1     -12.040  11.811  67.512  1.00  0.00    -0.599 OA 
ATOM     11  OD1 ASP A   1     -10.685  13.534  68.041  1.00  0.00    -0.240 OA 
ENDBRANCH   2   8
TORSDOF 1
ENDMDL
MODEL       99
REMARK 921   NORMALIZED FREE ENERGY PREDICTED BY IDOCK:   -2.95 KCAL/MOL
REMARK 922        TOTAL FREE ENERGY PREDICTED BY IDOCK:   -3.37 KCAL/MOL
REMARK 923 INTER-LIGAND FREE ENERGY PREDICTED BY IDOCK:   -2.85 KCAL/MOL
REMARK 924 INTRA-LIGAND FREE ENERGY PREDICTED BY IDOCK:   -0.52 KCAL/MOL
REMARK 927      BINDING AFFINITY PREDICTED BY RF-SCORE:    0.00 PKD
ROOT
ATOM      1  N   ASP A   1     -10.074  17.779  68.797  1.00  0.00    -0.375 NA 
ATOM      2  CA  ASP A   1      -9.537  19.171  68.864  1.00  0.00    -0.390 C  
ATOM      3  H1  ASP A   1     -11.092  17.764  68.871  1.00  0.00     0.000 HD 
ATOM      4  H2  ASP A   1      -9.641  17.179  69.498  1.00  0.00     0.000 HD 
ATOM      5  C   ASP A   1     -10.163  19.945  67.697  1.00  0.00    -0.425 C  
ATOM      6  O   ASP A   1     -11.391  19.466  67.382  1.00  0.00    -0.195 OA 
ATOM      7  OXT ASP A   1      -9.615  20.857  67.090  1.00  0.00    -0.414 OA 
ENDROOT
BRANCH   2   8
ATOM      8  CB  ASP A   1      -8.019  19.195  68.755  1.00  0.00    -0.382 C  
ATOM      9  CG  ASP A   1      -7.481  17.847  68.352  1.00  0.00    -0.272 C  
ATOM     10  OD2 ASP A   1      -7.383  17.489  67.188  1.00  0.00    -0.176 OA 
ATOM     11  OD1 ASP A   1      -7.106  17.061  69.385  1.00  0.00    -0.225 OA 
ENDBRANCH   2   8
TORSDOF 1
ENDMDL
MODEL      100
REMARK 921   NORMALIZED FREE ENERGY PREDICTED BY IDOCK:   -2.95 KCAL/MOL
REMARK 922        TOTAL FREE ENERGY PREDICTED BY IDOCK:   -3.37 KCAL/MOL
REMARK 923 INTER-LIGAND FREE ENERGY PREDICTED BY IDOCK:   -2.86 KCAL/MOL
REMARK 924 INTRA-LIGAND FREE ENERGY PREDICTED BY IDOCK:   -0.51 KCAL/MOL
REMARK 927      BINDING AFFINITY PREDICTED BY RF-SCORE:    0.00 PKD
ROOT
ATOM      1  N   ASP A   1     -12.347  14.289  68.278  1.00  0.00    -0.580 NA 
ATOM      2  CA  ASP A   1     -11.330  14.202  69.369  1.00  0.00    -0.272 C  
ATOM      3  H1  ASP A   1     -13.271  14.001  68.600  1.00  0.00     0.000 HD 
ATOM      4  H2  ASP A   1     -12.057  13.758  67.456  1.00  0.00     0.000 HD 
ATOM      5  C   ASP A   1     -11.808  15.127  70.495  1.00  0.00    -0.318 C  
ATOM      6  O   ASP A   1     -13.160  15.217  70.527  1.00  0.00    -0.367 OA 
ATOM      7  OXT ASP A   1     -11.070  15.745  71.252  1.00  0.00    -0.328 OA 
ENDROOT
BRANCH   2   8
ATOM      8  CB  ASP A   1      -9.951  14.631  68.888  1.00  0.00    -0.228 C  
ATOM      9  CG  ASP A   1     -10.047  15.495  67.658  1.00  0.00    -0.243 C  
ATOM     10  OD2 ASP A   1     -10.212  16.704  67.705  1.00  0.00    -0.269 OA 
ATOM     11  OD1 ASP A   1      -9.927  14.825  66.491  1.00  0.00    -0.253 OA 
ENDBRANCH   2   8
TORSDOF 1
ENDMDL
MODEL      101
REMARK 921   NORMALIZED FREE ENERGY PREDICTED BY IDOCK:   -2.94 KCAL/MOL
REMARK 922        TOTAL FREE ENERGY PREDICTED BY IDOCK:   -3.36 KCAL/MOL
REMARK 923 INTER-LIGAND FREE ENERGY PREDICTED BY IDOCK:   -3.22 KCAL/MOL
REMARK 924 INTRA-LIGAND FREE ENERGY PREDICTED BY IDOCK:   -0.13 KCAL/MOL
REMARK 927      BINDING AFFINITY PREDICTED BY RF-SCORE:    0.00 PKD
ROOT
ATOM      1  N   ASP A   1     -12.124  13.016  70.692  1.00  0.00    -0.508 NA 
ATOM      2  CA  ASP A   1     -11.545  11.917  69.863  1.00  0.00    -0.256 C  
ATOM      3  H1  ASP A   1     -11.719  13.922  70.453  1.00  0.00     0.000 HD 
ATOM      4  H2  ASP A   1     -12.032  12.820  71.688  1.00  0.00     0.000 HD 
ATOM      5  C   ASP A   1     -11.847  12.259  68.398  1.00  0.00    -0.304 C  
ATOM      6  O   ASP A   1     -11.911  13.599  68.202  1.00  0.00    -0.362 OA 
ATOM      7  OXT ASP A   1     -12.047  11.434  67.515  1.00  0.00    -0.592 OA 
ENDROOT
BRANCH   2   8
ATOM      8  CB  ASP A   1     -12.148  10.566  70.220  1.00  0.00    -0.402 C  
ATOM      9  CG  ASP A   1     -11.077   9.523  70.408  1.00  0.00    -0.277 C  
ATOM     10  OD2 ASP A   1     -10.498   9.346  71.468  1.00  0.00    -0.337 OA 
ATOM     11  OD1 ASP A   1     -10.810   8.789  69.306  1.00  0.00    -0.187 OA 
ENDBRANCH   2   8
TORSDOF 1
ENDMDL
MODEL      102
REMARK 921   NORMALIZED FREE ENERGY PREDICTED BY IDOCK:   -2.93 KCAL/MOL
REMARK 922        TOTAL FREE ENERGY PREDICTED BY IDOCK:   -3.35 KCAL/MOL
REMARK 923 INTER-LIGAND FREE ENERGY PREDICTED BY IDOCK:   -3.24 KCAL/MOL
REMARK 924 INTRA-LIGAND FREE ENERGY PREDICTED BY IDOCK:   -0.11 KCAL/MOL
REMARK 927      BINDING AFFINITY PREDICTED BY RF-SCORE:    0.00 PKD
ROOT
ATOM      1  N   ASP A   1      -9.265   9.478  65.736  1.00  0.00    -0.194 NA 
ATOM      2  CA  ASP A   1     -10.226  10.443  65.124  1.00  0.00    -0.256 C  
ATOM      3  H1  ASP A   1      -9.226   8.603  65.215  1.00  0.00     0.000 HD 
ATOM      4  H2  ASP A   1      -9.477   9.316  66.721  1.00  0.00     0.000 HD 
ATOM      5  C   ASP A   1      -9.741  10.704  63.691  1.00  0.00    -0.330 C  
ATOM      6  O   ASP A   1      -9.094   9.628  63.181  1.00  0.00    -0.259 OA 
ATOM      7  OXT ASP A   1      -9.880  11.761  63.088  1.00  0.00    -0.409 OA 
ENDROOT
BRANCH   2   8
ATOM      8  CB  ASP A   1     -10.284  11.751  65.903  1.00  0.00    -0.272 C  
ATOM      9  CG  ASP A   1     -11.651  11.970  66.497  1.00  0.00    -0.314 C  
ATOM     10  OD2 ASP A   1     -11.987  11.516  67.579  1.00  0.00    -0.629 OA 
ATOM     11  OD1 ASP A   1     -12.479  12.720  65.738  1.00  0.00    -0.579 OA 
ENDBRANCH   2   8
TORSDOF 1
ENDMDL
MODEL      103
REMARK 921   NORMALIZED FREE ENERGY PREDICTED BY IDOCK:   -2.93 KCAL/MOL
REMARK 922        TOTAL FREE ENERGY PREDICTED BY IDOCK:   -3.35 KCAL/MOL
REMARK 923 INTER-LIGAND FREE ENERGY PREDICTED BY IDOCK:   -3.22 KCAL/MOL
REMARK 924 INTRA-LIGAND FREE ENERGY PREDICTED BY IDOCK:   -0.13 KCAL/MOL
REMARK 927      BINDING AFFINITY PREDICTED BY RF-SCORE:    0.00 PKD
ROOT
ATOM      1  N   ASP A   1     -11.968  12.090  68.066  1.00  0.00    -0.521 NA 
ATOM      2  CA  ASP A   1     -11.985  13.583  68.040  1.00  0.00    -0.337 C  
ATOM      3  H1  ASP A   1     -12.806  11.696  67.639  1.00  0.00     0.000 HD 
ATOM      4  H2  ASP A   1     -11.831  11.735  69.012  1.00  0.00     0.000 HD 
ATOM      5  C   ASP A   1     -12.072  14.000  66.566  1.00  0.00    -0.459 C  
ATOM      6  O   ASP A   1     -12.733  13.077  65.825  1.00  0.00    -0.476 OA 
ATOM      7  OXT ASP A   1     -11.577  15.018  66.098  1.00  0.00    -0.286 OA 
ENDROOT
BRANCH   2   8
ATOM      8  CB  ASP A   1     -10.734  14.171  68.678  1.00  0.00    -0.263 C  
ATOM      9  CG  ASP A   1     -11.083  15.248  69.671  1.00  0.00    -0.276 C  
ATOM     10  OD2 ASP A   1     -11.354  15.015  70.839  1.00  0.00    -0.287 OA 
ATOM     11  OD1 ASP A   1     -11.067  16.502  69.169  1.00  0.00    -0.311 OA 
ENDBRANCH   2   8
TORSDOF 1
ENDMDL
MODEL      104
REMARK 921   NORMALIZED FREE ENERGY PREDICTED BY IDOCK:   -2.93 KCAL/MOL
REMARK 922        TOTAL FREE ENERGY PREDICTED BY IDOCK:   -3.35 KCAL/MOL
REMARK 923 INTER-LIGAND FREE ENERGY PREDICTED BY IDOCK:   -3.21 KCAL/MOL
REMARK 924 INTRA-LIGAND FREE ENERGY PREDICTED BY IDOCK:   -0.13 KCAL/MOL
REMARK 927      BINDING AFFINITY PREDICTED BY RF-SCORE:    0.00 PKD
ROOT
ATOM      1  N   ASP A   1     -13.329   7.840  72.309  1.00  0.00    -0.510 NA 
ATOM      2  CA  ASP A   1     -12.024   8.558  72.428  1.00  0.00    -0.364 C  
ATOM      3  H1  ASP A   1     -14.116   8.452  72.523  1.00  0.00     0.000 HD 
ATOM      4  H2  ASP A   1     -13.344   6.998  72.884  1.00  0.00     0.000 HD 
ATOM      5  C   ASP A   1     -12.069   9.728  71.436  1.00  0.00    -0.400 C  
ATOM      6  O   ASP A   1     -13.334  10.179  71.254  1.00  0.00    -0.368 OA 
ATOM      7  OXT ASP A   1     -11.096  10.180  70.845  1.00  0.00    -0.338 OA 
ENDROOT
BRANCH   2   8
ATOM      8  CB  ASP A   1     -10.848   7.645  72.109  1.00  0.00    -0.293 C  
ATOM      9  CG  ASP A   1      -9.778   7.748  73.164  1.00  0.00    -0.285 C  
ATOM     10  OD2 ASP A   1      -9.787   7.083  74.189  1.00  0.00    -0.287 OA 
ATOM     11  OD1 ASP A   1      -8.795   8.631  72.883  1.00  0.00    -0.367 OA 
ENDBRANCH   2   8
TORSDOF 1
ENDMDL
MODEL      105
REMARK 921   NORMALIZED FREE ENERGY PREDICTED BY IDOCK:   -2.92 KCAL/MOL
REMARK 922        TOTAL FREE ENERGY PREDICTED BY IDOCK:   -3.34 KCAL/MOL
REMARK 923 INTER-LIGAND FREE ENERGY PREDICTED BY IDOCK:   -3.05 KCAL/MOL
REMARK 924 INTRA-LIGAND FREE ENERGY PREDICTED BY IDOCK:   -0.28 KCAL/MOL
REMARK 927      BINDING AFFINITY PREDICTED BY RF-SCORE:    0.00 PKD
ROOT
ATOM      1  N   ASP A   1     -10.322  15.911  65.967  1.00  0.00    -0.329 NA 
ATOM      2  CA  ASP A   1     -11.145  15.807  67.209  1.00  0.00    -0.211 C  
ATOM      3  H1  ASP A   1      -9.873  16.824  65.888  1.00  0.00     0.000 HD 
ATOM      4  H2  ASP A   1     -10.872  15.694  65.137  1.00  0.00     0.000 HD 
ATOM      5  C   ASP A   1     -10.194  16.032  68.392  1.00  0.00    -0.236 C  
ATOM      6  O   ASP A   1      -9.166  16.849  68.057  1.00  0.00    -0.226 OA 
ATOM      7  OXT ASP A   1     -10.315  15.512  69.494  1.00  0.00    -0.234 OA 
ENDROOT
BRANCH   2   8
ATOM      8  CB  ASP A   1     -11.815  14.445  67.328  1.00  0.00    -0.434 C  
ATOM      9  CG  ASP A   1     -12.147  13.881  65.971  1.00  0.00    -0.437 C  
ATOM     10  OD2 ASP A   1     -11.352  13.235  65.305  1.00  0.00    -0.292 OA 
ATOM     11  OD1 ASP A   1     -13.403  14.140  65.547  1.00  0.00    -0.656 OA 
ENDBRANCH   2   8
TORSDOF 1
ENDMDL
MODEL      106
REMARK 921   NORMALIZED FREE ENERGY PREDICTED BY IDOCK:   -2.91 KCAL/MOL
REMARK 922        TOTAL FREE ENERGY PREDICTED BY IDOCK:   -3.33 KCAL/MOL
REMARK 923 INTER-LIGAND FREE ENERGY PREDICTED BY IDOCK:   -2.81 KCAL/MOL
REMARK 924 INTRA-LIGAND FREE ENERGY PREDICTED BY IDOCK:   -0.51 KCAL/MOL
REMARK 927      BINDING AFFINITY PREDICTED BY RF-SCORE:    0.00 PKD
ROOT
ATOM      1  N   ASP A   1     -12.001  12.105  65.581  1.00  0.00    -0.523 NA 
ATOM      2  CA  ASP A   1     -10.913  12.923  66.196  1.00  0.00    -0.281 C  
ATOM      3  H1  ASP A   1     -12.900  12.584  65.620  1.00  0.00     0.000 HD 
ATOM      4  H2  ASP A   1     -12.054  11.178  66.003  1.00  0.00     0.000 HD 
ATOM      5  C   ASP A   1     -10.845  14.237  65.407  1.00  0.00    -0.342 C  
ATOM      6  O   ASP A   1     -12.056  14.579  64.903  1.00  0.00    -0.402 OA 
ATOM      7  OXT ASP A   1      -9.823  14.884  65.215  1.00  0.00    -0.327 OA 
ENDROOT
BRANCH   2   8
ATOM      8  CB  ASP A   1      -9.570  12.207  66.138  1.00  0.00    -0.250 C  
ATOM      9  CG  ASP A   1      -9.660  10.946  65.320  1.00  0.00    -0.229 C  
ATOM     10  OD2 ASP A   1      -9.522  10.928  64.107  1.00  0.00    -0.224 OA 
ATOM     11  OD1 ASP A   1      -9.899   9.827  66.038  1.00  0.00    -0.236 OA 
ENDBRANCH   2   8
TORSDOF 1
ENDMDL
MODEL      107
REMARK 921   NORMALIZED FREE ENERGY PREDICTED BY IDOCK:   -2.89 KCAL/MOL
REMARK 922        TOTAL FREE ENERGY PREDICTED BY IDOCK:   -3.31 KCAL/MOL
REMARK 923 INTER-LIGAND FREE ENERGY PREDICTED BY IDOCK:   -2.79 KCAL/MOL
REMARK 924 INTRA-LIGAND FREE ENERGY PREDICTED BY IDOCK:   -0.52 KCAL/MOL
REMARK 927      BINDING AFFINITY PREDICTED BY RF-SCORE:    0.00 PKD
ROOT
ATOM      1  N   ASP A   1     -11.789   7.425  73.043  1.00  0.00    -0.548 NA 
ATOM      2  CA  ASP A   1     -11.901   6.841  71.673  1.00  0.00    -0.326 C  
ATOM      3  H1  ASP A   1     -12.088   6.765  73.760  1.00  0.00     0.000 HD 
ATOM      4  H2  ASP A   1     -12.296   8.307  73.114  1.00  0.00     0.000 HD 
ATOM      5  C   ASP A   1     -11.008   5.594  71.648  1.00  0.00    -0.211 C  
ATOM      6  O   ASP A   1     -10.924   5.016  72.871  1.00  0.00    -0.242 OA 
ATOM      7  OXT ASP A   1     -10.408   5.184  70.662  1.00  0.00    -0.249 OA 
ENDROOT
BRANCH   2   8
ATOM      8  CB  ASP A   1     -11.455   7.826  70.602  1.00  0.00    -0.259 C  
ATOM      9  CG  ASP A   1     -10.779   9.026  71.213  1.00  0.00    -0.309 C  
ATOM     10  OD2 ASP A   1      -9.588   9.053  71.484  1.00  0.00    -0.282 OA 
ATOM     11  OD1 ASP A   1     -11.595  10.079  71.433  1.00  0.00    -0.368 OA 
ENDBRANCH   2   8
TORSDOF 1
ENDMDL
MODEL      108
REMARK 921   NORMALIZED FREE ENERGY PREDICTED BY IDOCK:   -2.89 KCAL/MOL
REMARK 922        TOTAL FREE ENERGY PREDICTED BY IDOCK:   -3.31 KCAL/MOL
REMARK 923 INTER-LIGAND FREE ENERGY PREDICTED BY IDOCK:   -2.80 KCAL/MOL
REMARK 924 INTRA-LIGAND FREE ENERGY PREDICTED BY IDOCK:   -0.51 KCAL/MOL
REMARK 927      BINDING AFFINITY PREDICTED BY RF-SCORE:    0.00 PKD
ROOT
ATOM      1  N   ASP A   1     -12.040   6.955  69.986  1.00  0.00    -0.637 NA 
ATOM      2  CA  ASP A   1     -10.713   7.628  69.862  1.00  0.00    -0.249 C  
ATOM      3  H1  ASP A   1     -12.142   6.196  69.312  1.00  0.00     0.000 HD 
ATOM      4  H2  ASP A   1     -12.805   7.625  69.910  1.00  0.00     0.000 HD 
ATOM      5  C   ASP A   1      -9.646   6.553  70.112  1.00  0.00    -0.160 C  
ATOM      6  O   ASP A   1     -10.075   5.326  69.728  1.00  0.00    -0.217 OA 
ATOM      7  OXT ASP A   1      -8.555   6.759  70.629  1.00  0.00    -0.139 OA 
ENDROOT
BRANCH   2   8
ATOM      8  CB  ASP A   1     -10.560   8.760  70.868  1.00  0.00    -0.276 C  
ATOM      9  CG  ASP A   1     -11.516   8.598  72.020  1.00  0.00    -0.367 C  
ATOM     10  OD2 ASP A   1     -11.262   7.925  73.007  1.00  0.00    -0.411 OA 
ATOM     11  OD1 ASP A   1     -12.682   9.266  71.881  1.00  0.00    -0.340 OA 
ENDBRANCH   2   8
TORSDOF 1
ENDMDL
MODEL      109
REMARK 921   NORMALIZED FREE ENERGY PREDICTED BY IDOCK:   -2.88 KCAL/MOL
REMARK 922        TOTAL FREE ENERGY PREDICTED BY IDOCK:   -3.30 KCAL/MOL
REMARK 923 INTER-LIGAND FREE ENERGY PREDICTED BY IDOCK:   -3.17 KCAL/MOL
REMARK 924 INTRA-LIGAND FREE ENERGY PREDICTED BY IDOCK:   -0.13 KCAL/MOL
REMARK 927      BINDING AFFINITY PREDICTED BY RF-SCORE:    0.00 PKD
ROOT
ATOM      1  N   ASP A   1     -10.564  16.433  64.742  1.00  0.00    -0.715 NA 
ATOM      2  CA  ASP A   1     -10.342  15.959  66.140  1.00  0.00    -0.328 C  
ATOM      3  H1  ASP A   1     -10.680  17.446  64.701  1.00  0.00     0.000 HD 
ATOM      4  H2  ASP A   1     -11.351  15.952  64.306  1.00  0.00     0.000 HD 
ATOM      5  C   ASP A   1      -9.072  16.655  66.648  1.00  0.00    -0.250 C  
ATOM      6  O   ASP A   1      -8.905  17.869  66.070  1.00  0.00    -0.492 OA 
ATOM      7  OXT ASP A   1      -8.281  16.168  67.446  1.00  0.00    -0.150 OA 
ENDROOT
BRANCH   2   8
ATOM      8  CB  ASP A   1     -10.170  14.447  66.200  1.00  0.00    -0.317 C  
ATOM      9  CG  ASP A   1     -11.046  13.841  67.264  1.00  0.00    -0.304 C  
ATOM     10  OD2 ASP A   1     -12.209  13.523  67.068  1.00  0.00    -0.372 OA 
ATOM     11  OD1 ASP A   1     -10.441  13.668  68.460  1.00  0.00    -0.237 OA 
ENDBRANCH   2   8
TORSDOF 1
ENDMDL
MODEL      110
REMARK 921   NORMALIZED FREE ENERGY PREDICTED BY IDOCK:   -2.84 KCAL/MOL
REMARK 922        TOTAL FREE ENERGY PREDICTED BY IDOCK:   -3.25 KCAL/MOL
REMARK 923 INTER-LIGAND FREE ENERGY PREDICTED BY IDOCK:   -3.16 KCAL/MOL
REMARK 924 INTRA-LIGAND FREE ENERGY PREDICTED BY IDOCK:   -0.09 KCAL/MOL
REMARK 927      BINDING AFFINITY PREDICTED BY RF-SCORE:    0.00 PKD
ROOT
ATOM      1  N   ASP A   1     -10.436  19.834  68.563  1.00  0.00    -0.513 NA 
ATOM      2  CA  ASP A   1      -9.691  18.728  67.891  1.00  0.00    -0.329 C  
ATOM      3  H1  ASP A   1      -9.808  20.461  69.066  1.00  0.00     0.000 HD 
ATOM      4  H2  ASP A   1     -11.168  19.473  69.173  1.00  0.00     0.000 HD 
ATOM      5  C   ASP A   1      -8.706  19.386  66.914  1.00  0.00    -0.303 C  
ATOM      6  O   ASP A   1      -8.310  20.606  67.352  1.00  0.00    -0.334 OA 
ATOM      7  OXT ASP A   1      -8.347  18.897  65.850  1.00  0.00    -0.483 OA 
ENDROOT
BRANCH   2   8
ATOM      8  CB  ASP A   1     -10.628  17.793  67.139  1.00  0.00    -0.292 C  
ATOM      9  CG  ASP A   1     -10.780  16.480  67.860  1.00  0.00    -0.337 C  
ATOM     10  OD2 ASP A   1     -11.598  16.298  68.749  1.00  0.00    -0.342 OA 
ATOM     11  OD1 ASP A   1      -9.941  15.508  67.440  1.00  0.00    -0.231 OA 
ENDBRANCH   2   8
TORSDOF 1
ENDMDL
MODEL      111
REMARK 921   NORMALIZED FREE ENERGY PREDICTED BY IDOCK:   -2.84 KCAL/MOL
REMARK 922        TOTAL FREE ENERGY PREDICTED BY IDOCK:   -3.25 KCAL/MOL
REMARK 923 INTER-LIGAND FREE ENERGY PREDICTED BY IDOCK:   -3.03 KCAL/MOL
REMARK 924 INTRA-LIGAND FREE ENERGY PREDICTED BY IDOCK:   -0.22 KCAL/MOL
REMARK 927      BINDING AFFINITY PREDICTED BY RF-SCORE:    0.00 PKD
ROOT
ATOM      1  N   ASP A   1     -11.346   7.913  69.602  1.00  0.00    -0.444 NA 
ATOM      2  CA  ASP A   1     -10.896   9.082  70.415  1.00  0.00    -0.246 C  
ATOM      3  H1  ASP A   1     -10.888   7.889  68.691  1.00  0.00     0.000 HD 
ATOM      4  H2  ASP A   1     -12.362   7.895  69.507  1.00  0.00     0.000 HD 
ATOM      5  C   ASP A   1      -9.378   8.941  70.592  1.00  0.00    -0.212 C  
ATOM      6  O   ASP A   1      -8.811   8.301  69.540  1.00  0.00    -0.146 OA 
ATOM      7  OXT ASP A   1      -8.752   9.319  71.574  1.00  0.00    -0.323 OA 
ENDROOT
BRANCH   2   8
ATOM      8  CB  ASP A   1     -11.581   9.119  71.774  1.00  0.00    -0.457 C  
ATOM      9  CG  ASP A   1     -13.019   9.546  71.648  1.00  0.00    -0.396 C  
ATOM     10  OD2 ASP A   1     -13.928   8.765  71.409  1.00  0.00    -0.362 OA 
ATOM     11  OD1 ASP A   1     -13.231  10.868  71.828  1.00  0.00    -0.444 OA 
ENDBRANCH   2   8
TORSDOF 1
ENDMDL
MODEL      112
REMARK 921   NORMALIZED FREE ENERGY PREDICTED BY IDOCK:   -2.83 KCAL/MOL
REMARK 922        TOTAL FREE ENERGY PREDICTED BY IDOCK:   -3.24 KCAL/MOL
REMARK 923 INTER-LIGAND FREE ENERGY PREDICTED BY IDOCK:   -2.74 KCAL/MOL
REMARK 924 INTRA-LIGAND FREE ENERGY PREDICTED BY IDOCK:   -0.50 KCAL/MOL
REMARK 927      BINDING AFFINITY PREDICTED BY RF-SCORE:    0.00 PKD
ROOT
ATOM      1  N   ASP A   1     -11.461   7.016  69.386  1.00  0.00    -0.536 NA 
ATOM      2  CA  ASP A   1     -11.777   6.720  70.815  1.00  0.00    -0.386 C  
ATOM      3  H1  ASP A   1     -12.119   7.683  68.984  1.00  0.00     0.000 HD 
ATOM      4  H2  ASP A   1     -11.413   6.161  68.831  1.00  0.00     0.000 HD 
ATOM      5  C   ASP A   1     -11.703   8.054  71.571  1.00  0.00    -0.284 C  
ATOM      6  O   ASP A   1     -12.030   9.098  70.772  1.00  0.00    -0.272 OA 
ATOM      7  OXT ASP A   1     -11.355   8.176  72.739  1.00  0.00    -0.397 OA 
ENDROOT
BRANCH   2   8
ATOM      8  CB  ASP A   1     -10.795   5.724  71.415  1.00  0.00    -0.316 C  
ATOM      9  CG  ASP A   1      -9.699   5.384  70.438  1.00  0.00    -0.192 C  
ATOM     10  OD2 ASP A   1      -8.681   6.048  70.322  1.00  0.00    -0.139 OA 
ATOM     11  OD1 ASP A   1      -9.928   4.275  69.701  1.00  0.00    -0.214 OA 
ENDBRANCH   2   8
TORSDOF 1
ENDMDL
MODEL      113
REMARK 921   NORMALIZED FREE ENERGY PREDICTED BY IDOCK:   -2.79 KCAL/MOL
REMARK 922        TOTAL FREE ENERGY PREDICTED BY IDOCK:   -3.20 KCAL/MOL
REMARK 923 INTER-LIGAND FREE ENERGY PREDICTED BY IDOCK:   -2.68 KCAL/MOL
REMARK 924 INTRA-LIGAND FREE ENERGY PREDICTED BY IDOCK:   -0.52 KCAL/MOL
REMARK 927      BINDING AFFINITY PREDICTED BY RF-SCORE:    0.00 PKD
ROOT
ATOM      1  N   ASP A   1     -11.758   8.499  70.225  1.00  0.00    -0.471 NA 
ATOM      2  CA  ASP A   1     -12.007   7.071  70.582  1.00  0.00    -0.313 C  
ATOM      3  H1  ASP A   1     -12.229   9.136  70.867  1.00  0.00     0.000 HD 
ATOM      4  H2  ASP A   1     -12.014   8.691  69.257  1.00  0.00     0.000 HD 
ATOM      5  C   ASP A   1     -11.476   6.871  72.008  1.00  0.00    -0.274 C  
ATOM      6  O   ASP A   1     -11.560   8.011  72.736  1.00  0.00    -0.405 OA 
ATOM      7  OXT ASP A   1     -10.997   5.827  72.434  1.00  0.00    -0.232 OA 
ENDROOT
BRANCH   2   8
ATOM      8  CB  ASP A   1     -11.305   6.120  69.623  1.00  0.00    -0.442 C  
ATOM      9  CG  ASP A   1     -10.274   6.843  68.797  1.00  0.00    -0.174 C  
ATOM     10  OD2 ASP A   1      -9.127   7.027  69.174  1.00  0.00    -0.137 OA 
ATOM     11  OD1 ASP A   1     -10.716   7.268  67.594  1.00  0.00    -0.237 OA 
ENDBRANCH   2   8
TORSDOF 1
ENDMDL
MODEL      114
REMARK 921   NORMALIZED FREE ENERGY PREDICTED BY IDOCK:   -2.79 KCAL/MOL
REMARK 922        TOTAL FREE ENERGY PREDICTED BY IDOCK:   -3.20 KCAL/MOL
REMARK 923 INTER-LIGAND FREE ENERGY PREDICTED BY IDOCK:   -2.93 KCAL/MOL
REMARK 924 INTRA-LIGAND FREE ENERGY PREDICTED BY IDOCK:   -0.27 KCAL/MOL
REMARK 927      BINDING AFFINITY PREDICTED BY RF-SCORE:    0.00 PKD
ROOT
ATOM      1  N   ASP A   1      -8.082  17.848  68.272  1.00  0.00    -0.283 NA 
ATOM      2  CA  ASP A   1      -9.101  18.063  67.202  1.00  0.00    -0.256 C  
ATOM      3  H1  ASP A   1      -7.132  17.904  67.905  1.00  0.00     0.000 HD 
ATOM      4  H2  ASP A   1      -8.239  16.968  68.764  1.00  0.00     0.000 HD 
ATOM      5  C   ASP A   1      -8.843  19.459  66.618  1.00  0.00    -0.339 C  
ATOM      6  O   ASP A   1      -7.533  19.798  66.698  1.00  0.00    -0.237 OA 
ATOM      7  OXT ASP A   1      -9.709  20.199  66.169  1.00  0.00    -0.411 OA 
ENDROOT
BRANCH   2   8
ATOM      8  CB  ASP A   1     -10.519  17.980  67.750  1.00  0.00    -0.421 C  
ATOM      9  CG  ASP A   1     -10.731  16.703  68.521  1.00  0.00    -0.351 C  
ATOM     10  OD2 ASP A   1     -10.455  16.585  69.705  1.00  0.00    -0.301 OA 
ATOM     11  OD1 ASP A   1     -11.259  15.692  67.798  1.00  0.00    -0.329 OA 
ENDBRANCH   2   8
TORSDOF 1
ENDMDL
MODEL      115
REMARK 921   NORMALIZED FREE ENERGY PREDICTED BY IDOCK:   -2.78 KCAL/MOL
REMARK 922        TOTAL FREE ENERGY PREDICTED BY IDOCK:   -3.19 KCAL/MOL
REMARK 923 INTER-LIGAND FREE ENERGY PREDICTED BY IDOCK:   -3.05 KCAL/MOL
REMARK 924 INTRA-LIGAND FREE ENERGY PREDICTED BY IDOCK:   -0.13 KCAL/MOL
REMARK 927      BINDING AFFINITY PREDICTED BY RF-SCORE:    0.00 PKD
ROOT
ATOM      1  N   ASP A   1     -12.495  14.952  70.048  1.00  0.00    -0.505 NA 
ATOM      2  CA  ASP A   1     -12.507  13.555  69.522  1.00  0.00    -0.005 C  
ATOM      3  H1  ASP A   1     -13.338  15.161  70.582  1.00  0.00     0.000 HD 
ATOM      4  H2  ASP A   1     -12.351  15.630  69.299  1.00  0.00     0.000 HD 
ATOM      5  C   ASP A   1     -12.605  12.624  70.738  1.00  0.00    -0.217 C  
ATOM      6  O   ASP A   1     -13.274  13.209  71.761  1.00  0.00    -0.410 OA 
ATOM      7  OXT ASP A   1     -12.110  11.505  70.804  1.00  0.00    -0.364 OA 
ENDROOT
BRANCH   2   8
ATOM      8  CB  ASP A   1     -11.249  13.242  68.724  1.00  0.00    -0.317 C  
ATOM      9  CG  ASP A   1     -11.588  12.652  67.381  1.00  0.00    -0.360 C  
ATOM     10  OD2 ASP A   1     -11.831  13.332  66.396  1.00  0.00    -0.358 OA 
ATOM     11  OD1 ASP A   1     -11.597  11.301  67.346  1.00  0.00    -0.519 OA 
ENDBRANCH   2   8
TORSDOF 1
ENDMDL
MODEL      116
REMARK 921   NORMALIZED FREE ENERGY PREDICTED BY IDOCK:   -2.76 KCAL/MOL
REMARK 922        TOTAL FREE ENERGY PREDICTED BY IDOCK:   -3.17 KCAL/MOL
REMARK 923 INTER-LIGAND FREE ENERGY PREDICTED BY IDOCK:   -2.65 KCAL/MOL
REMARK 924 INTRA-LIGAND FREE ENERGY PREDICTED BY IDOCK:   -0.52 KCAL/MOL
REMARK 927      BINDING AFFINITY PREDICTED BY RF-SCORE:    0.00 PKD
ROOT
ATOM      1  N   ASP A   1      -9.547   5.743  71.639  1.00  0.00    -0.152 NA 
ATOM      2  CA  ASP A   1     -10.878   6.056  72.240  1.00  0.00    -0.245 C  
ATOM      3  H1  ASP A   1      -9.621   5.036  70.907  1.00  0.00     0.000 HD 
ATOM      4  H2  ASP A   1      -8.871   5.471  72.353  1.00  0.00     0.000 HD 
ATOM      5  C   ASP A   1     -11.770   6.567  71.101  1.00  0.00    -0.335 C  
ATOM      6  O   ASP A   1     -11.424   6.016  69.912  1.00  0.00    -0.388 OA 
ATOM      7  OXT ASP A   1     -12.661   7.398  71.230  1.00  0.00    -0.343 OA 
ENDROOT
BRANCH   2   8
ATOM      8  CB  ASP A   1     -10.768   7.111  73.332  1.00  0.00    -0.410 C  
ATOM      9  CG  ASP A   1      -9.441   7.821  73.273  1.00  0.00    -0.283 C  
ATOM     10  OD2 ASP A   1      -9.236   8.791  72.560  1.00  0.00    -0.347 OA 
ATOM     11  OD1 ASP A   1      -8.490   7.302  74.080  1.00  0.00    -0.148 OA 
ENDBRANCH   2   8
TORSDOF 1
ENDMDL
MODEL      117
REMARK 921   NORMALIZED FREE ENERGY PREDICTED BY IDOCK:   -2.75 KCAL/MOL
REMARK 922        TOTAL FREE ENERGY PREDICTED BY IDOCK:   -3.16 KCAL/MOL
REMARK 923 INTER-LIGAND FREE ENERGY PREDICTED BY IDOCK:   -2.64 KCAL/MOL
REMARK 924 INTRA-LIGAND FREE ENERGY PREDICTED BY IDOCK:   -0.52 KCAL/MOL
REMARK 927      BINDING AFFINITY PREDICTED BY RF-SCORE:    0.00 PKD
ROOT
ATOM      1  N   ASP A   1      -8.076  16.144  66.781  1.00  0.00    -0.242 NA 
ATOM      2  CA  ASP A   1      -7.772  17.605  66.847  1.00  0.00    -0.216 C  
ATOM      3  H1  ASP A   1      -7.291  15.581  67.107  1.00  0.00     0.000 HD 
ATOM      4  H2  ASP A   1      -8.370  15.867  65.845  1.00  0.00     0.000 HD 
ATOM      5  C   ASP A   1      -7.463  17.929  68.314  1.00  0.00    -0.260 C  
ATOM      6  O   ASP A   1      -6.922  16.864  68.956  1.00  0.00    -0.202 OA 
ATOM      7  OXT ASP A   1      -7.707  18.997  68.860  1.00  0.00    -0.335 OA 
ENDROOT
BRANCH   2   8
ATOM      8  CB  ASP A   1      -8.944  18.446  66.360  1.00  0.00    -0.260 C  
ATOM      9  CG  ASP A   1     -10.198  17.620  66.246  1.00  0.00    -0.362 C  
ATOM     10  OD2 ASP A   1     -10.956  17.425  67.184  1.00  0.00    -0.151 OA 
ATOM     11  OD1 ASP A   1     -10.426  17.112  65.015  1.00  0.00    -0.611 OA 
ENDBRANCH   2   8
TORSDOF 1
ENDMDL
MODEL      118
REMARK 921   NORMALIZED FREE ENERGY PREDICTED BY IDOCK:   -2.75 KCAL/MOL
REMARK 922        TOTAL FREE ENERGY PREDICTED BY IDOCK:   -3.15 KCAL/MOL
REMARK 923 INTER-LIGAND FREE ENERGY PREDICTED BY IDOCK:   -2.70 KCAL/MOL
REMARK 924 INTRA-LIGAND FREE ENERGY PREDICTED BY IDOCK:   -0.45 KCAL/MOL
REMARK 927      BINDING AFFINITY PREDICTED BY RF-SCORE:    0.00 PKD
ROOT
ATOM      1  N   ASP A   1      -8.404  18.615  67.924  1.00  0.00    -0.267 NA 
ATOM      2  CA  ASP A   1      -8.696  18.513  66.463  1.00  0.00    -0.286 C  
ATOM      3  H1  ASP A   1      -8.231  19.579  68.208  1.00  0.00     0.000 HD 
ATOM      4  H2  ASP A   1      -7.634  18.004  68.193  1.00  0.00     0.000 HD 
ATOM      5  C   ASP A   1      -9.938  19.373  66.197  1.00  0.00    -0.425 C  
ATOM      6  O   ASP A   1     -10.020  20.413  67.063  1.00  0.00    -0.450 OA 
ATOM      7  OXT ASP A   1     -10.780  19.138  65.339  1.00  0.00    -0.503 OA 
ENDROOT
BRANCH   2   8
ATOM      8  CB  ASP A   1      -8.955  17.074  66.039  1.00  0.00    -0.168 C  
ATOM      9  CG  ASP A   1      -8.685  16.117  67.170  1.00  0.00    -0.194 C  
ATOM     10  OD2 ASP A   1      -9.519  15.832  68.016  1.00  0.00    -0.200 OA 
ATOM     11  OD1 ASP A   1      -7.442  15.587  67.174  1.00  0.00    -0.206 OA 
ENDBRANCH   2   8
TORSDOF 1
ENDMDL
MODEL      119
REMARK 921   NORMALIZED FREE ENERGY PREDICTED BY IDOCK:   -2.74 KCAL/MOL
REMARK 922        TOTAL FREE ENERGY PREDICTED BY IDOCK:   -3.15 KCAL/MOL
REMARK 923 INTER-LIGAND FREE ENERGY PREDICTED BY IDOCK:   -3.17 KCAL/MOL
REMARK 924 INTRA-LIGAND FREE ENERGY PREDICTED BY IDOCK:    0.02 KCAL/MOL
REMARK 927      BINDING AFFINITY PREDICTED BY RF-SCORE:    0.00 PKD
ROOT
ATOM      1  N   ASP A   1     -10.611  14.540  65.495  1.00  0.00    -0.328 NA 
ATOM      2  CA  ASP A   1     -10.815  15.722  66.385  1.00  0.00    -0.226 C  
ATOM      3  H1  ASP A   1     -11.293  14.517  64.736  1.00  0.00     0.000 HD 
ATOM      4  H2  ASP A   1     -10.615  13.669  66.025  1.00  0.00     0.000 HD 
ATOM      5  C   ASP A   1     -10.668  16.971  65.506  1.00  0.00    -0.138 C  
ATOM      6  O   ASP A   1     -11.048  16.728  64.227  1.00  0.00    -1.106 OA 
ATOM      7  OXT ASP A   1     -10.226  18.047  65.889  1.00  0.00    -0.540 OA 
ENDROOT
BRANCH   2   8
ATOM      8  CB  ASP A   1      -9.797  15.756  67.517  1.00  0.00    -0.229 C  
ATOM      9  CG  ASP A   1      -8.394  15.594  66.993  1.00  0.00    -0.228 C  
ATOM     10  OD2 ASP A   1      -7.720  16.531  66.595  1.00  0.00    -0.228 OA 
ATOM     11  OD1 ASP A   1      -7.934  14.324  67.004  1.00  0.00    -0.142 OA 
ENDBRANCH   2   8
TORSDOF 1
ENDMDL
MODEL      120
REMARK 921   NORMALIZED FREE ENERGY PREDICTED BY IDOCK:   -2.71 KCAL/MOL
REMARK 922        TOTAL FREE ENERGY PREDICTED BY IDOCK:   -3.12 KCAL/MOL
REMARK 923 INTER-LIGAND FREE ENERGY PREDICTED BY IDOCK:   -2.60 KCAL/MOL
REMARK 924 INTRA-LIGAND FREE ENERGY PREDICTED BY IDOCK:   -0.52 KCAL/MOL
REMARK 927      BINDING AFFINITY PREDICTED BY RF-SCORE:    0.00 PKD
ROOT
ATOM      1  N   ASP A   1     -11.021   8.486  68.109  1.00  0.00    -0.457 NA 
ATOM      2  CA  ASP A   1     -10.241   8.734  69.359  1.00  0.00    -0.210 C  
ATOM      3  H1  ASP A   1     -10.970   7.509  67.820  1.00  0.00     0.000 HD 
ATOM      4  H2  ASP A   1     -10.730   9.112  67.358  1.00  0.00     0.000 HD 
ATOM      5  C   ASP A   1     -10.842   7.831  70.444  1.00  0.00    -0.244 C  
ATOM      6  O   ASP A   1     -11.364   6.697  69.915  1.00  0.00    -0.335 OA 
ATOM      7  OXT ASP A   1     -10.888   8.107  71.636  1.00  0.00    -0.231 OA 
ENDROOT
BRANCH   2   8
ATOM      8  CB  ASP A   1     -10.318  10.192  69.790  1.00  0.00    -0.297 C  
ATOM      9  CG  ASP A   1     -11.454  10.904  69.104  1.00  0.00    -0.303 C  
ATOM     10  OD2 ASP A   1     -12.598  10.902  69.532  1.00  0.00    -0.304 OA 
ATOM     11  OD1 ASP A   1     -11.107  11.557  67.974  1.00  0.00    -0.218 OA 
ENDBRANCH   2   8
TORSDOF 1
ENDMDL
MODEL      121
REMARK 921   NORMALIZED FREE ENERGY PREDICTED BY IDOCK:   -2.71 KCAL/MOL
REMARK 922        TOTAL FREE ENERGY PREDICTED BY IDOCK:   -3.11 KCAL/MOL
REMARK 923 INTER-LIGAND FREE ENERGY PREDICTED BY IDOCK:   -2.60 KCAL/MOL
REMARK 924 INTRA-LIGAND FREE ENERGY PREDICTED BY IDOCK:   -0.51 KCAL/MOL
REMARK 927      BINDING AFFINITY PREDICTED BY RF-SCORE:    0.00 PKD
ROOT
ATOM      1  N   ASP A   1      -9.577  14.545  67.152  1.00  0.00    -0.225 NA 
ATOM      2  CA  ASP A   1     -10.047  14.242  68.537  1.00  0.00    -0.246 C  
ATOM      3  H1  ASP A   1      -9.587  13.715  66.561  1.00  0.00     0.000 HD 
ATOM      4  H2  ASP A   1      -8.657  14.986  67.159  1.00  0.00     0.000 HD 
ATOM      5  C   ASP A   1     -11.477  13.701  68.412  1.00  0.00    -0.311 C  
ATOM      6  O   ASP A   1     -11.665  13.057  67.234  1.00  0.00    -0.340 OA 
ATOM      7  OXT ASP A   1     -12.360  13.859  69.247  1.00  0.00    -0.323 OA 
ENDROOT
BRANCH   2   8
ATOM      8  CB  ASP A   1     -10.032  15.482  69.421  1.00  0.00    -0.277 C  
ATOM      9  CG  ASP A   1      -9.717  16.718  68.620  1.00  0.00    -0.259 C  
ATOM     10  OD2 ASP A   1     -10.569  17.365  68.030  1.00  0.00    -0.371 OA 
ATOM     11  OD1 ASP A   1      -8.411  17.063  68.609  1.00  0.00    -0.250 OA 
ENDBRANCH   2   8
TORSDOF 1
ENDMDL
MODEL      122
REMARK 921   NORMALIZED FREE ENERGY PREDICTED BY IDOCK:   -2.70 KCAL/MOL
REMARK 922        TOTAL FREE ENERGY PREDICTED BY IDOCK:   -3.10 KCAL/MOL
REMARK 923 INTER-LIGAND FREE ENERGY PREDICTED BY IDOCK:   -2.67 KCAL/MOL
REMARK 924 INTRA-LIGAND FREE ENERGY PREDICTED BY IDOCK:   -0.43 KCAL/MOL
REMARK 927      BINDING AFFINITY PREDICTED BY RF-SCORE:    0.00 PKD
ROOT
ATOM      1  N   ASP A   1     -10.227  11.216  63.893  1.00  0.00    -0.330 NA 
ATOM      2  CA  ASP A   1      -9.484  12.070  64.867  1.00  0.00     0.080 C  
ATOM      3  H1  ASP A   1      -9.634  10.482  63.506  1.00  0.00     0.000 HD 
ATOM      4  H2  ASP A   1     -10.655  11.777  63.156  1.00  0.00     0.000 HD 
ATOM      5  C   ASP A   1      -8.993  11.143  65.986  1.00  0.00    -0.200 C  
ATOM      6  O   ASP A   1      -8.765   9.887  65.530  1.00  0.00    -0.139 OA 
ATOM      7  OXT ASP A   1      -8.858  11.473  67.158  1.00  0.00    -0.158 OA 
ENDROOT
BRANCH   2   8
ATOM      8  CB  ASP A   1     -10.370  13.166  65.445  1.00  0.00    -0.313 C  
ATOM      9  CG  ASP A   1     -11.802  12.712  65.545  1.00  0.00    -0.431 C  
ATOM     10  OD2 ASP A   1     -12.241  12.096  66.504  1.00  0.00    -0.584 OA 
ATOM     11  OD1 ASP A   1     -12.573  13.047  64.487  1.00  0.00    -0.598 OA 
ENDBRANCH   2   8
TORSDOF 1
ENDMDL
MODEL      123
REMARK 921   NORMALIZED FREE ENERGY PREDICTED BY IDOCK:   -2.69 KCAL/MOL
REMARK 922        TOTAL FREE ENERGY PREDICTED BY IDOCK:   -3.09 KCAL/MOL
REMARK 923 INTER-LIGAND FREE ENERGY PREDICTED BY IDOCK:   -2.82 KCAL/MOL
REMARK 924 INTRA-LIGAND FREE ENERGY PREDICTED BY IDOCK:   -0.27 KCAL/MOL
REMARK 927      BINDING AFFINITY PREDICTED BY RF-SCORE:    0.00 PKD
ROOT
ATOM      1  N   ASP A   1      -9.090  15.772  69.136  1.00  0.00    -0.246 NA 
ATOM      2  CA  ASP A   1     -10.039  16.372  68.151  1.00  0.00    -0.251 C  
ATOM      3  H1  ASP A   1      -8.124  16.025  68.931  1.00  0.00     0.000 HD 
ATOM      4  H2  ASP A   1      -9.205  14.760  69.193  1.00  0.00     0.000 HD 
ATOM      5  C   ASP A   1      -9.864  17.894  68.238  1.00  0.00    -0.348 C  
ATOM      6  O   ASP A   1      -8.600  18.231  68.594  1.00  0.00    -0.320 OA 
ATOM      7  OXT ASP A   1     -10.756  18.712  68.050  1.00  0.00    -0.343 OA 
ENDROOT
BRANCH   2   8
ATOM      8  CB  ASP A   1     -11.482  15.994  68.457  1.00  0.00    -0.357 C  
ATOM      9  CG  ASP A   1     -11.633  14.503  68.611  1.00  0.00    -0.315 C  
ATOM     10  OD2 ASP A   1     -11.442  13.920  69.668  1.00  0.00    -0.263 OA 
ATOM     11  OD1 ASP A   1     -12.005  13.857  67.486  1.00  0.00    -0.377 OA 
ENDBRANCH   2   8
TORSDOF 1
ENDMDL
MODEL      124
REMARK 921   NORMALIZED FREE ENERGY PREDICTED BY IDOCK:   -2.69 KCAL/MOL
REMARK 922        TOTAL FREE ENERGY PREDICTED BY IDOCK:   -3.09 KCAL/MOL
REMARK 923 INTER-LIGAND FREE ENERGY PREDICTED BY IDOCK:   -2.98 KCAL/MOL
REMARK 924 INTRA-LIGAND FREE ENERGY PREDICTED BY IDOCK:   -0.11 KCAL/MOL
REMARK 927      BINDING AFFINITY PREDICTED BY RF-SCORE:    0.00 PKD
ROOT
ATOM      1  N   ASP A   1     -12.203   7.737  72.749  1.00  0.00    -0.591 NA 
ATOM      2  CA  ASP A   1     -11.745   8.975  72.051  1.00  0.00    -0.347 C  
ATOM      3  H1  ASP A   1     -12.760   7.954  73.575  1.00  0.00     0.000 HD 
ATOM      4  H2  ASP A   1     -11.418   7.128  72.979  1.00  0.00     0.000 HD 
ATOM      5  C   ASP A   1     -13.006   9.750  71.647  1.00  0.00    -0.419 C  
ATOM      6  O   ASP A   1     -14.026   9.526  72.511  1.00  0.00    -0.370 OA 
ATOM      7  OXT ASP A   1     -13.105  10.453  70.649  1.00  0.00    -0.369 OA 
ENDROOT
BRANCH   2   8
ATOM      8  CB  ASP A   1     -10.912   8.651  70.818  1.00  0.00    -0.286 C  
ATOM      9  CG  ASP A   1      -9.719   9.564  70.710  1.00  0.00    -0.219 C  
ATOM     10  OD2 ASP A   1      -8.656   9.339  71.269  1.00  0.00    -0.310 OA 
ATOM     11  OD1 ASP A   1      -9.914  10.654  69.937  1.00  0.00    -0.072 OA 
ENDBRANCH   2   8
TORSDOF 1
ENDMDL
MODEL      125
REMARK 921   NORMALIZED FREE ENERGY PREDICTED BY IDOCK:   -2.69 KCAL/MOL
REMARK 922        TOTAL FREE ENERGY PREDICTED BY IDOCK:   -3.09 KCAL/MOL
REMARK 923 INTER-LIGAND FREE ENERGY PREDICTED BY IDOCK:   -2.61 KCAL/MOL
REMARK 924 INTRA-LIGAND FREE ENERGY PREDICTED BY IDOCK:   -0.48 KCAL/MOL
REMARK 927      BINDING AFFINITY PREDICTED BY RF-SCORE:    0.00 PKD
ROOT
ATOM      1  N   ASP A   1     -11.434   4.619  65.264  1.00  0.00    -1.096 NA 
ATOM      2  CA  ASP A   1     -10.060   4.093  65.519  1.00  0.00    -0.187 C  
ATOM      3  H1  ASP A   1     -11.787   5.153  66.058  1.00  0.00     0.000 HD 
ATOM      4  H2  ASP A   1     -12.076   3.870  65.004  1.00  0.00     0.000 HD 
ATOM      5  C   ASP A   1      -9.161   5.310  65.778  1.00  0.00    -0.157 C  
ATOM      6  O   ASP A   1      -9.854   6.333  66.335  1.00  0.00    -0.151 OA 
ATOM      7  OXT ASP A   1      -7.973   5.376  65.485  1.00  0.00    -0.101 OA 
ENDROOT
BRANCH   2   8
ATOM      8  CB  ASP A   1      -9.533   3.296  64.334  1.00  0.00    -0.145 C  
ATOM      9  CG  ASP A   1     -10.556   3.218  63.232  1.00  0.00    -0.241 C  
ATOM     10  OD2 ASP A   1     -10.676   4.078  62.373  1.00  0.00    -0.208 OA 
ATOM     11  OD1 ASP A   1     -11.331   2.113  63.261  1.00  0.00    -0.320 OA 
ENDBRANCH   2   8
TORSDOF 1
ENDMDL
MODEL      126
REMARK 921   NORMALIZED FREE ENERGY PREDICTED BY IDOCK:   -2.68 KCAL/MOL
REMARK 922        TOTAL FREE ENERGY PREDICTED BY IDOCK:   -3.08 KCAL/MOL
REMARK 923 INTER-LIGAND FREE ENERGY PREDICTED BY IDOCK:   -2.95 KCAL/MOL
REMARK 924 INTRA-LIGAND FREE ENERGY PREDICTED BY IDOCK:   -0.13 KCAL/MOL
REMARK 927      BINDING AFFINITY PREDICTED BY RF-SCORE:    0.00 PKD
ROOT
ATOM      1  N   ASP A   1     -10.131  14.267  66.224  1.00  0.00    -0.288 NA 
ATOM      2  CA  ASP A   1     -11.004  14.158  67.431  1.00  0.00    -0.299 C  
ATOM      3  H1  ASP A   1     -10.432  15.022  65.608  1.00  0.00     0.000 HD 
ATOM      4  H2  ASP A   1     -10.074  13.380  65.724  1.00  0.00     0.000 HD 
ATOM      5  C   ASP A   1     -10.917  15.503  68.164  1.00  0.00    -0.312 C  
ATOM      6  O   ASP A   1     -10.690  16.526  67.304  1.00  0.00    -0.313 OA 
ATOM      7  OXT ASP A   1     -11.001  15.644  69.378  1.00  0.00    -0.243 OA 
ENDROOT
BRANCH   2   8
ATOM      8  CB  ASP A   1     -10.555  13.031  68.350  1.00  0.00    -0.264 C  
ATOM      9  CG  ASP A   1     -11.724  12.193  68.796  1.00  0.00    -0.321 C  
ATOM     10  OD2 ASP A   1     -12.156  11.253  68.147  1.00  0.00    -0.635 OA 
ATOM     11  OD1 ASP A   1     -12.258  12.559  69.982  1.00  0.00    -0.272 OA 
ENDBRANCH   2   8
TORSDOF 1
ENDMDL
MODEL      127
REMARK 921   NORMALIZED FREE ENERGY PREDICTED BY IDOCK:   -2.68 KCAL/MOL
REMARK 922        TOTAL FREE ENERGY PREDICTED BY IDOCK:   -3.08 KCAL/MOL
REMARK 923 INTER-LIGAND FREE ENERGY PREDICTED BY IDOCK:   -2.56 KCAL/MOL
REMARK 924 INTRA-LIGAND FREE ENERGY PREDICTED BY IDOCK:   -0.52 KCAL/MOL
REMARK 927      BINDING AFFINITY PREDICTED BY RF-SCORE:    0.00 PKD
ROOT
ATOM      1  N   ASP A   1      -8.770  18.943  66.005  1.00  0.00    -0.465 NA 
ATOM      2  CA  ASP A   1      -8.829  18.875  67.495  1.00  0.00    -0.278 C  
ATOM      3  H1  ASP A   1      -8.591  19.892  65.677  1.00  0.00     0.000 HD 
ATOM      4  H2  ASP A   1      -9.613  18.555  65.581  1.00  0.00     0.000 HD 
ATOM      5  C   ASP A   1      -7.471  19.366  68.016  1.00  0.00    -0.281 C  
ATOM      6  O   ASP A   1      -6.912  20.270  67.175  1.00  0.00    -0.232 OA 
ATOM      7  OXT ASP A   1      -6.931  18.969  69.041  1.00  0.00    -0.303 OA 
ENDROOT
BRANCH   2   8
ATOM      8  CB  ASP A   1      -9.095  17.458  67.985  1.00  0.00    -0.259 C  
ATOM      9  CG  ASP A   1      -8.886  16.453  66.883  1.00  0.00    -0.205 C  
ATOM     10  OD2 ASP A   1      -7.795  15.968  66.622  1.00  0.00    -0.244 OA 
ATOM     11  OD1 ASP A   1     -10.005  16.120  66.205  1.00  0.00    -0.292 OA 
ENDBRANCH   2   8
TORSDOF 1
ENDMDL
MODEL      128
REMARK 921   NORMALIZED FREE ENERGY PREDICTED BY IDOCK:   -2.67 KCAL/MOL
REMARK 922        TOTAL FREE ENERGY PREDICTED BY IDOCK:   -3.07 KCAL/MOL
REMARK 923 INTER-LIGAND FREE ENERGY PREDICTED BY IDOCK:   -2.94 KCAL/MOL
REMARK 924 INTRA-LIGAND FREE ENERGY PREDICTED BY IDOCK:   -0.13 KCAL/MOL
REMARK 927      BINDING AFFINITY PREDICTED BY RF-SCORE:    0.00 PKD
ROOT
ATOM      1  N   ASP A   1      -9.608  10.693  65.760  1.00  0.00    -0.198 NA 
ATOM      2  CA  ASP A   1     -10.318  11.684  66.622  1.00  0.00    -0.222 C  
ATOM      3  H1  ASP A   1      -8.969  10.111  66.302  1.00  0.00     0.000 HD 
ATOM      4  H2  ASP A   1      -9.127  11.150  64.985  1.00  0.00     0.000 HD 
ATOM      5  C   ASP A   1     -11.098  10.880  67.671  1.00  0.00    -0.313 C  
ATOM      6  O   ASP A   1     -10.481   9.709  67.963  1.00  0.00    -0.203 OA 
ATOM      7  OXT ASP A   1     -12.167  11.224  68.162  1.00  0.00    -0.622 OA 
ENDROOT
BRANCH   2   8
ATOM      8  CB  ASP A   1     -11.271  12.553  65.813  1.00  0.00    -0.356 C  
ATOM      9  CG  ASP A   1     -11.015  14.016  66.058  1.00  0.00    -0.298 C  
ATOM     10  OD2 ASP A   1     -10.182  14.660  65.437  1.00  0.00    -0.340 OA 
ATOM     11  OD1 ASP A   1     -11.786  14.569  67.019  1.00  0.00    -0.394 OA 
ENDBRANCH   2   8
TORSDOF 1
ENDMDL
MODEL      129
REMARK 921   NORMALIZED FREE ENERGY PREDICTED BY IDOCK:   -2.67 KCAL/MOL
REMARK 922        TOTAL FREE ENERGY PREDICTED BY IDOCK:   -3.07 KCAL/MOL
REMARK 923 INTER-LIGAND FREE ENERGY PREDICTED BY IDOCK:   -2.82 KCAL/MOL
REMARK 924 INTRA-LIGAND FREE ENERGY PREDICTED BY IDOCK:   -0.25 KCAL/MOL
REMARK 927      BINDING AFFINITY PREDICTED BY RF-SCORE:    0.00 PKD
ROOT
ATOM      1  N   ASP A   1      -9.173   8.751  68.806  1.00  0.00    -0.141 NA 
ATOM      2  CA  ASP A   1     -10.578   9.174  69.083  1.00  0.00    -0.208 C  
ATOM      3  H1  ASP A   1      -9.099   8.244  67.924  1.00  0.00     0.000 HD 
ATOM      4  H2  ASP A   1      -8.789   8.209  69.580  1.00  0.00     0.000 HD 
ATOM      5  C   ASP A   1     -11.007  10.077  67.919  1.00  0.00    -0.252 C  
ATOM      6  O   ASP A   1     -10.377   9.739  66.768  1.00  0.00    -0.234 OA 
ATOM      7  OXT ASP A   1     -11.790  11.015  68.014  1.00  0.00    -0.593 OA 
ENDROOT
BRANCH   2   8
ATOM      8  CB  ASP A   1     -10.689   9.930  70.400  1.00  0.00    -0.379 C  
ATOM      9  CG  ASP A   1     -10.354   9.041  71.569  1.00  0.00    -0.342 C  
ATOM     10  OD2 ASP A   1      -9.213   8.867  71.968  1.00  0.00    -0.348 OA 
ATOM     11  OD1 ASP A   1     -11.421   8.452  72.150  1.00  0.00    -0.320 OA 
ENDBRANCH   2   8
TORSDOF 1
ENDMDL
MODEL      130
REMARK 921   NORMALIZED FREE ENERGY PREDICTED BY IDOCK:   -2.65 KCAL/MOL
REMARK 922        TOTAL FREE ENERGY PREDICTED BY IDOCK:   -3.05 KCAL/MOL
REMARK 923 INTER-LIGAND FREE ENERGY PREDICTED BY IDOCK:   -2.66 KCAL/MOL
REMARK 924 INTRA-LIGAND FREE ENERGY PREDICTED BY IDOCK:   -0.39 KCAL/MOL
REMARK 927      BINDING AFFINITY PREDICTED BY RF-SCORE:    0.00 PKD
ROOT
ATOM      1  N   ASP A   1     -11.412  14.684  67.042  1.00  0.00    -0.359 NA 
ATOM      2  CA  ASP A   1      -9.992  14.879  66.622  1.00  0.00    -0.258 C  
ATOM      3  H1  ASP A   1     -11.477  14.300  67.984  1.00  0.00     0.000 HD 
ATOM      4  H2  ASP A   1     -11.923  14.111  66.370  1.00  0.00     0.000 HD 
ATOM      5  C   ASP A   1      -9.360  15.847  67.631  1.00  0.00    -0.217 C  
ATOM      6  O   ASP A   1      -9.933  15.735  68.855  1.00  0.00    -0.203 OA 
ATOM      7  OXT ASP A   1      -8.477  16.653  67.367  1.00  0.00    -0.183 OA 
ENDROOT
BRANCH   2   8
ATOM      8  CB  ASP A   1      -9.895  15.453  65.215  1.00  0.00    -0.239 C  
ATOM      9  CG  ASP A   1     -11.029  16.403  64.934  1.00  0.00    -0.263 C  
ATOM     10  OD2 ASP A   1     -10.994  17.587  65.229  1.00  0.00    -0.487 OA 
ATOM     11  OD1 ASP A   1     -12.093  15.841  64.321  1.00  0.00    -0.454 OA 
ENDBRANCH   2   8
TORSDOF 1
ENDMDL
MODEL      131
REMARK 921   NORMALIZED FREE ENERGY PREDICTED BY IDOCK:   -2.65 KCAL/MOL
REMARK 922        TOTAL FREE ENERGY PREDICTED BY IDOCK:   -3.05 KCAL/MOL
REMARK 923 INTER-LIGAND FREE ENERGY PREDICTED BY IDOCK:   -2.60 KCAL/MOL
REMARK 924 INTRA-LIGAND FREE ENERGY PREDICTED BY IDOCK:   -0.45 KCAL/MOL
REMARK 927      BINDING AFFINITY PREDICTED BY RF-SCORE:    0.00 PKD
ROOT
ATOM      1  N   ASP A   1     -11.590   9.012  70.086  1.00  0.00    -0.464 NA 
ATOM      2  CA  ASP A   1     -11.283   7.573  70.341  1.00  0.00    -0.253 C  
ATOM      3  H1  ASP A   1     -12.588   9.167  69.949  1.00  0.00     0.000 HD 
ATOM      4  H2  ASP A   1     -11.046   9.376  69.304  1.00  0.00     0.000 HD 
ATOM      5  C   ASP A   1     -12.058   7.171  71.603  1.00  0.00    -0.336 C  
ATOM      6  O   ASP A   1     -13.201   7.888  71.736  1.00  0.00    -0.331 OA 
ATOM      7  OXT ASP A   1     -11.682   6.337  72.418  1.00  0.00    -0.295 OA 
ENDROOT
BRANCH   2   8
ATOM      8  CB  ASP A   1      -9.792   7.343  70.546  1.00  0.00    -0.180 C  
ATOM      9  CG  ASP A   1      -9.133   8.553  71.154  1.00  0.00    -0.190 C  
ATOM     10  OD2 ASP A   1      -9.087   8.753  72.358  1.00  0.00    -0.366 OA 
ATOM     11  OD1 ASP A   1      -8.584   9.403  70.259  1.00  0.00    -0.184 OA 
ENDBRANCH   2   8
TORSDOF 1
ENDMDL
MODEL      132
REMARK 921   NORMALIZED FREE ENERGY PREDICTED BY IDOCK:   -2.64 KCAL/MOL
REMARK 922        TOTAL FREE ENERGY PREDICTED BY IDOCK:   -3.04 KCAL/MOL
REMARK 923 INTER-LIGAND FREE ENERGY PREDICTED BY IDOCK:   -2.95 KCAL/MOL
REMARK 924 INTRA-LIGAND FREE ENERGY PREDICTED BY IDOCK:   -0.09 KCAL/MOL
REMARK 927      BINDING AFFINITY PREDICTED BY RF-SCORE:    0.00 PKD
ROOT
ATOM      1  N   ASP A   1     -10.634  13.678  67.528  1.00  0.00    -0.240 NA 
ATOM      2  CA  ASP A   1     -11.287  14.844  68.194  1.00  0.00    -0.312 C  
ATOM      3  H1  ASP A   1     -10.838  13.652  66.529  1.00  0.00     0.000 HD 
ATOM      4  H2  ASP A   1     -10.887  12.800  67.981  1.00  0.00     0.000 HD 
ATOM      5  C   ASP A   1     -10.744  16.107  67.513  1.00  0.00    -0.304 C  
ATOM      6  O   ASP A   1     -10.419  15.873  66.218  1.00  0.00    -0.301 OA 
ATOM      7  OXT ASP A   1     -10.582  17.186  68.069  1.00  0.00    -0.348 OA 
ENDROOT
BRANCH   2   8
ATOM      8  CB  ASP A   1     -10.984  14.882  69.686  1.00  0.00    -0.294 C  
ATOM      9  CG  ASP A   1     -12.201  14.526  70.499  1.00  0.00    -0.332 C  
ATOM     10  OD2 ASP A   1     -12.507  13.375  70.771  1.00  0.00    -0.354 OA 
ATOM     11  OD1 ASP A   1     -12.929  15.585  70.914  1.00  0.00    -0.463 OA 
ENDBRANCH   2   8
TORSDOF 1
ENDMDL
MODEL      133
REMARK 921   NORMALIZED FREE ENERGY PREDICTED BY IDOCK:   -2.63 KCAL/MOL
REMARK 922        TOTAL FREE ENERGY PREDICTED BY IDOCK:   -3.04 KCAL/MOL
REMARK 923 INTER-LIGAND FREE ENERGY PREDICTED BY IDOCK:   -2.52 KCAL/MOL
REMARK 924 INTRA-LIGAND FREE ENERGY PREDICTED BY IDOCK:   -0.52 KCAL/MOL
REMARK 927      BINDING AFFINITY PREDICTED BY RF-SCORE:    0.00 PKD
ROOT
ATOM      1  N   ASP A   1     -11.463   9.556  69.454  1.00  0.00    -0.438 NA 
ATOM      2  CA  ASP A   1     -10.342   9.945  68.547  1.00  0.00    -0.196 C  
ATOM      3  H1  ASP A   1     -11.992  10.369  69.769  1.00  0.00     0.000 HD 
ATOM      4  H2  ASP A   1     -11.129   9.001  70.242  1.00  0.00     0.000 HD 
ATOM      5  C   ASP A   1     -10.972  10.662  67.346  1.00  0.00    -0.298 C  
ATOM      6  O   ASP A   1     -12.117  11.301  67.690  1.00  0.00    -0.600 OA 
ATOM      7  OXT ASP A   1     -10.528  10.636  66.204  1.00  0.00    -0.243 OA 
ENDROOT
BRANCH   2   8
ATOM      8  CB  ASP A   1      -9.552   8.732  68.076  1.00  0.00    -0.160 C  
ATOM      9  CG  ASP A   1     -10.269   7.451  68.412  1.00  0.00    -0.183 C  
ATOM     10  OD2 ASP A   1     -11.121   6.955  67.689  1.00  0.00    -0.242 OA 
ATOM     11  OD1 ASP A   1      -9.891   6.884  69.578  1.00  0.00    -0.158 OA 
ENDBRANCH   2   8
TORSDOF 1
ENDMDL
MODEL      134
REMARK 921   NORMALIZED FREE ENERGY PREDICTED BY IDOCK:   -2.61 KCAL/MOL
REMARK 922        TOTAL FREE ENERGY PREDICTED BY IDOCK:   -3.01 KCAL/MOL
REMARK 923 INTER-LIGAND FREE ENERGY PREDICTED BY IDOCK:   -2.49 KCAL/MOL
REMARK 924 INTRA-LIGAND FREE ENERGY PREDICTED BY IDOCK:   -0.51 KCAL/MOL
REMARK 927      BINDING AFFINITY PREDICTED BY RF-SCORE:    0.00 PKD
ROOT
ATOM      1  N   ASP A   1      -9.165   8.221  71.672  1.00  0.00    -0.166 NA 
ATOM      2  CA  ASP A   1     -10.423   9.025  71.682  1.00  0.00    -0.355 C  
ATOM      3  H1  ASP A   1      -8.816   8.054  72.615  1.00  0.00     0.000 HD 
ATOM      4  H2  ASP A   1      -8.453   8.652  71.082  1.00  0.00     0.000 HD 
ATOM      5  C   ASP A   1     -11.453   8.227  72.493  1.00  0.00    -0.384 C  
ATOM      6  O   ASP A   1     -10.858   7.469  73.446  1.00  0.00    -0.394 OA 
ATOM      7  OXT ASP A   1     -12.660   8.234  72.288  1.00  0.00    -0.334 OA 
ENDROOT
BRANCH   2   8
ATOM      8  CB  ASP A   1     -10.944   9.274  70.274  1.00  0.00    -0.286 C  
ATOM      9  CG  ASP A   1     -10.376   8.276  69.299  1.00  0.00    -0.218 C  
ATOM     10  OD2 ASP A   1     -10.876   7.180  69.100  1.00  0.00    -0.216 OA 
ATOM     11  OD1 ASP A   1      -9.266   8.694  68.651  1.00  0.00    -0.139 OA 
ENDBRANCH   2   8
TORSDOF 1
ENDMDL
MODEL      135
REMARK 921   NORMALIZED FREE ENERGY PREDICTED BY IDOCK:   -2.60 KCAL/MOL
REMARK 922        TOTAL FREE ENERGY PREDICTED BY IDOCK:   -3.00 KCAL/MOL
REMARK 923 INTER-LIGAND FREE ENERGY PREDICTED BY IDOCK:   -2.87 KCAL/MOL
REMARK 924 INTRA-LIGAND FREE ENERGY PREDICTED BY IDOCK:   -0.13 KCAL/MOL
REMARK 927      BINDING AFFINITY PREDICTED BY RF-SCORE:    0.00 PKD
ROOT
ATOM      1  N   ASP A   1     -11.807   6.636  69.897  1.00  0.00    -0.653 NA 
ATOM      2  CA  ASP A   1     -11.441   7.024  71.292  1.00  0.00    -0.286 C  
ATOM      3  H1  ASP A   1     -12.474   7.288  69.487  1.00  0.00     0.000 HD 
ATOM      4  H2  ASP A   1     -12.151   5.677  69.856  1.00  0.00     0.000 HD 
ATOM      5  C   ASP A   1     -10.827   8.428  71.215  1.00  0.00    -0.239 C  
ATOM      6  O   ASP A   1     -11.343   9.143  70.185  1.00  0.00    -0.231 OA 
ATOM      7  OXT ASP A   1      -9.950   8.849  71.960  1.00  0.00    -0.329 OA 
ENDROOT
BRANCH   2   8
ATOM      8  CB  ASP A   1     -10.445   6.050  71.905  1.00  0.00    -0.263 C  
ATOM      9  CG  ASP A   1     -10.927   5.545  73.239  1.00  0.00    -0.292 C  
ATOM     10  OD2 ASP A   1     -11.671   4.584  73.359  1.00  0.00    -0.270 OA 
ATOM     11  OD1 ASP A   1     -10.464   6.238  74.303  1.00  0.00    -0.305 OA 
ENDBRANCH   2   8
TORSDOF 1
ENDMDL
MODEL      136
REMARK 921   NORMALIZED FREE ENERGY PREDICTED BY IDOCK:   -2.58 KCAL/MOL
REMARK 922        TOTAL FREE ENERGY PREDICTED BY IDOCK:   -2.98 KCAL/MOL
REMARK 923 INTER-LIGAND FREE ENERGY PREDICTED BY IDOCK:   -2.46 KCAL/MOL
REMARK 924 INTRA-LIGAND FREE ENERGY PREDICTED BY IDOCK:   -0.52 KCAL/MOL
REMARK 927      BINDING AFFINITY PREDICTED BY RF-SCORE:    0.00 PKD
ROOT
ATOM      1  N   ASP A   1      -9.449  10.964  67.489  1.00  0.00    -0.155 NA 
ATOM      2  CA  ASP A   1      -9.981  11.404  68.813  1.00  0.00    -0.177 C  
ATOM      3  H1  ASP A   1      -8.785  10.196  67.586  1.00  0.00     0.000 HD 
ATOM      4  H2  ASP A   1      -9.042  11.745  66.974  1.00  0.00     0.000 HD 
ATOM      5  C   ASP A   1     -10.672  10.186  69.441  1.00  0.00    -0.238 C  
ATOM      6  O   ASP A   1     -10.098   9.025  69.039  1.00  0.00    -0.184 OA 
ATOM      7  OXT ASP A   1     -11.646  10.239  70.181  1.00  0.00    -0.262 OA 
ENDROOT
BRANCH   2   8
ATOM      8  CB  ASP A   1     -10.972  12.551  68.669  1.00  0.00    -0.291 C  
ATOM      9  CG  ASP A   1     -11.353  12.763  67.228  1.00  0.00    -0.314 C  
ATOM     10  OD2 ASP A   1     -12.255  12.149  66.679  1.00  0.00    -0.566 OA 
ATOM     11  OD1 ASP A   1     -10.620  13.698  66.585  1.00  0.00    -0.274 OA 
ENDBRANCH   2   8
TORSDOF 1
ENDMDL
MODEL      137
REMARK 921   NORMALIZED FREE ENERGY PREDICTED BY IDOCK:   -2.57 KCAL/MOL
REMARK 922        TOTAL FREE ENERGY PREDICTED BY IDOCK:   -2.97 KCAL/MOL
REMARK 923 INTER-LIGAND FREE ENERGY PREDICTED BY IDOCK:   -2.72 KCAL/MOL
REMARK 924 INTRA-LIGAND FREE ENERGY PREDICTED BY IDOCK:   -0.25 KCAL/MOL
REMARK 927      BINDING AFFINITY PREDICTED BY RF-SCORE:    0.00 PKD
ROOT
ATOM      1  N   ASP A   1      -9.216   8.411  72.840  1.00  0.00    -0.253 NA 
ATOM      2  CA  ASP A   1     -10.516   7.822  73.279  1.00  0.00    -0.294 C  
ATOM      3  H1  ASP A   1      -8.540   8.443  73.602  1.00  0.00     0.000 HD 
ATOM      4  H2  ASP A   1      -9.348   9.332  72.420  1.00  0.00     0.000 HD 
ATOM      5  C   ASP A   1     -10.214   6.402  73.776  1.00  0.00    -0.290 C  
ATOM      6  O   ASP A   1      -8.962   6.308  74.286  1.00  0.00    -0.132 OA 
ATOM      7  OXT ASP A   1     -10.985   5.454  73.690  1.00  0.00    -0.289 OA 
ENDROOT
BRANCH   2   8
ATOM      8  CB  ASP A   1     -11.526   7.775  72.141  1.00  0.00    -0.361 C  
ATOM      9  CG  ASP A   1     -11.929   9.162  71.713  1.00  0.00    -0.379 C  
ATOM     10  OD2 ASP A   1     -11.302   9.814  70.893  1.00  0.00    -0.307 OA 
ATOM     11  OD1 ASP A   1     -13.051   9.629  72.304  1.00  0.00    -0.414 OA 
ENDBRANCH   2   8
TORSDOF 1
ENDMDL
MODEL      138
REMARK 921   NORMALIZED FREE ENERGY PREDICTED BY IDOCK:   -2.53 KCAL/MOL
REMARK 922        TOTAL FREE ENERGY PREDICTED BY IDOCK:   -2.92 KCAL/MOL
REMARK 923 INTER-LIGAND FREE ENERGY PREDICTED BY IDOCK:   -2.43 KCAL/MOL
REMARK 924 INTRA-LIGAND FREE ENERGY PREDICTED BY IDOCK:   -0.50 KCAL/MOL
REMARK 927      BINDING AFFINITY PREDICTED BY RF-SCORE:    0.00 PKD
ROOT
ATOM      1  N   ASP A   1      -9.769   6.602  70.733  1.00  0.00    -0.179 NA 
ATOM      2  CA  ASP A   1     -10.863   7.618  70.718  1.00  0.00    -0.239 C  
ATOM      3  H1  ASP A   1      -9.787   6.015  69.900  1.00  0.00     0.000 HD 
ATOM      4  H2  ASP A   1      -9.794   6.041  71.584  1.00  0.00     0.000 HD 
ATOM      5  C   ASP A   1     -10.654   8.476  69.464  1.00  0.00    -0.211 C  
ATOM      6  O   ASP A   1     -10.065   7.770  68.468  1.00  0.00    -0.187 OA 
ATOM      7  OXT ASP A   1     -10.943   9.663  69.374  1.00  0.00    -0.231 OA 
ENDROOT
BRANCH   2   8
ATOM      8  CB  ASP A   1     -10.835   8.494  71.963  1.00  0.00    -0.405 C  
ATOM      9  CG  ASP A   1      -9.674   8.140  72.853  1.00  0.00    -0.270 C  
ATOM     10  OD2 ASP A   1      -8.556   8.613  72.711  1.00  0.00    -0.394 OA 
ATOM     11  OD1 ASP A   1      -9.965   7.257  73.833  1.00  0.00    -0.311 OA 
ENDBRANCH   2   8
TORSDOF 1
ENDMDL
MODEL      139
REMARK 921   NORMALIZED FREE ENERGY PREDICTED BY IDOCK:   -2.51 KCAL/MOL
REMARK 922        TOTAL FREE ENERGY PREDICTED BY IDOCK:   -2.90 KCAL/MOL
REMARK 923 INTER-LIGAND FREE ENERGY PREDICTED BY IDOCK:   -2.72 KCAL/MOL
REMARK 924 INTRA-LIGAND FREE ENERGY PREDICTED BY IDOCK:   -0.18 KCAL/MOL
REMARK 927      BINDING AFFINITY PREDICTED BY RF-SCORE:    0.00 PKD
ROOT
ATOM      1  N   ASP A   1      -9.956  13.552  64.942  1.00  0.00    -0.602 NA 
ATOM      2  CA  ASP A   1     -10.573  13.169  66.247  1.00  0.00    -0.284 C  
ATOM      3  H1  ASP A   1     -10.592  13.389  64.162  1.00  0.00     0.000 HD 
ATOM      4  H2  ASP A   1      -9.063  13.080  64.800  1.00  0.00     0.000 HD 
ATOM      5  C   ASP A   1     -11.836  14.025  66.409  1.00  0.00    -0.418 C  
ATOM      6  O   ASP A   1     -12.384  14.337  65.209  1.00  0.00    -0.418 OA 
ATOM      7  OXT ASP A   1     -12.282  14.417  67.480  1.00  0.00    -0.342 OA 
ENDROOT
BRANCH   2   8
ATOM      8  CB  ASP A   1      -9.623  13.413  67.412  1.00  0.00    -0.223 C  
ATOM      9  CG  ASP A   1      -8.611  12.304  67.530  1.00  0.00    -0.174 C  
ATOM     10  OD2 ASP A   1      -7.560  12.292  66.907  1.00  0.00    -0.107 OA 
ATOM     11  OD1 ASP A   1      -8.952  11.321  68.391  1.00  0.00    -0.156 OA 
ENDBRANCH   2   8
TORSDOF 1
ENDMDL
MODEL      140
REMARK 921   NORMALIZED FREE ENERGY PREDICTED BY IDOCK:   -2.50 KCAL/MOL
REMARK 922        TOTAL FREE ENERGY PREDICTED BY IDOCK:   -2.89 KCAL/MOL
REMARK 923 INTER-LIGAND FREE ENERGY PREDICTED BY IDOCK:   -2.80 KCAL/MOL
REMARK 924 INTRA-LIGAND FREE ENERGY PREDICTED BY IDOCK:   -0.10 KCAL/MOL
REMARK 927      BINDING AFFINITY PREDICTED BY RF-SCORE:    0.00 PKD
ROOT
ATOM      1  N   ASP A   1      -7.463  18.326  65.473  1.00  0.00    -0.512 NA 
ATOM      2  CA  ASP A   1      -8.563  17.748  66.302  1.00  0.00    -0.185 C  
ATOM      3  H1  ASP A   1      -7.511  19.344  65.440  1.00  0.00     0.000 HD 
ATOM      4  H2  ASP A   1      -7.453  17.923  64.536  1.00  0.00     0.000 HD 
ATOM      5  C   ASP A   1      -8.407  18.330  67.713  1.00  0.00    -0.255 C  
ATOM      6  O   ASP A   1      -7.853  19.567  67.685  1.00  0.00    -0.266 OA 
ATOM      7  OXT ASP A   1      -8.705  17.744  68.747  1.00  0.00    -0.275 OA 
ENDROOT
BRANCH   2   8
ATOM      8  CB  ASP A   1      -8.492  16.228  66.351  1.00  0.00    -0.365 C  
ATOM      9  CG  ASP A   1      -9.864  15.615  66.249  1.00  0.00    -0.295 C  
ATOM     10  OD2 ASP A   1     -10.410  15.379  65.183  1.00  0.00    -0.382 OA 
ATOM     11  OD1 ASP A   1     -10.446  15.339  67.437  1.00  0.00    -0.260 OA 
ENDBRANCH   2   8
TORSDOF 1
ENDMDL
MODEL      141
REMARK 921   NORMALIZED FREE ENERGY PREDICTED BY IDOCK:   -2.49 KCAL/MOL
REMARK 922        TOTAL FREE ENERGY PREDICTED BY IDOCK:   -2.89 KCAL/MOL
REMARK 923 INTER-LIGAND FREE ENERGY PREDICTED BY IDOCK:   -2.37 KCAL/MOL
REMARK 924 INTRA-LIGAND FREE ENERGY PREDICTED BY IDOCK:   -0.52 KCAL/MOL
REMARK 927      BINDING AFFINITY PREDICTED BY RF-SCORE:    0.00 PKD
ROOT
ATOM      1  N   ASP A   1     -12.114   6.779  69.954  1.00  0.00    -0.625 NA 
ATOM      2  CA  ASP A   1     -10.763   7.383  69.756  1.00  0.00    -0.241 C  
ATOM      3  H1  ASP A   1     -12.743   7.000  69.182  1.00  0.00     0.000 HD 
ATOM      4  H2  ASP A   1     -12.516   7.053  70.851  1.00  0.00     0.000 HD 
ATOM      5  C   ASP A   1     -10.209   6.810  68.445  1.00  0.00    -0.178 C  
ATOM      6  O   ASP A   1     -11.203   6.514  67.571  1.00  0.00    -0.343 OA 
ATOM      7  OXT ASP A   1      -9.023   6.603  68.218  1.00  0.00    -0.124 OA 
ENDROOT
BRANCH   2   8
ATOM      8  CB  ASP A   1      -9.824   7.053  70.909  1.00  0.00    -0.190 C  
ATOM      9  CG  ASP A   1     -10.418   6.002  71.811  1.00  0.00    -0.221 C  
ATOM     10  OD2 ASP A   1     -10.300   4.804  71.605  1.00  0.00    -0.196 OA 
ATOM     11  OD1 ASP A   1     -11.089   6.491  72.877  1.00  0.00    -0.251 OA 
ENDBRANCH   2   8
TORSDOF 1
ENDMDL
MODEL      142
REMARK 921   NORMALIZED FREE ENERGY PREDICTED BY IDOCK:   -2.49 KCAL/MOL
REMARK 922        TOTAL FREE ENERGY PREDICTED BY IDOCK:   -2.88 KCAL/MOL
REMARK 923 INTER-LIGAND FREE ENERGY PREDICTED BY IDOCK:   -2.38 KCAL/MOL
REMARK 924 INTRA-LIGAND FREE ENERGY PREDICTED BY IDOCK:   -0.50 KCAL/MOL
REMARK 927      BINDING AFFINITY PREDICTED BY RF-SCORE:    0.00 PKD
ROOT
ATOM      1  N   ASP A   1     -11.023   8.844  68.201  1.00  0.00    -0.473 NA 
ATOM      2  CA  ASP A   1     -10.248   8.905  66.926  1.00  0.00    -0.276 C  
ATOM      3  H1  ASP A   1     -10.933   7.935  68.654  1.00  0.00     0.000 HD 
ATOM      4  H2  ASP A   1     -12.001   9.092  68.054  1.00  0.00     0.000 HD 
ATOM      5  C   ASP A   1      -8.780   8.637  67.285  1.00  0.00    -0.129 C  
ATOM      6  O   ASP A   1      -8.672   7.831  68.370  1.00  0.00    -0.128 OA 
ATOM      7  OXT ASP A   1      -7.818   9.118  66.698  1.00  0.00    -0.099 OA 
ENDROOT
BRANCH   2   8
ATOM      8  CB  ASP A   1     -10.382  10.263  66.250  1.00  0.00    -0.256 C  
ATOM      9  CG  ASP A   1     -10.726  11.337  67.248  1.00  0.00    -0.251 C  
ATOM     10  OD2 ASP A   1      -9.884  11.940  67.896  1.00  0.00    -0.180 OA 
ATOM     11  OD1 ASP A   1     -12.048  11.589  67.369  1.00  0.00    -0.593 OA 
ENDBRANCH   2   8
TORSDOF 1
ENDMDL
MODEL      143
REMARK 921   NORMALIZED FREE ENERGY PREDICTED BY IDOCK:   -2.49 KCAL/MOL
REMARK 922        TOTAL FREE ENERGY PREDICTED BY IDOCK:   -2.88 KCAL/MOL
REMARK 923 INTER-LIGAND FREE ENERGY PREDICTED BY IDOCK:   -2.38 KCAL/MOL
REMARK 924 INTRA-LIGAND FREE ENERGY PREDICTED BY IDOCK:   -0.50 KCAL/MOL
REMARK 927      BINDING AFFINITY PREDICTED BY RF-SCORE:    0.00 PKD
ROOT
ATOM      1  N   ASP A   1     -11.373   7.696  73.296  1.00  0.00    -0.619 NA 
ATOM      2  CA  ASP A   1     -10.557   6.447  73.232  1.00  0.00    -0.268 C  
ATOM      3  H1  ASP A   1     -11.284   8.159  74.200  1.00  0.00     0.000 HD 
ATOM      4  H2  ASP A   1     -12.350   7.514  73.066  1.00  0.00     0.000 HD 
ATOM      5  C   ASP A   1      -9.098   6.857  73.473  1.00  0.00    -0.146 C  
ATOM      6  O   ASP A   1      -9.013   7.951  74.268  1.00  0.00    -0.195 OA 
ATOM      7  OXT ASP A   1      -8.125   6.298  72.981  1.00  0.00    -0.107 OA 
ENDROOT
BRANCH   2   8
ATOM      8  CB  ASP A   1     -10.691   5.755  71.883  1.00  0.00    -0.297 C  
ATOM      9  CG  ASP A   1     -11.088   6.731  70.807  1.00  0.00    -0.276 C  
ATOM     10  OD2 ASP A   1     -10.279   7.402  70.184  1.00  0.00    -0.199 OA 
ATOM     11  OD1 ASP A   1     -12.417   6.804  70.577  1.00  0.00    -0.273 OA 
ENDBRANCH   2   8
TORSDOF 1
ENDMDL
MODEL      144
REMARK 921   NORMALIZED FREE ENERGY PREDICTED BY IDOCK:   -2.49 KCAL/MOL
REMARK 922        TOTAL FREE ENERGY PREDICTED BY IDOCK:   -2.88 KCAL/MOL
REMARK 923 INTER-LIGAND FREE ENERGY PREDICTED BY IDOCK:   -2.36 KCAL/MOL
REMARK 924 INTRA-LIGAND FREE ENERGY PREDICTED BY IDOCK:   -0.52 KCAL/MOL
REMARK 927      BINDING AFFINITY PREDICTED BY RF-SCORE:    0.00 PKD
ROOT
ATOM      1  N   ASP A   1     -11.492   4.217  64.672  1.00  0.00    -0.935 NA 
ATOM      2  CA  ASP A   1     -10.259   3.949  63.873  1.00  0.00    -0.197 C  
ATOM      3  H1  ASP A   1     -12.337   4.098  64.113  1.00  0.00     0.000 HD 
ATOM      4  H2  ASP A   1     -11.461   5.139  65.106  1.00  0.00     0.000 HD 
ATOM      5  C   ASP A   1     -10.361   2.502  63.373  1.00  0.00    -0.173 C  
ATOM      6  O   ASP A   1     -11.651   2.125  63.196  1.00  0.00    -0.329 OA 
ATOM      7  OXT ASP A   1      -9.405   1.757  63.191  1.00  0.00    -0.090 OA 
ENDROOT
BRANCH   2   8
ATOM      8  CB  ASP A   1      -8.998   4.128  64.708  1.00  0.00    -0.140 C  
ATOM      9  CG  ASP A   1      -9.330   4.299  66.167  1.00  0.00    -0.164 C  
ATOM     10  OD2 ASP A   1      -9.488   3.357  66.929  1.00  0.00    -0.194 OA 
ATOM     11  OD1 ASP A   1      -9.433   5.583  66.573  1.00  0.00    -0.140 OA 
ENDBRANCH   2   8
TORSDOF 1
ENDMDL
MODEL      145
REMARK 921   NORMALIZED FREE ENERGY PREDICTED BY IDOCK:   -2.48 KCAL/MOL
REMARK 922        TOTAL FREE ENERGY PREDICTED BY IDOCK:   -2.87 KCAL/MOL
REMARK 923 INTER-LIGAND FREE ENERGY PREDICTED BY IDOCK:   -2.35 KCAL/MOL
REMARK 924 INTRA-LIGAND FREE ENERGY PREDICTED BY IDOCK:   -0.52 KCAL/MOL
REMARK 927      BINDING AFFINITY PREDICTED BY RF-SCORE:    0.00 PKD
ROOT
ATOM      1  N   ASP A   1      -8.725   8.375  69.691  1.00  0.00    -0.132 NA 
ATOM      2  CA  ASP A   1      -9.298   7.042  70.044  1.00  0.00    -0.158 C  
ATOM      3  H1  ASP A   1      -8.462   8.424  68.707  1.00  0.00     0.000 HD 
ATOM      4  H2  ASP A   1      -7.942   8.616  70.298  1.00  0.00     0.000 HD 
ATOM      5  C   ASP A   1     -10.533   6.841  69.157  1.00  0.00    -0.216 C  
ATOM      6  O   ASP A   1     -10.404   7.482  67.969  1.00  0.00    -0.190 OA 
ATOM      7  OXT ASP A   1     -11.534   6.215  69.484  1.00  0.00    -0.429 OA 
ENDROOT
BRANCH   2   8
ATOM      8  CB  ASP A   1      -9.690   6.969  71.513  1.00  0.00    -0.166 C  
ATOM      9  CG  ASP A   1      -9.766   8.343  72.125  1.00  0.00    -0.300 C  
ATOM     10  OD2 ASP A   1     -10.767   9.041  72.075  1.00  0.00    -0.349 OA 
ATOM     11  OD1 ASP A   1      -8.635   8.744  72.746  1.00  0.00    -0.412 OA 
ENDBRANCH   2   8
TORSDOF 1
ENDMDL
MODEL      146
REMARK 921   NORMALIZED FREE ENERGY PREDICTED BY IDOCK:   -2.48 KCAL/MOL
REMARK 922        TOTAL FREE ENERGY PREDICTED BY IDOCK:   -2.87 KCAL/MOL
REMARK 923 INTER-LIGAND FREE ENERGY PREDICTED BY IDOCK:   -2.37 KCAL/MOL
REMARK 924 INTRA-LIGAND FREE ENERGY PREDICTED BY IDOCK:   -0.50 KCAL/MOL
REMARK 927      BINDING AFFINITY PREDICTED BY RF-SCORE:    0.00 PKD
ROOT
ATOM      1  N   ASP A   1     -10.200  13.426  66.839  1.00  0.00    -0.249 NA 
ATOM      2  CA  ASP A   1     -11.503  12.990  67.422  1.00  0.00    -0.332 C  
ATOM      3  H1  ASP A   1     -10.186  14.429  66.655  1.00  0.00     0.000 HD 
ATOM      4  H2  ASP A   1      -9.968  12.890  66.003  1.00  0.00     0.000 HD 
ATOM      5  C   ASP A   1     -11.688  13.770  68.731  1.00  0.00    -0.356 C  
ATOM      6  O   ASP A   1     -11.083  14.982  68.678  1.00  0.00    -0.243 OA 
ATOM      7  OXT ASP A   1     -12.271  13.346  69.721  1.00  0.00    -0.302 OA 
ENDROOT
BRANCH   2   8
ATOM      8  CB  ASP A   1     -11.524  11.493  67.698  1.00  0.00    -0.357 C  
ATOM      9  CG  ASP A   1     -10.129  10.950  67.865  1.00  0.00    -0.177 C  
ATOM     10  OD2 ASP A   1      -9.534  10.959  68.932  1.00  0.00    -0.188 OA 
ATOM     11  OD1 ASP A   1      -9.585  10.442  66.738  1.00  0.00    -0.163 OA 
ENDBRANCH   2   8
TORSDOF 1
ENDMDL
MODEL      147
REMARK 921   NORMALIZED FREE ENERGY PREDICTED BY IDOCK:   -2.47 KCAL/MOL
REMARK 922        TOTAL FREE ENERGY PREDICTED BY IDOCK:   -2.86 KCAL/MOL
REMARK 923 INTER-LIGAND FREE ENERGY PREDICTED BY IDOCK:   -2.34 KCAL/MOL
REMARK 924 INTRA-LIGAND FREE ENERGY PREDICTED BY IDOCK:   -0.52 KCAL/MOL
REMARK 927      BINDING AFFINITY PREDICTED BY RF-SCORE:    0.00 PKD
ROOT
ATOM      1  N   ASP A   1     -12.446   7.633  71.472  1.00  0.00    -0.325 NA 
ATOM      2  CA  ASP A   1     -11.166   8.370  71.692  1.00  0.00    -0.278 C  
ATOM      3  H1  ASP A   1     -13.254   8.189  71.751  1.00  0.00     0.000 HD 
ATOM      4  H2  ASP A   1     -12.439   6.727  71.940  1.00  0.00     0.000 HD 
ATOM      5  C   ASP A   1     -11.241   9.651  70.851  1.00  0.00    -0.352 C  
ATOM      6  O   ASP A   1     -12.519  10.082  70.712  1.00  0.00    -0.306 OA 
ATOM      7  OXT ASP A   1     -10.279  10.202  70.330  1.00  0.00    -0.247 OA 
ENDROOT
BRANCH   2   8
ATOM      8  CB  ASP A   1      -9.960   7.540  71.276  1.00  0.00    -0.196 C  
ATOM      9  CG  ASP A   1     -10.381   6.310  70.516  1.00  0.00    -0.204 C  
ATOM     10  OD2 ASP A   1     -10.577   6.306  69.311  1.00  0.00    -0.215 OA 
ATOM     11  OD1 ASP A   1     -10.519   5.201  71.275  1.00  0.00    -0.219 OA 
ENDBRANCH   2   8
TORSDOF 1
ENDMDL
MODEL      148
REMARK 921   NORMALIZED FREE ENERGY PREDICTED BY IDOCK:   -2.47 KCAL/MOL
REMARK 922        TOTAL FREE ENERGY PREDICTED BY IDOCK:   -2.86 KCAL/MOL
REMARK 923 INTER-LIGAND FREE ENERGY PREDICTED BY IDOCK:   -2.34 KCAL/MOL
REMARK 924 INTRA-LIGAND FREE ENERGY PREDICTED BY IDOCK:   -0.52 KCAL/MOL
REMARK 927      BINDING AFFINITY PREDICTED BY RF-SCORE:    0.00 PKD
ROOT
ATOM      1  N   ASP A   1      -9.833   6.328  66.113  1.00  0.00    -0.387 NA 
ATOM      2  CA  ASP A   1     -10.872   6.927  67.003  1.00  0.00    -0.366 C  
ATOM      3  H1  ASP A   1      -9.794   6.798  65.209  1.00  0.00     0.000 HD 
ATOM      4  H2  ASP A   1      -9.969   5.323  66.004  1.00  0.00     0.000 HD 
ATOM      5  C   ASP A   1     -10.498   8.403  67.191  1.00  0.00    -0.310 C  
ATOM      6  O   ASP A   1      -9.845   8.894  66.110  1.00  0.00    -0.271 OA 
ATOM      7  OXT ASP A   1     -10.721   9.056  68.203  1.00  0.00    -0.195 OA 
ENDROOT
BRANCH   2   8
ATOM      8  CB  ASP A   1     -10.929   6.224  68.353  1.00  0.00    -0.409 C  
ATOM      9  CG  ASP A   1      -9.680   5.422  68.602  1.00  0.00    -0.138 C  
ATOM     10  OD2 ASP A   1      -8.668   5.899  69.093  1.00  0.00    -0.117 OA 
ATOM     11  OD1 ASP A   1      -9.767   4.121  68.247  1.00  0.00    -0.148 OA 
ENDBRANCH   2   8
TORSDOF 1
ENDMDL
MODEL      149
REMARK 921   NORMALIZED FREE ENERGY PREDICTED BY IDOCK:   -2.47 KCAL/MOL
REMARK 922        TOTAL FREE ENERGY PREDICTED BY IDOCK:   -2.86 KCAL/MOL
REMARK 923 INTER-LIGAND FREE ENERGY PREDICTED BY IDOCK:   -2.74 KCAL/MOL
REMARK 924 INTRA-LIGAND FREE ENERGY PREDICTED BY IDOCK:   -0.12 KCAL/MOL
REMARK 927      BINDING AFFINITY PREDICTED BY RF-SCORE:    0.00 PKD
ROOT
ATOM      1  N   ASP A   1      -6.408  18.284  69.364  1.00  0.00    -0.259 NA 
ATOM      2  CA  ASP A   1      -7.173  18.462  68.094  1.00  0.00    -0.261 C  
ATOM      3  H1  ASP A   1      -5.522  18.790  69.345  1.00  0.00     0.000 HD 
ATOM      4  H2  ASP A   1      -6.268  17.297  69.579  1.00  0.00     0.000 HD 
ATOM      5  C   ASP A   1      -7.427  19.967  67.937  1.00  0.00    -0.295 C  
ATOM      6  O   ASP A   1      -6.441  20.702  68.507  1.00  0.00    -0.301 OA 
ATOM      7  OXT ASP A   1      -8.414  20.457  67.401  1.00  0.00    -0.341 OA 
ENDROOT
BRANCH   2   8
ATOM      8  CB  ASP A   1      -8.495  17.708  68.123  1.00  0.00    -0.260 C  
ATOM      9  CG  ASP A   1      -8.748  17.003  66.816  1.00  0.00    -0.245 C  
ATOM     10  OD2 ASP A   1      -8.319  15.887  66.567  1.00  0.00    -0.265 OA 
ATOM     11  OD1 ASP A   1      -9.497  17.702  65.936  1.00  0.00    -0.514 OA 
ENDBRANCH   2   8
TORSDOF 1
ENDMDL
MODEL      150
REMARK 921   NORMALIZED FREE ENERGY PREDICTED BY IDOCK:   -2.46 KCAL/MOL
REMARK 922        TOTAL FREE ENERGY PREDICTED BY IDOCK:   -2.85 KCAL/MOL
REMARK 923 INTER-LIGAND FREE ENERGY PREDICTED BY IDOCK:   -2.34 KCAL/MOL
REMARK 924 INTRA-LIGAND FREE ENERGY PREDICTED BY IDOCK:   -0.50 KCAL/MOL
REMARK 927      BINDING AFFINITY PREDICTED BY RF-SCORE:    0.00 PKD
ROOT
ATOM      1  N   ASP A   1      -7.946  20.484  66.241  1.00  0.00    -0.529 NA 
ATOM      2  CA  ASP A   1      -6.945  20.446  67.348  1.00  0.00    -0.293 C  
ATOM      3  H1  ASP A   1      -7.508  20.685  65.343  1.00  0.00     0.000 HD 
ATOM      4  H2  ASP A   1      -8.699  21.142  66.443  1.00  0.00     0.000 HD 
ATOM      5  C   ASP A   1      -5.935  19.345  66.996  1.00  0.00    -0.177 C  
ATOM      6  O   ASP A   1      -5.804  19.200  65.655  1.00  0.00    -0.158 OA 
ATOM      7  OXT ASP A   1      -5.346  18.651  67.815  1.00  0.00    -0.166 OA 
ENDROOT
BRANCH   2   8
ATOM      8  CB  ASP A   1      -7.599  20.147  68.690  1.00  0.00    -0.074 C  
ATOM      9  CG  ASP A   1      -8.908  19.425  68.508  1.00  0.00    -0.366 C  
ATOM     10  OD2 ASP A   1      -8.990  18.211  68.398  1.00  0.00    -0.282 OA 
ATOM     11  OD1 ASP A   1      -9.994  20.228  68.484  1.00  0.00    -0.298 OA 
ENDBRANCH   2   8
TORSDOF 1
ENDMDL
MODEL      151
REMARK 921   NORMALIZED FREE ENERGY PREDICTED BY IDOCK:   -2.43 KCAL/MOL
REMARK 922        TOTAL FREE ENERGY PREDICTED BY IDOCK:   -2.82 KCAL/MOL
REMARK 923 INTER-LIGAND FREE ENERGY PREDICTED BY IDOCK:   -2.69 KCAL/MOL
REMARK 924 INTRA-LIGAND FREE ENERGY PREDICTED BY IDOCK:   -0.13 KCAL/MOL
REMARK 927      BINDING AFFINITY PREDICTED BY RF-SCORE:    0.00 PKD
ROOT
ATOM      1  N   ASP A   1     -11.463   6.377  67.270  1.00  0.00    -0.708 NA 
ATOM      2  CA  ASP A   1     -10.780   6.881  68.498  1.00  0.00    -0.207 C  
ATOM      3  H1  ASP A   1     -11.285   6.979  66.466  1.00  0.00     0.000 HD 
ATOM      4  H2  ASP A   1     -12.463   6.251  67.425  1.00  0.00     0.000 HD 
ATOM      5  C   ASP A   1      -9.278   6.916  68.188  1.00  0.00    -0.126 C  
ATOM      6  O   ASP A   1      -9.046   7.138  66.871  1.00  0.00    -0.130 OA 
ATOM      7  OXT ASP A   1      -8.390   6.728  69.011  1.00  0.00    -0.122 OA 
ENDROOT
BRANCH   2   8
ATOM      8  CB  ASP A   1     -11.046   5.983  69.699  1.00  0.00    -0.474 C  
ATOM      9  CG  ASP A   1     -11.585   6.774  70.862  1.00  0.00    -0.353 C  
ATOM     10  OD2 ASP A   1     -12.773   7.020  71.006  1.00  0.00    -0.367 OA 
ATOM     11  OD1 ASP A   1     -10.649   7.187  71.743  1.00  0.00    -0.207 OA 
ENDBRANCH   2   8
TORSDOF 1
ENDMDL
MODEL      152
REMARK 921   NORMALIZED FREE ENERGY PREDICTED BY IDOCK:   -2.43 KCAL/MOL
REMARK 922        TOTAL FREE ENERGY PREDICTED BY IDOCK:   -2.82 KCAL/MOL
REMARK 923 INTER-LIGAND FREE ENERGY PREDICTED BY IDOCK:   -2.32 KCAL/MOL
REMARK 924 INTRA-LIGAND FREE ENERGY PREDICTED BY IDOCK:   -0.50 KCAL/MOL
REMARK 927      BINDING AFFINITY PREDICTED BY RF-SCORE:    0.00 PKD
ROOT
ATOM      1  N   ASP A   1      -7.699  10.828  65.200  1.00  0.00    -0.353 NA 
ATOM      2  CA  ASP A   1      -9.124  10.951  65.630  1.00  0.00    -0.204 C  
ATOM      3  H1  ASP A   1      -7.057  10.965  65.980  1.00  0.00     0.000 HD 
ATOM      4  H2  ASP A   1      -7.487  11.461  64.429  1.00  0.00     0.000 HD 
ATOM      5  C   ASP A   1      -9.359   9.878  66.701  1.00  0.00    -0.157 C  
ATOM      6  O   ASP A   1      -8.226   9.612  67.396  1.00  0.00    -0.113 OA 
ATOM      7  OXT ASP A   1     -10.421   9.298  66.887  1.00  0.00    -0.248 OA 
ENDROOT
BRANCH   2   8
ATOM      8  CB  ASP A   1     -10.083  10.747  64.465  1.00  0.00    -0.415 C  
ATOM      9  CG  ASP A   1      -9.340  10.390  63.204  1.00  0.00    -0.312 C  
ATOM     10  OD2 ASP A   1      -9.027   9.245  62.917  1.00  0.00    -0.221 OA 
ATOM     11  OD1 ASP A   1      -9.051  11.440  62.406  1.00  0.00    -0.296 OA 
ENDBRANCH   2   8
TORSDOF 1
ENDMDL
MODEL      153
REMARK 921   NORMALIZED FREE ENERGY PREDICTED BY IDOCK:   -2.43 KCAL/MOL
REMARK 922        TOTAL FREE ENERGY PREDICTED BY IDOCK:   -2.81 KCAL/MOL
REMARK 923 INTER-LIGAND FREE ENERGY PREDICTED BY IDOCK:   -2.30 KCAL/MOL
REMARK 924 INTRA-LIGAND FREE ENERGY PREDICTED BY IDOCK:   -0.52 KCAL/MOL
REMARK 927      BINDING AFFINITY PREDICTED BY RF-SCORE:    0.00 PKD
ROOT
ATOM      1  N   ASP A   1      -8.395   6.892  70.881  1.00  0.00    -0.129 NA 
ATOM      2  CA  ASP A   1      -9.649   7.641  70.571  1.00  0.00    -0.167 C  
ATOM      3  H1  ASP A   1      -7.611   7.522  71.049  1.00  0.00     0.000 HD 
ATOM      4  H2  ASP A   1      -8.177   6.213  70.151  1.00  0.00     0.000 HD 
ATOM      5  C   ASP A   1      -9.942   8.536  71.783  1.00  0.00    -0.275 C  
ATOM      6  O   ASP A   1      -8.802   8.906  72.417  1.00  0.00    -0.396 OA 
ATOM      7  OXT ASP A   1     -11.063   8.850  72.165  1.00  0.00    -0.362 OA 
ENDROOT
BRANCH   2   8
ATOM      8  CB  ASP A   1     -10.819   6.701  70.320  1.00  0.00    -0.321 C  
ATOM      9  CG  ASP A   1     -10.473   5.286  70.703  1.00  0.00    -0.236 C  
ATOM     10  OD2 ASP A   1     -10.599   4.853  71.838  1.00  0.00    -0.191 OA 
ATOM     11  OD1 ASP A   1     -10.016   4.524  69.685  1.00  0.00    -0.219 OA 
ENDBRANCH   2   8
TORSDOF 1
ENDMDL
MODEL      154
REMARK 921   NORMALIZED FREE ENERGY PREDICTED BY IDOCK:   -2.42 KCAL/MOL
REMARK 922        TOTAL FREE ENERGY PREDICTED BY IDOCK:   -2.81 KCAL/MOL
REMARK 923 INTER-LIGAND FREE ENERGY PREDICTED BY IDOCK:   -2.81 KCAL/MOL
REMARK 924 INTRA-LIGAND FREE ENERGY PREDICTED BY IDOCK:   -0.00 KCAL/MOL
REMARK 927      BINDING AFFINITY PREDICTED BY RF-SCORE:    0.00 PKD
ROOT
ATOM      1  N   ASP A   1     -10.965   7.364  73.447  1.00  0.00    -0.548 NA 
ATOM      2  CA  ASP A   1     -10.315   7.460  72.106  1.00  0.00    -0.199 C  
ATOM      3  H1  ASP A   1     -10.307   7.059  74.164  1.00  0.00     0.000 HD 
ATOM      4  H2  ASP A   1     -11.788   6.763  73.419  1.00  0.00     0.000 HD 
ATOM      5  C   ASP A   1      -9.173   8.476  72.239  1.00  0.00    -0.272 C  
ATOM      6  O   ASP A   1      -8.660   8.489  73.493  1.00  0.00    -0.341 OA 
ATOM      7  OXT ASP A   1      -8.790   9.218  71.342  1.00  0.00    -0.313 OA 
ENDROOT
BRANCH   2   8
ATOM      8  CB  ASP A   1     -11.297   7.914  71.035  1.00  0.00    -0.292 C  
ATOM      9  CG  ASP A   1     -11.008   7.252  69.714  1.00  0.00    -0.216 C  
ATOM     10  OD2 ASP A   1     -11.452   6.157  69.406  1.00  0.00    -0.423 OA 
ATOM     11  OD1 ASP A   1     -10.219   7.971  68.886  1.00  0.00    -0.201 OA 
ENDBRANCH   2   8
TORSDOF 1
ENDMDL
MODEL      155
REMARK 921   NORMALIZED FREE ENERGY PREDICTED BY IDOCK:   -2.40 KCAL/MOL
REMARK 922        TOTAL FREE ENERGY PREDICTED BY IDOCK:   -2.78 KCAL/MOL
REMARK 923 INTER-LIGAND FREE ENERGY PREDICTED BY IDOCK:   -2.31 KCAL/MOL
REMARK 924 INTRA-LIGAND FREE ENERGY PREDICTED BY IDOCK:   -0.47 KCAL/MOL
REMARK 927      BINDING AFFINITY PREDICTED BY RF-SCORE:    0.00 PKD
ROOT
ATOM      1  N   ASP A   1      -8.997  13.435  66.913  1.00  0.00    -0.304 NA 
ATOM      2  CA  ASP A   1     -10.257  12.937  66.284  1.00  0.00    -0.278 C  
ATOM      3  H1  ASP A   1      -9.149  14.303  67.426  1.00  0.00     0.000 HD 
ATOM      4  H2  ASP A   1      -8.252  13.536  66.224  1.00  0.00     0.000 HD 
ATOM      5  C   ASP A   1     -11.260  12.707  67.422  1.00  0.00    -0.290 C  
ATOM      6  O   ASP A   1     -11.042  13.555  68.457  1.00  0.00    -0.249 OA 
ATOM      7  OXT ASP A   1     -12.129  11.844  67.424  1.00  0.00    -0.577 OA 
ENDROOT
BRANCH   2   8
ATOM      8  CB  ASP A   1     -10.030  11.641  65.517  1.00  0.00    -0.277 C  
ATOM      9  CG  ASP A   1      -8.879  10.860  66.097  1.00  0.00    -0.186 C  
ATOM     10  OD2 ASP A   1      -9.006  10.080  67.028  1.00  0.00    -0.137 OA 
ATOM     11  OD1 ASP A   1      -7.690  11.085  65.498  1.00  0.00    -0.012 OA 
ENDBRANCH   2   8
TORSDOF 1
ENDMDL
MODEL      156
REMARK 921   NORMALIZED FREE ENERGY PREDICTED BY IDOCK:   -2.39 KCAL/MOL
REMARK 922        TOTAL FREE ENERGY PREDICTED BY IDOCK:   -2.78 KCAL/MOL
REMARK 923 INTER-LIGAND FREE ENERGY PREDICTED BY IDOCK:   -2.65 KCAL/MOL
REMARK 924 INTRA-LIGAND FREE ENERGY PREDICTED BY IDOCK:   -0.13 KCAL/MOL
REMARK 927      BINDING AFFINITY PREDICTED BY RF-SCORE:    0.00 PKD
ROOT
ATOM      1  N   ASP A   1     -11.258   4.410  64.969  1.00  0.00    -1.057 NA 
ATOM      2  CA  ASP A   1     -10.248   5.027  65.880  1.00  0.00    -0.178 C  
ATOM      3  H1  ASP A   1     -10.814   3.898  64.207  1.00  0.00     0.000 HD 
ATOM      4  H2  ASP A   1     -11.916   5.105  64.617  1.00  0.00     0.000 HD 
ATOM      5  C   ASP A   1      -9.396   3.881  66.440  1.00  0.00    -0.182 C  
ATOM      6  O   ASP A   1      -9.310   2.850  65.565  1.00  0.00    -0.149 OA 
ATOM      7  OXT ASP A   1      -8.885   3.870  67.554  1.00  0.00    -0.105 OA 
ENDROOT
BRANCH   2   8
ATOM      8  CB  ASP A   1     -10.910   5.792  67.018  1.00  0.00    -0.328 C  
ATOM      9  CG  ASP A   1     -10.273   7.143  67.210  1.00  0.00    -0.245 C  
ATOM     10  OD2 ASP A   1     -10.612   8.135  66.582  1.00  0.00    -0.272 OA 
ATOM     11  OD1 ASP A   1      -9.295   7.177  68.141  1.00  0.00    -0.131 OA 
ENDBRANCH   2   8
TORSDOF 1
ENDMDL
MODEL      157
REMARK 921   NORMALIZED FREE ENERGY PREDICTED BY IDOCK:   -2.39 KCAL/MOL
REMARK 922        TOTAL FREE ENERGY PREDICTED BY IDOCK:   -2.78 KCAL/MOL
REMARK 923 INTER-LIGAND FREE ENERGY PREDICTED BY IDOCK:   -2.26 KCAL/MOL
REMARK 924 INTRA-LIGAND FREE ENERGY PREDICTED BY IDOCK:   -0.52 KCAL/MOL
REMARK 927      BINDING AFFINITY PREDICTED BY RF-SCORE:    0.00 PKD
ROOT
ATOM      1  N   ASP A   1     -10.227   5.049  69.706  1.00  0.00    -0.277 NA 
ATOM      2  CA  ASP A   1     -11.149   6.107  69.196  1.00  0.00    -0.378 C  
ATOM      3  H1  ASP A   1     -10.380   4.157  69.236  1.00  0.00     0.000 HD 
ATOM      4  H2  ASP A   1     -10.296   4.952  70.719  1.00  0.00     0.000 HD 
ATOM      5  C   ASP A   1     -10.873   6.249  67.693  1.00  0.00    -0.346 C  
ATOM      6  O   ASP A   1     -10.453   5.079  67.151  1.00  0.00    -0.194 OA 
ATOM      7  OXT ASP A   1     -10.977   7.291  67.059  1.00  0.00    -0.358 OA 
ENDROOT
BRANCH   2   8
ATOM      8  CB  ASP A   1     -10.920   7.439  69.897  1.00  0.00    -0.239 C  
ATOM      9  CG  ASP A   1      -9.658   7.413  70.718  1.00  0.00    -0.170 C  
ATOM     10  OD2 ASP A   1      -8.557   7.670  70.255  1.00  0.00    -0.139 OA 
ATOM     11  OD1 ASP A   1      -9.838   7.088  72.017  1.00  0.00    -0.160 OA 
ENDBRANCH   2   8
TORSDOF 1
ENDMDL
MODEL      158
REMARK 921   NORMALIZED FREE ENERGY PREDICTED BY IDOCK:   -2.38 KCAL/MOL
REMARK 922        TOTAL FREE ENERGY PREDICTED BY IDOCK:   -2.76 KCAL/MOL
REMARK 923 INTER-LIGAND FREE ENERGY PREDICTED BY IDOCK:   -2.63 KCAL/MOL
REMARK 924 INTRA-LIGAND FREE ENERGY PREDICTED BY IDOCK:   -0.13 KCAL/MOL
REMARK 927      BINDING AFFINITY PREDICTED BY RF-SCORE:    0.00 PKD
ROOT
ATOM      1  N   ASP A   1     -11.903   6.870  69.714  1.00  0.00    -0.632 NA 
ATOM      2  CA  ASP A   1     -10.894   6.310  70.663  1.00  0.00    -0.280 C  
ATOM      3  H1  ASP A   1     -11.476   7.146  68.830  1.00  0.00     0.000 HD 
ATOM      4  H2  ASP A   1     -12.421   7.641  70.134  1.00  0.00     0.000 HD 
ATOM      5  C   ASP A   1     -10.267   5.090  69.976  1.00  0.00    -0.269 C  
ATOM      6  O   ASP A   1     -10.259   5.227  68.627  1.00  0.00    -0.179 OA 
ATOM      7  OXT ASP A   1      -9.859   4.093  70.559  1.00  0.00    -0.204 OA 
ENDROOT
BRANCH   2   8
ATOM      8  CB  ASP A   1     -11.531   5.898  71.983  1.00  0.00    -0.311 C  
ATOM      9  CG  ASP A   1     -10.730   6.402  73.155  1.00  0.00    -0.268 C  
ATOM     10  OD2 ASP A   1     -10.879   7.515  73.634  1.00  0.00    -0.329 OA 
ATOM     11  OD1 ASP A   1      -9.834   5.518  73.643  1.00  0.00    -0.157 OA 
ENDBRANCH   2   8
TORSDOF 1
ENDMDL
MODEL      159
REMARK 921   NORMALIZED FREE ENERGY PREDICTED BY IDOCK:   -2.36 KCAL/MOL
REMARK 922        TOTAL FREE ENERGY PREDICTED BY IDOCK:   -2.75 KCAL/MOL
REMARK 923 INTER-LIGAND FREE ENERGY PREDICTED BY IDOCK:   -2.51 KCAL/MOL
REMARK 924 INTRA-LIGAND FREE ENERGY PREDICTED BY IDOCK:   -0.24 KCAL/MOL
REMARK 927      BINDING AFFINITY PREDICTED BY RF-SCORE:    0.00 PKD
ROOT
ATOM      1  N   ASP A   1      -8.927  14.345  66.452  1.00  0.00    -0.476 NA 
ATOM      2  CA  ASP A   1      -8.002  15.352  67.053  1.00  0.00    -0.224 C  
ATOM      3  H1  ASP A   1      -8.441  13.478  66.222  1.00  0.00     0.000 HD 
ATOM      4  H2  ASP A   1      -9.416  14.724  65.642  1.00  0.00     0.000 HD 
ATOM      5  C   ASP A   1      -7.420  14.719  68.323  1.00  0.00    -0.115 C  
ATOM      6  O   ASP A   1      -7.338  13.370  68.215  1.00  0.00    -0.093 OA 
ATOM      7  OXT ASP A   1      -7.103  15.340  69.331  1.00  0.00    -0.160 OA 
ENDROOT
BRANCH   2   8
ATOM      8  CB  ASP A   1      -8.727  16.646  67.397  1.00  0.00    -0.202 C  
ATOM      9  CG  ASP A   1      -9.144  17.385  66.153  1.00  0.00    -0.145 C  
ATOM     10  OD2 ASP A   1     -10.191  17.163  65.565  1.00  0.00    -0.592 OA 
ATOM     11  OD1 ASP A   1      -8.267  18.325  65.738  1.00  0.00    -0.503 OA 
ENDBRANCH   2   8
TORSDOF 1
ENDMDL
MODEL      160
REMARK 921   NORMALIZED FREE ENERGY PREDICTED BY IDOCK:   -2.36 KCAL/MOL
REMARK 922        TOTAL FREE ENERGY PREDICTED BY IDOCK:   -2.75 KCAL/MOL
REMARK 923 INTER-LIGAND FREE ENERGY PREDICTED BY IDOCK:   -2.38 KCAL/MOL
REMARK 924 INTRA-LIGAND FREE ENERGY PREDICTED BY IDOCK:   -0.36 KCAL/MOL
REMARK 927      BINDING AFFINITY PREDICTED BY RF-SCORE:    0.00 PKD
ROOT
ATOM      1  N   ASP A   1     -11.326   6.467  67.211  1.00  0.00    -0.769 NA 
ATOM      2  CA  ASP A   1      -9.871   6.729  67.000  1.00  0.00    -0.167 C  
ATOM      3  H1  ASP A   1     -11.743   7.147  67.847  1.00  0.00     0.000 HD 
ATOM      4  H2  ASP A   1     -11.491   5.512  67.527  1.00  0.00     0.000 HD 
ATOM      5  C   ASP A   1      -9.754   8.141  66.413  1.00  0.00    -0.205 C  
ATOM      6  O   ASP A   1     -10.762   8.942  66.836  1.00  0.00    -0.230 OA 
ATOM      7  OXT ASP A   1      -8.886   8.502  65.628  1.00  0.00    -0.174 OA 
ENDROOT
BRANCH   2   8
ATOM      8  CB  ASP A   1      -9.248   5.714  66.051  1.00  0.00    -0.164 C  
ATOM      9  CG  ASP A   1     -10.105   4.481  65.933  1.00  0.00    -0.258 C  
ATOM     10  OD2 ASP A   1     -11.032   4.387  65.143  1.00  0.00    -0.251 OA 
ATOM     11  OD1 ASP A   1      -9.763   3.477  66.769  1.00  0.00    -0.164 OA 
ENDBRANCH   2   8
TORSDOF 1
ENDMDL
MODEL      161
REMARK 921   NORMALIZED FREE ENERGY PREDICTED BY IDOCK:   -2.34 KCAL/MOL
REMARK 922        TOTAL FREE ENERGY PREDICTED BY IDOCK:   -2.72 KCAL/MOL
REMARK 923 INTER-LIGAND FREE ENERGY PREDICTED BY IDOCK:   -2.21 KCAL/MOL
REMARK 924 INTRA-LIGAND FREE ENERGY PREDICTED BY IDOCK:   -0.52 KCAL/MOL
REMARK 927      BINDING AFFINITY PREDICTED BY RF-SCORE:    0.00 PKD
ROOT
ATOM      1  N   ASP A   1      -6.303  17.301  69.586  1.00  0.00    -0.239 NA 
ATOM      2  CA  ASP A   1      -6.816  17.932  68.333  1.00  0.00    -0.227 C  
ATOM      3  H1  ASP A   1      -5.564  17.859  70.013  1.00  0.00     0.000 HD 
ATOM      4  H2  ASP A   1      -5.998  16.342  69.422  1.00  0.00     0.000 HD 
ATOM      5  C   ASP A   1      -7.355  19.315  68.720  1.00  0.00    -0.346 C  
ATOM      6  O   ASP A   1      -6.690  19.830  69.783  1.00  0.00    -0.340 OA 
ATOM      7  OXT ASP A   1      -8.296  19.876  68.172  1.00  0.00    -0.304 OA 
ENDROOT
BRANCH   2   8
ATOM      8  CB  ASP A   1      -7.919  17.099  67.694  1.00  0.00    -0.187 C  
ATOM      9  CG  ASP A   1      -8.531  16.150  68.691  1.00  0.00    -0.216 C  
ATOM     10  OD2 ASP A   1      -9.445  16.466  69.438  1.00  0.00    -0.222 OA 
ATOM     11  OD1 ASP A   1      -7.993  14.911  68.691  1.00  0.00    -0.129 OA 
ENDBRANCH   2   8
TORSDOF 1
ENDMDL
MODEL      162
REMARK 921   NORMALIZED FREE ENERGY PREDICTED BY IDOCK:   -2.32 KCAL/MOL
REMARK 922        TOTAL FREE ENERGY PREDICTED BY IDOCK:   -2.70 KCAL/MOL
REMARK 923 INTER-LIGAND FREE ENERGY PREDICTED BY IDOCK:   -2.58 KCAL/MOL
REMARK 924 INTRA-LIGAND FREE ENERGY PREDICTED BY IDOCK:   -0.12 KCAL/MOL
REMARK 927      BINDING AFFINITY PREDICTED BY RF-SCORE:    0.00 PKD
ROOT
ATOM      1  N   ASP A   1     -10.908  10.262  69.971  1.00  0.00    -0.292 NA 
ATOM      2  CA  ASP A   1     -10.642  10.704  68.570  1.00  0.00    -0.200 C  
ATOM      3  H1  ASP A   1     -10.753  11.017  70.640  1.00  0.00     0.000 HD 
ATOM      4  H2  ASP A   1     -10.361   9.435  70.211  1.00  0.00     0.000 HD 
ATOM      5  C   ASP A   1     -11.600  11.867  68.282  1.00  0.00    -0.327 C  
ATOM      6  O   ASP A   1     -11.891  12.564  69.408  1.00  0.00    -0.305 OA 
ATOM      7  OXT ASP A   1     -12.082  12.121  67.185  1.00  0.00    -0.575 OA 
ENDROOT
BRANCH   2   8
ATOM      8  CB  ASP A   1     -10.872   9.578  67.571  1.00  0.00    -0.239 C  
ATOM      9  CG  ASP A   1      -9.776   9.531  66.540  1.00  0.00    -0.222 C  
ATOM     10  OD2 ASP A   1      -8.727   8.929  66.710  1.00  0.00    -0.116 OA 
ATOM     11  OD1 ASP A   1     -10.046  10.206  65.402  1.00  0.00    -0.303 OA 
ENDBRANCH   2   8
TORSDOF 1
ENDMDL
MODEL      163
REMARK 921   NORMALIZED FREE ENERGY PREDICTED BY IDOCK:   -2.32 KCAL/MOL
REMARK 922        TOTAL FREE ENERGY PREDICTED BY IDOCK:   -2.70 KCAL/MOL
REMARK 923 INTER-LIGAND FREE ENERGY PREDICTED BY IDOCK:   -2.59 KCAL/MOL
REMARK 924 INTRA-LIGAND FREE ENERGY PREDICTED BY IDOCK:   -0.11 KCAL/MOL
REMARK 927      BINDING AFFINITY PREDICTED BY RF-SCORE:    0.00 PKD
ROOT
ATOM      1  N   ASP A   1      -9.433  16.391  65.662  1.00  0.00    -0.484 NA 
ATOM      2  CA  ASP A   1     -10.160  17.525  66.307  1.00  0.00    -0.336 C  
ATOM      3  H1  ASP A   1     -10.077  15.725  65.234  1.00  0.00     0.000 HD 
ATOM      4  H2  ASP A   1      -8.804  15.930  66.318  1.00  0.00     0.000 HD 
ATOM      5  C   ASP A   1     -10.977  18.213  65.206  1.00  0.00     0.601 C  
ATOM      6  O   ASP A   1     -11.346  17.338  64.239  1.00  0.00    -1.027 OA 
ATOM      7  OXT ASP A   1     -11.235  19.410  65.172  1.00  0.00    -0.237 OA 
ENDROOT
BRANCH   2   8
ATOM      8  CB  ASP A   1      -9.200  18.519  66.946  1.00  0.00    -0.290 C  
ATOM      9  CG  ASP A   1      -9.699  18.971  68.293  1.00  0.00    -0.361 C  
ATOM     10  OD2 ASP A   1      -9.474  18.360  69.326  1.00  0.00    -0.082 OA 
ATOM     11  OD1 ASP A   1     -10.414  20.116  68.271  1.00  0.00    -0.373 OA 
ENDBRANCH   2   8
TORSDOF 1
ENDMDL
MODEL      164
REMARK 921   NORMALIZED FREE ENERGY PREDICTED BY IDOCK:   -2.31 KCAL/MOL
REMARK 922        TOTAL FREE ENERGY PREDICTED BY IDOCK:   -2.69 KCAL/MOL
REMARK 923 INTER-LIGAND FREE ENERGY PREDICTED BY IDOCK:   -2.55 KCAL/MOL
REMARK 924 INTRA-LIGAND FREE ENERGY PREDICTED BY IDOCK:   -0.13 KCAL/MOL
REMARK 927      BINDING AFFINITY PREDICTED BY RF-SCORE:    0.00 PKD
ROOT
ATOM      1  N   ASP A   1     -10.778   6.694  71.522  1.00  0.00    -0.226 NA 
ATOM      2  CA  ASP A   1     -11.292   7.746  70.595  1.00  0.00    -0.264 C  
ATOM      3  H1  ASP A   1     -11.106   5.765  71.257  1.00  0.00     0.000 HD 
ATOM      4  H2  ASP A   1     -11.009   6.908  72.492  1.00  0.00     0.000 HD 
ATOM      5  C   ASP A   1     -10.784   7.387  69.192  1.00  0.00    -0.166 C  
ATOM      6  O   ASP A   1     -10.634   6.048  69.043  1.00  0.00    -0.227 OA 
ATOM      7  OXT ASP A   1     -10.507   8.201  68.320  1.00  0.00    -0.204 OA 
ENDROOT
BRANCH   2   8
ATOM      8  CB  ASP A   1     -10.802   9.132  70.990  1.00  0.00    -0.362 C  
ATOM      9  CG  ASP A   1     -11.928  10.132  70.976  1.00  0.00    -0.378 C  
ATOM     10  OD2 ASP A   1     -12.668  10.315  71.931  1.00  0.00    -0.415 OA 
ATOM     11  OD1 ASP A   1     -12.054  10.821  69.821  1.00  0.00    -0.312 OA 
ENDBRANCH   2   8
TORSDOF 1
ENDMDL
MODEL      165
REMARK 921   NORMALIZED FREE ENERGY PREDICTED BY IDOCK:   -2.30 KCAL/MOL
REMARK 922        TOTAL FREE ENERGY PREDICTED BY IDOCK:   -2.69 KCAL/MOL
REMARK 923 INTER-LIGAND FREE ENERGY PREDICTED BY IDOCK:   -2.17 KCAL/MOL
REMARK 924 INTRA-LIGAND FREE ENERGY PREDICTED BY IDOCK:   -0.51 KCAL/MOL
REMARK 927      BINDING AFFINITY PREDICTED BY RF-SCORE:    0.00 PKD
ROOT
ATOM      1  N   ASP A   1      -7.605  15.655  68.455  1.00  0.00    -0.118 NA 
ATOM      2  CA  ASP A   1      -7.381  17.051  67.974  1.00  0.00    -0.180 C  
ATOM      3  H1  ASP A   1      -6.734  15.214  68.750  1.00  0.00     0.000 HD 
ATOM      4  H2  ASP A   1      -8.088  15.093  67.754  1.00  0.00     0.000 HD 
ATOM      5  C   ASP A   1      -6.764  17.830  69.143  1.00  0.00    -0.239 C  
ATOM      6  O   ASP A   1      -6.029  17.023  69.947  1.00  0.00    -0.223 OA 
ATOM      7  OXT ASP A   1      -6.940  19.023  69.358  1.00  0.00    -0.288 OA 
ENDROOT
BRANCH   2   8
ATOM      8  CB  ASP A   1      -8.681  17.710  67.533  1.00  0.00    -0.234 C  
ATOM      9  CG  ASP A   1      -9.875  17.012  68.128  1.00  0.00    -0.273 C  
ATOM     10  OD2 ASP A   1     -10.320  17.279  69.234  1.00  0.00    -0.322 OA 
ATOM     11  OD1 ASP A   1     -10.424  16.065  67.337  1.00  0.00    -0.296 OA 
ENDBRANCH   2   8
TORSDOF 1
ENDMDL
MODEL      166
REMARK 921   NORMALIZED FREE ENERGY PREDICTED BY IDOCK:   -2.30 KCAL/MOL
REMARK 922        TOTAL FREE ENERGY PREDICTED BY IDOCK:   -2.68 KCAL/MOL
REMARK 923 INTER-LIGAND FREE ENERGY PREDICTED BY IDOCK:   -2.40 KCAL/MOL
REMARK 924 INTRA-LIGAND FREE ENERGY PREDICTED BY IDOCK:   -0.29 KCAL/MOL
REMARK 927      BINDING AFFINITY PREDICTED BY RF-SCORE:    0.00 PKD
ROOT
ATOM      1  N   ASP A   1      -7.325  16.055  67.176  1.00  0.00    -0.203 NA 
ATOM      2  CA  ASP A   1      -6.317  17.015  67.716  1.00  0.00    -0.142 C  
ATOM      3  H1  ASP A   1      -7.103  15.092  67.430  1.00  0.00     0.000 HD 
ATOM      4  H2  ASP A   1      -7.435  16.157  66.167  1.00  0.00     0.000 HD 
ATOM      5  C   ASP A   1      -6.326  16.857  69.242  1.00  0.00    -0.223 C  
ATOM      6  O   ASP A   1      -6.658  15.596  69.611  1.00  0.00    -0.167 OA 
ATOM      7  OXT ASP A   1      -6.102  17.760  70.039  1.00  0.00    -0.227 OA 
ENDROOT
BRANCH   2   8
ATOM      8  CB  ASP A   1      -6.649  18.452  67.336  1.00  0.00    -0.199 C  
ATOM      9  CG  ASP A   1      -7.412  18.510  66.039  1.00  0.00    -0.224 C  
ATOM     10  OD2 ASP A   1      -8.626  18.399  65.974  1.00  0.00    -0.501 OA 
ATOM     11  OD1 ASP A   1      -6.644  18.703  64.944  1.00  0.00    -0.514 OA 
ENDBRANCH   2   8
TORSDOF 1
ENDMDL
MODEL      167
REMARK 921   NORMALIZED FREE ENERGY PREDICTED BY IDOCK:   -2.28 KCAL/MOL
REMARK 922        TOTAL FREE ENERGY PREDICTED BY IDOCK:   -2.66 KCAL/MOL
REMARK 923 INTER-LIGAND FREE ENERGY PREDICTED BY IDOCK:   -2.42 KCAL/MOL
REMARK 924 INTRA-LIGAND FREE ENERGY PREDICTED BY IDOCK:   -0.25 KCAL/MOL
REMARK 927      BINDING AFFINITY PREDICTED BY RF-SCORE:    0.00 PKD
ROOT
ATOM      1  N   ASP A   1     -11.342  12.711  67.249  1.00  0.00    -0.299 NA 
ATOM      2  CA  ASP A   1     -10.729  11.431  66.786  1.00  0.00    -0.271 C  
ATOM      3  H1  ASP A   1     -11.981  12.562  68.030  1.00  0.00     0.000 HD 
ATOM      4  H2  ASP A   1     -11.801  13.203  66.482  1.00  0.00     0.000 HD 
ATOM      5  C   ASP A   1      -9.970  10.843  67.983  1.00  0.00    -0.171 C  
ATOM      6  O   ASP A   1     -10.546  11.195  69.159  1.00  0.00    -0.213 OA 
ATOM      7  OXT ASP A   1      -8.949  10.173  67.902  1.00  0.00    -0.127 OA 
ENDROOT
BRANCH   2   8
ATOM      8  CB  ASP A   1      -9.776  11.653  65.620  1.00  0.00    -0.262 C  
ATOM      9  CG  ASP A   1     -10.514  12.126  64.395  1.00  0.00    -0.317 C  
ATOM     10  OD2 ASP A   1     -10.767  13.302  64.182  1.00  0.00    -0.405 OA 
ATOM     11  OD1 ASP A   1     -10.871  11.143  63.540  1.00  0.00    -0.352 OA 
ENDBRANCH   2   8
TORSDOF 1
ENDMDL
MODEL      168
REMARK 921   NORMALIZED FREE ENERGY PREDICTED BY IDOCK:   -2.27 KCAL/MOL
REMARK 922        TOTAL FREE ENERGY PREDICTED BY IDOCK:   -2.65 KCAL/MOL
REMARK 923 INTER-LIGAND FREE ENERGY PREDICTED BY IDOCK:   -2.14 KCAL/MOL
REMARK 924 INTRA-LIGAND FREE ENERGY PREDICTED BY IDOCK:   -0.51 KCAL/MOL
REMARK 927      BINDING AFFINITY PREDICTED BY RF-SCORE:    0.00 PKD
ROOT
ATOM      1  N   ASP A   1      -9.343  14.480  67.838  1.00  0.00    -0.196 NA 
ATOM      2  CA  ASP A   1      -8.950  15.482  68.873  1.00  0.00    -0.220 C  
ATOM      3  H1  ASP A   1     -10.351  14.325  67.827  1.00  0.00     0.000 HD 
ATOM      4  H2  ASP A   1      -8.834  13.604  67.955  1.00  0.00     0.000 HD 
ATOM      5  C   ASP A   1      -9.680  16.787  68.528  1.00  0.00    -0.248 C  
ATOM      6  O   ASP A   1     -10.861  16.547  67.906  1.00  0.00    -0.342 OA 
ATOM      7  OXT ASP A   1      -9.244  17.910  68.745  1.00  0.00    -0.286 OA 
ENDROOT
BRANCH   2   8
ATOM      8  CB  ASP A   1      -7.445  15.713  68.889  1.00  0.00    -0.162 C  
ATOM      9  CG  ASP A   1      -6.818  15.309  67.581  1.00  0.00    -0.180 C  
ATOM     10  OD2 ASP A   1      -6.744  16.057  66.618  1.00  0.00    -0.224 OA 
ATOM     11  OD1 ASP A   1      -6.333  14.048  67.557  1.00  0.00    -0.284 OA 
ENDBRANCH   2   8
TORSDOF 1
ENDMDL
MODEL      169
REMARK 921   NORMALIZED FREE ENERGY PREDICTED BY IDOCK:   -2.27 KCAL/MOL
REMARK 922        TOTAL FREE ENERGY PREDICTED BY IDOCK:   -2.65 KCAL/MOL
REMARK 923 INTER-LIGAND FREE ENERGY PREDICTED BY IDOCK:   -2.39 KCAL/MOL
REMARK 924 INTRA-LIGAND FREE ENERGY PREDICTED BY IDOCK:   -0.26 KCAL/MOL
REMARK 927      BINDING AFFINITY PREDICTED BY RF-SCORE:    0.00 PKD
ROOT
ATOM      1  N   ASP A   1      -7.682  10.416  64.114  1.00  0.00    -0.312 NA 
ATOM      2  CA  ASP A   1      -9.121  10.025  64.198  1.00  0.00    -0.255 C  
ATOM      3  H1  ASP A   1      -7.369  10.495  63.146  1.00  0.00     0.000 HD 
ATOM      4  H2  ASP A   1      -7.091   9.777  64.645  1.00  0.00     0.000 HD 
ATOM      5  C   ASP A   1      -9.921  11.115  63.472  1.00  0.00    -0.379 C  
ATOM      6  O   ASP A   1      -9.197  11.685  62.477  1.00  0.00    -0.302 OA 
ATOM      7  OXT ASP A   1     -11.056  11.464  63.770  1.00  0.00    -0.392 OA 
ENDROOT
BRANCH   2   8
ATOM      8  CB  ASP A   1      -9.589   9.908  65.643  1.00  0.00    -0.320 C  
ATOM      9  CG  ASP A   1      -8.848   8.815  66.368  1.00  0.00    -0.147 C  
ATOM     10  OD2 ASP A   1      -7.771   8.991  66.916  1.00  0.00    -0.096 OA 
ATOM     11  OD1 ASP A   1      -9.474   7.618  66.371  1.00  0.00    -0.190 OA 
ENDBRANCH   2   8
TORSDOF 1
ENDMDL
MODEL      170
REMARK 921   NORMALIZED FREE ENERGY PREDICTED BY IDOCK:   -2.27 KCAL/MOL
REMARK 922        TOTAL FREE ENERGY PREDICTED BY IDOCK:   -2.64 KCAL/MOL
REMARK 923 INTER-LIGAND FREE ENERGY PREDICTED BY IDOCK:   -2.39 KCAL/MOL
REMARK 924 INTRA-LIGAND FREE ENERGY PREDICTED BY IDOCK:   -0.25 KCAL/MOL
REMARK 927      BINDING AFFINITY PREDICTED BY RF-SCORE:    0.00 PKD
ROOT
ATOM      1  N   ASP A   1      -9.776   6.515  71.180  1.00  0.00    -0.174 NA 
ATOM      2  CA  ASP A   1      -9.716   7.870  71.803  1.00  0.00    -0.170 C  
ATOM      3  H1  ASP A   1      -8.941   6.316  70.629  1.00  0.00     0.000 HD 
ATOM      4  H2  ASP A   1     -10.624   6.397  70.626  1.00  0.00     0.000 HD 
ATOM      5  C   ASP A   1      -8.473   7.891  72.703  1.00  0.00    -0.150 C  
ATOM      6  O   ASP A   1      -7.502   7.071  72.230  1.00  0.00    -0.084 OA 
ATOM      7  OXT ASP A   1      -8.373   8.532  73.741  1.00  0.00    -0.362 OA 
ENDROOT
BRANCH   2   8
ATOM      8  CB  ASP A   1     -10.963   8.167  72.626  1.00  0.00    -0.440 C  
ATOM      9  CG  ASP A   1     -12.188   8.237  71.753  1.00  0.00    -0.326 C  
ATOM     10  OD2 ASP A   1     -12.842   7.253  71.443  1.00  0.00    -0.366 OA 
ATOM     11  OD1 ASP A   1     -12.515   9.481  71.341  1.00  0.00    -0.321 OA 
ENDBRANCH   2   8
TORSDOF 1
ENDMDL
MODEL      171
REMARK 921   NORMALIZED FREE ENERGY PREDICTED BY IDOCK:   -2.23 KCAL/MOL
REMARK 922        TOTAL FREE ENERGY PREDICTED BY IDOCK:   -2.60 KCAL/MOL
REMARK 923 INTER-LIGAND FREE ENERGY PREDICTED BY IDOCK:   -2.38 KCAL/MOL
REMARK 924 INTRA-LIGAND FREE ENERGY PREDICTED BY IDOCK:   -0.22 KCAL/MOL
REMARK 927      BINDING AFFINITY PREDICTED BY RF-SCORE:    0.00 PKD
ROOT
ATOM      1  N   ASP A   1      -9.310  14.677  69.108  1.00  0.00    -0.378 NA 
ATOM      2  CA  ASP A   1      -8.559  14.140  67.934  1.00  0.00    -0.178 C  
ATOM      3  H1  ASP A   1      -9.073  14.180  69.966  1.00  0.00     0.000 HD 
ATOM      4  H2  ASP A   1     -10.316  14.670  68.940  1.00  0.00     0.000 HD 
ATOM      5  C   ASP A   1      -7.066  14.311  68.247  1.00  0.00    -0.111 C  
ATOM      6  O   ASP A   1      -6.826  14.245  69.580  1.00  0.00    -0.131 OA 
ATOM      7  OXT ASP A   1      -6.197  14.521  67.411  1.00  0.00    -0.333 OA 
ENDROOT
BRANCH   2   8
ATOM      8  CB  ASP A   1      -8.913  14.882  66.652  1.00  0.00    -0.301 C  
ATOM      9  CG  ASP A   1     -10.295  14.519  66.177  1.00  0.00    -0.297 C  
ATOM     10  OD2 ASP A   1     -11.304  15.082  66.573  1.00  0.00    -0.341 OA 
ATOM     11  OD1 ASP A   1     -10.333  13.520  65.269  1.00  0.00    -0.310 OA 
ENDBRANCH   2   8
TORSDOF 1
ENDMDL
MODEL      172
REMARK 921   NORMALIZED FREE ENERGY PREDICTED BY IDOCK:   -2.16 KCAL/MOL
REMARK 922        TOTAL FREE ENERGY PREDICTED BY IDOCK:   -2.54 KCAL/MOL
REMARK 923 INTER-LIGAND FREE ENERGY PREDICTED BY IDOCK:   -2.40 KCAL/MOL
REMARK 924 INTRA-LIGAND FREE ENERGY PREDICTED BY IDOCK:   -0.13 KCAL/MOL
REMARK 927      BINDING AFFINITY PREDICTED BY RF-SCORE:    0.00 PKD
ROOT
ATOM      1  N   ASP A   1     -11.477   4.619  65.123  1.00  0.00    -1.107 NA 
ATOM      2  CA  ASP A   1     -10.273   4.505  65.998  1.00  0.00    -0.260 C  
ATOM      3  H1  ASP A   1     -12.295   4.930  65.646  1.00  0.00     0.000 HD 
ATOM      4  H2  ASP A   1     -11.661   3.747  64.627  1.00  0.00     0.000 HD 
ATOM      5  C   ASP A   1     -10.022   5.897  66.593  1.00  0.00    -0.174 C  
ATOM      6  O   ASP A   1     -11.176   6.595  66.732  1.00  0.00    -0.333 OA 
ATOM      7  OXT ASP A   1      -8.918   6.348  66.873  1.00  0.00    -0.119 OA 
ENDROOT
BRANCH   2   8
ATOM      8  CB  ASP A   1      -9.051   4.041  65.217  1.00  0.00    -0.139 C  
ATOM      9  CG  ASP A   1      -8.378   2.879  65.898  1.00  0.00    -0.092 C  
ATOM     10  OD2 ASP A   1      -8.713   1.717  65.719  1.00  0.00    -0.107 OA 
ATOM     11  OD1 ASP A   1      -7.363   3.220  66.721  1.00  0.00    -0.072 OA 
ENDBRANCH   2   8
TORSDOF 1
ENDMDL
MODEL      173
REMARK 921   NORMALIZED FREE ENERGY PREDICTED BY IDOCK:   -2.16 KCAL/MOL
REMARK 922        TOTAL FREE ENERGY PREDICTED BY IDOCK:   -2.53 KCAL/MOL
REMARK 923 INTER-LIGAND FREE ENERGY PREDICTED BY IDOCK:   -2.27 KCAL/MOL
REMARK 924 INTRA-LIGAND FREE ENERGY PREDICTED BY IDOCK:   -0.26 KCAL/MOL
REMARK 927      BINDING AFFINITY PREDICTED BY RF-SCORE:    0.00 PKD
ROOT
ATOM      1  N   ASP A   1      -8.688   9.488  65.208  1.00  0.00    -0.155 NA 
ATOM      2  CA  ASP A   1     -10.014  10.174  65.253  1.00  0.00    -0.311 C  
ATOM      3  H1  ASP A   1      -8.635   8.821  64.438  1.00  0.00     0.000 HD 
ATOM      4  H2  ASP A   1      -8.467   9.045  66.100  1.00  0.00     0.000 HD 
ATOM      5  C   ASP A   1     -10.184  10.901  63.912  1.00  0.00    -0.354 C  
ATOM      6  O   ASP A   1      -9.534  10.258  62.911  1.00  0.00    -0.302 OA 
ATOM      7  OXT ASP A   1     -10.793  11.952  63.760  1.00  0.00    -0.339 OA 
ENDROOT
BRANCH   2   8
ATOM      8  CB  ASP A   1     -10.093  11.170  66.402  1.00  0.00    -0.269 C  
ATOM      9  CG  ASP A   1      -9.917  10.484  67.731  1.00  0.00    -0.171 C  
ATOM     10  OD2 ASP A   1      -8.824  10.266  68.229  1.00  0.00    -0.122 OA 
ATOM     11  OD1 ASP A   1     -11.071  10.132  68.338  1.00  0.00    -0.250 OA 
ENDBRANCH   2   8
TORSDOF 1
ENDMDL
MODEL      174
REMARK 921   NORMALIZED FREE ENERGY PREDICTED BY IDOCK:   -2.16 KCAL/MOL
REMARK 922        TOTAL FREE ENERGY PREDICTED BY IDOCK:   -2.53 KCAL/MOL
REMARK 923 INTER-LIGAND FREE ENERGY PREDICTED BY IDOCK:   -2.41 KCAL/MOL
REMARK 924 INTRA-LIGAND FREE ENERGY PREDICTED BY IDOCK:   -0.13 KCAL/MOL
REMARK 927      BINDING AFFINITY PREDICTED BY RF-SCORE:    0.00 PKD
ROOT
ATOM      1  N   ASP A   1     -11.025   8.411  68.099  1.00  0.00    -0.449 NA 
ATOM      2  CA  ASP A   1     -10.121   8.166  69.263  1.00  0.00    -0.202 C  
ATOM      3  H1  ASP A   1     -11.229   7.550  67.593  1.00  0.00     0.000 HD 
ATOM      4  H2  ASP A   1     -10.647   9.127  67.479  1.00  0.00     0.000 HD 
ATOM      5  C   ASP A   1     -10.842   7.172  70.183  1.00  0.00    -0.257 C  
ATOM      6  O   ASP A   1     -11.655   6.344  69.482  1.00  0.00    -0.404 OA 
ATOM      7  OXT ASP A   1     -10.734   7.144  71.402  1.00  0.00    -0.224 OA 
ENDROOT
BRANCH   2   8
ATOM      8  CB  ASP A   1      -9.816   9.452  70.019  1.00  0.00    -0.253 C  
ATOM      9  CG  ASP A   1      -8.353   9.547  70.364  1.00  0.00    -0.192 C  
ATOM     10  OD2 ASP A   1      -7.517  10.006  69.600  1.00  0.00    -0.100 OA 
ATOM     11  OD1 ASP A   1      -8.034   9.088  71.594  1.00  0.00    -0.326 OA 
ENDBRANCH   2   8
TORSDOF 1
ENDMDL
MODEL      175
REMARK 921   NORMALIZED FREE ENERGY PREDICTED BY IDOCK:   -2.13 KCAL/MOL
REMARK 922        TOTAL FREE ENERGY PREDICTED BY IDOCK:   -2.50 KCAL/MOL
REMARK 923 INTER-LIGAND FREE ENERGY PREDICTED BY IDOCK:   -2.02 KCAL/MOL
REMARK 924 INTRA-LIGAND FREE ENERGY PREDICTED BY IDOCK:   -0.48 KCAL/MOL
REMARK 927      BINDING AFFINITY PREDICTED BY RF-SCORE:    0.00 PKD
ROOT
ATOM      1  N   ASP A   1     -11.009  13.483  68.065  1.00  0.00    -0.244 NA 
ATOM      2  CA  ASP A   1      -9.768  12.742  68.439  1.00  0.00    -0.186 C  
ATOM      3  H1  ASP A   1     -10.840  14.485  67.982  1.00  0.00     0.000 HD 
ATOM      4  H2  ASP A   1     -11.770  13.287  68.715  1.00  0.00     0.000 HD 
ATOM      5  C   ASP A   1      -8.738  13.014  67.334  1.00  0.00    -0.205 C  
ATOM      6  O   ASP A   1      -8.927  14.230  66.765  1.00  0.00    -0.251 OA 
ATOM      7  OXT ASP A   1      -7.875  12.224  66.974  1.00  0.00    -0.164 OA 
ENDROOT
BRANCH   2   8
ATOM      8  CB  ASP A   1     -10.021  11.246  68.562  1.00  0.00    -0.206 C  
ATOM      9  CG  ASP A   1     -11.178  10.816  67.699  1.00  0.00    -0.299 C  
ATOM     10  OD2 ASP A   1     -11.055  10.519  66.520  1.00  0.00    -0.068 OA 
ATOM     11  OD1 ASP A   1     -12.369  10.777  68.334  1.00  0.00    -0.396 OA 
ENDBRANCH   2   8
TORSDOF 1
ENDMDL
MODEL      176
REMARK 921   NORMALIZED FREE ENERGY PREDICTED BY IDOCK:   -2.12 KCAL/MOL
REMARK 922        TOTAL FREE ENERGY PREDICTED BY IDOCK:   -2.49 KCAL/MOL
REMARK 923 INTER-LIGAND FREE ENERGY PREDICTED BY IDOCK:   -2.37 KCAL/MOL
REMARK 924 INTRA-LIGAND FREE ENERGY PREDICTED BY IDOCK:   -0.12 KCAL/MOL
REMARK 927      BINDING AFFINITY PREDICTED BY RF-SCORE:    0.00 PKD
ROOT
ATOM      1  N   ASP A   1      -9.035   9.143  70.045  1.00  0.00    -0.171 NA 
ATOM      2  CA  ASP A   1     -10.419   9.126  70.606  1.00  0.00    -0.245 C  
ATOM      3  H1  ASP A   1      -8.376   8.660  70.655  1.00  0.00     0.000 HD 
ATOM      4  H2  ASP A   1      -8.728  10.094  69.843  1.00  0.00     0.000 HD 
ATOM      5  C   ASP A   1     -10.820   7.652  70.754  1.00  0.00    -0.239 C  
ATOM      6  O   ASP A   1      -9.742   6.863  70.987  1.00  0.00    -0.174 OA 
ATOM      7  OXT ASP A   1     -11.961   7.223  70.639  1.00  0.00    -0.291 OA 
ENDROOT
BRANCH   2   8
ATOM      8  CB  ASP A   1     -11.405   9.847  69.696  1.00  0.00    -0.212 C  
ATOM      9  CG  ASP A   1     -12.333  10.728  70.489  1.00  0.00    -0.369 C  
ATOM     10  OD2 ASP A   1     -12.056  11.876  70.803  1.00  0.00    -0.357 OA 
ATOM     11  OD1 ASP A   1     -13.508  10.151  70.823  1.00  0.00    -0.311 OA 
ENDBRANCH   2   8
TORSDOF 1
ENDMDL
MODEL      177
REMARK 921   NORMALIZED FREE ENERGY PREDICTED BY IDOCK:   -2.12 KCAL/MOL
REMARK 922        TOTAL FREE ENERGY PREDICTED BY IDOCK:   -2.49 KCAL/MOL
REMARK 923 INTER-LIGAND FREE ENERGY PREDICTED BY IDOCK:   -2.26 KCAL/MOL
REMARK 924 INTRA-LIGAND FREE ENERGY PREDICTED BY IDOCK:   -0.22 KCAL/MOL
REMARK 927      BINDING AFFINITY PREDICTED BY RF-SCORE:    0.00 PKD
ROOT
ATOM      1  N   ASP A   1      -9.519  13.083  68.609  1.00  0.00    -0.406 NA 
ATOM      2  CA  ASP A   1      -9.421  14.557  68.392  1.00  0.00    -0.209 C  
ATOM      3  H1  ASP A   1     -10.094  12.859  69.421  1.00  0.00     0.000 HD 
ATOM      4  H2  ASP A   1      -8.596  12.654  68.678  1.00  0.00     0.000 HD 
ATOM      5  C   ASP A   1     -10.851  15.072  68.184  1.00  0.00    -0.263 C  
ATOM      6  O   ASP A   1     -11.755  14.316  68.854  1.00  0.00    -0.289 OA 
ATOM      7  OXT ASP A   1     -11.155  16.020  67.471  1.00  0.00    -0.300 OA 
ENDROOT
BRANCH   2   8
ATOM      8  CB  ASP A   1      -8.562  14.892  67.181  1.00  0.00    -0.248 C  
ATOM      9  CG  ASP A   1      -7.104  14.632  67.458  1.00  0.00    -0.178 C  
ATOM     10  OD2 ASP A   1      -6.581  13.539  67.305  1.00  0.00    -0.247 OA 
ATOM     11  OD1 ASP A   1      -6.413  15.711  67.884  1.00  0.00    -0.123 OA 
ENDBRANCH   2   8
TORSDOF 1
ENDMDL
MODEL      178
REMARK 921   NORMALIZED FREE ENERGY PREDICTED BY IDOCK:   -2.10 KCAL/MOL
REMARK 922        TOTAL FREE ENERGY PREDICTED BY IDOCK:   -2.47 KCAL/MOL
REMARK 923 INTER-LIGAND FREE ENERGY PREDICTED BY IDOCK:   -1.97 KCAL/MOL
REMARK 924 INTRA-LIGAND FREE ENERGY PREDICTED BY IDOCK:   -0.51 KCAL/MOL
REMARK 927      BINDING AFFINITY PREDICTED BY RF-SCORE:    0.00 PKD
ROOT
ATOM      1  N   ASP A   1     -10.007   9.823  66.311  1.00  0.00    -0.251 NA 
ATOM      2  CA  ASP A   1     -10.162  10.611  65.052  1.00  0.00    -0.310 C  
ATOM      3  H1  ASP A   1     -10.119   8.823  66.145  1.00  0.00     0.000 HD 
ATOM      4  H2  ASP A   1     -10.643  10.153  67.037  1.00  0.00     0.000 HD 
ATOM      5  C   ASP A   1      -9.083  10.113  64.081  1.00  0.00    -0.251 C  
ATOM      6  O   ASP A   1      -8.780   8.810  64.298  1.00  0.00    -0.130 OA 
ATOM      7  OXT ASP A   1      -8.528  10.807  63.238  1.00  0.00    -0.147 OA 
ENDROOT
BRANCH   2   8
ATOM      8  CB  ASP A   1      -9.995  12.104  65.299  1.00  0.00    -0.260 C  
ATOM      9  CG  ASP A   1      -9.607  12.380  66.727  1.00  0.00    -0.224 C  
ATOM     10  OD2 ASP A   1      -8.450  12.366  67.118  1.00  0.00    -0.175 OA 
ATOM     11  OD1 ASP A   1     -10.644  12.654  67.548  1.00  0.00    -0.218 OA 
ENDBRANCH   2   8
TORSDOF 1
ENDMDL
MODEL      179
REMARK 921   NORMALIZED FREE ENERGY PREDICTED BY IDOCK:   -2.10 KCAL/MOL
REMARK 922        TOTAL FREE ENERGY PREDICTED BY IDOCK:   -2.47 KCAL/MOL
REMARK 923 INTER-LIGAND FREE ENERGY PREDICTED BY IDOCK:   -2.09 KCAL/MOL
REMARK 924 INTRA-LIGAND FREE ENERGY PREDICTED BY IDOCK:   -0.37 KCAL/MOL
REMARK 927      BINDING AFFINITY PREDICTED BY RF-SCORE:    0.00 PKD
ROOT
ATOM      1  N   ASP A   1      -9.110  15.179  67.554  1.00  0.00    -0.180 NA 
ATOM      2  CA  ASP A   1      -8.079  16.259  67.591  1.00  0.00    -0.146 C  
ATOM      3  H1  ASP A   1     -10.044  15.555  67.394  1.00  0.00     0.000 HD 
ATOM      4  H2  ASP A   1      -9.079  14.606  68.397  1.00  0.00     0.000 HD 
ATOM      5  C   ASP A   1      -8.135  16.973  66.234  1.00  0.00    -0.297 C  
ATOM      6  O   ASP A   1      -9.380  16.932  65.700  1.00  0.00    -0.519 OA 
ATOM      7  OXT ASP A   1      -7.173  17.485  65.674  1.00  0.00    -0.405 OA 
ENDROOT
BRANCH   2   8
ATOM      8  CB  ASP A   1      -6.684  15.698  67.830  1.00  0.00    -0.167 C  
ATOM      9  CG  ASP A   1      -6.747  14.299  68.385  1.00  0.00    -0.104 C  
ATOM     10  OD2 ASP A   1      -6.834  13.306  67.680  1.00  0.00    -0.140 OA 
ATOM     11  OD1 ASP A   1      -6.693  14.227  69.733  1.00  0.00    -0.136 OA 
ENDBRANCH   2   8
TORSDOF 1
ENDMDL
MODEL      180
REMARK 921   NORMALIZED FREE ENERGY PREDICTED BY IDOCK:   -2.08 KCAL/MOL
REMARK 922        TOTAL FREE ENERGY PREDICTED BY IDOCK:   -2.45 KCAL/MOL
REMARK 923 INTER-LIGAND FREE ENERGY PREDICTED BY IDOCK:   -1.96 KCAL/MOL
REMARK 924 INTRA-LIGAND FREE ENERGY PREDICTED BY IDOCK:   -0.50 KCAL/MOL
REMARK 927      BINDING AFFINITY PREDICTED BY RF-SCORE:    0.00 PKD
ROOT
ATOM      1  N   ASP A   1     -11.231   7.864  72.324  1.00  0.00    -0.305 NA 
ATOM      2  CA  ASP A   1     -10.017   8.613  71.884  1.00  0.00    -0.322 C  
ATOM      3  H1  ASP A   1     -12.051   8.119  71.776  1.00  0.00     0.000 HD 
ATOM      4  H2  ASP A   1     -11.399   7.983  73.323  1.00  0.00     0.000 HD 
ATOM      5  C   ASP A   1      -9.792   8.265  70.406  1.00  0.00    -0.186 C  
ATOM      6  O   ASP A   1     -10.960   7.988  69.776  1.00  0.00    -0.227 OA 
ATOM      7  OXT ASP A   1      -8.697   8.202  69.862  1.00  0.00    -0.135 OA 
ENDROOT
BRANCH   2   8
ATOM      8  CB  ASP A   1      -8.791   8.232  72.703  1.00  0.00    -0.304 C  
ATOM      9  CG  ASP A   1      -8.938   6.854  73.294  1.00  0.00    -0.129 C  
ATOM     10  OD2 ASP A   1      -8.634   5.836  72.692  1.00  0.00    -0.120 OA 
ATOM     11  OD1 ASP A   1      -9.429   6.832  74.552  1.00  0.00    -0.228 OA 
ENDBRANCH   2   8
TORSDOF 1
ENDMDL
MODEL      181
REMARK 921   NORMALIZED FREE ENERGY PREDICTED BY IDOCK:   -2.07 KCAL/MOL
REMARK 922        TOTAL FREE ENERGY PREDICTED BY IDOCK:   -2.44 KCAL/MOL
REMARK 923 INTER-LIGAND FREE ENERGY PREDICTED BY IDOCK:   -1.92 KCAL/MOL
REMARK 924 INTRA-LIGAND FREE ENERGY PREDICTED BY IDOCK:   -0.52 KCAL/MOL
REMARK 927      BINDING AFFINITY PREDICTED BY RF-SCORE:    0.00 PKD
ROOT
ATOM      1  N   ASP A   1      -9.769   4.500  69.050  1.00  0.00    -0.174 NA 
ATOM      2  CA  ASP A   1     -10.275   5.100  67.780  1.00  0.00    -0.132 C  
ATOM      3  H1  ASP A   1      -9.269   3.627  68.883  1.00  0.00     0.000 HD 
ATOM      4  H2  ASP A   1     -10.522   4.373  69.727  1.00  0.00     0.000 HD 
ATOM      5  C   ASP A   1      -9.049   5.357  66.892  1.00  0.00    -0.114 C  
ATOM      6  O   ASP A   1      -8.060   4.463  67.138  1.00  0.00    -0.100 OA 
ATOM      7  OXT ASP A   1      -8.949   6.275  66.088  1.00  0.00    -0.153 OA 
ENDROOT
BRANCH   2   8
ATOM      8  CB  ASP A   1     -11.022   6.403  68.030  1.00  0.00    -0.400 C  
ATOM      9  CG  ASP A   1     -10.857   6.859  69.456  1.00  0.00    -0.252 C  
ATOM     10  OD2 ASP A   1      -9.912   7.534  69.835  1.00  0.00    -0.185 OA 
ATOM     11  OD1 ASP A   1     -11.847   6.468  70.289  1.00  0.00    -0.413 OA 
ENDBRANCH   2   8
TORSDOF 1
ENDMDL
MODEL      182
REMARK 921   NORMALIZED FREE ENERGY PREDICTED BY IDOCK:   -2.05 KCAL/MOL
REMARK 922        TOTAL FREE ENERGY PREDICTED BY IDOCK:   -2.42 KCAL/MOL
REMARK 923 INTER-LIGAND FREE ENERGY PREDICTED BY IDOCK:   -1.92 KCAL/MOL
REMARK 924 INTRA-LIGAND FREE ENERGY PREDICTED BY IDOCK:   -0.50 KCAL/MOL
REMARK 927      BINDING AFFINITY PREDICTED BY RF-SCORE:    0.00 PKD
ROOT
ATOM      1  N   ASP A   1     -10.376   5.686  73.086  1.00  0.00    -0.191 NA 
ATOM      2  CA  ASP A   1      -9.991   5.053  71.789  1.00  0.00    -0.191 C  
ATOM      3  H1  ASP A   1      -9.995   5.176  73.883  1.00  0.00     0.000 HD 
ATOM      4  H2  ASP A   1     -11.387   5.793  73.162  1.00  0.00     0.000 HD 
ATOM      5  C   ASP A   1      -8.458   5.055  71.733  1.00  0.00    -0.124 C  
ATOM      6  O   ASP A   1      -7.913   4.978  72.972  1.00  0.00    -0.099 OA 
ATOM      7  OXT ASP A   1      -7.796   5.153  70.707  1.00  0.00    -0.083 OA 
ENDROOT
BRANCH   2   8
ATOM      8  CB  ASP A   1     -10.560   5.815  70.600  1.00  0.00    -0.346 C  
ATOM      9  CG  ASP A   1     -11.304   7.045  71.047  1.00  0.00    -0.287 C  
ATOM     10  OD2 ASP A   1     -10.757   8.119  71.247  1.00  0.00    -0.220 OA 
ATOM     11  OD1 ASP A   1     -12.634   6.871  71.203  1.00  0.00    -0.376 OA 
ENDBRANCH   2   8
TORSDOF 1
ENDMDL
MODEL      183
REMARK 921   NORMALIZED FREE ENERGY PREDICTED BY IDOCK:   -2.04 KCAL/MOL
REMARK 922        TOTAL FREE ENERGY PREDICTED BY IDOCK:   -2.41 KCAL/MOL
REMARK 923 INTER-LIGAND FREE ENERGY PREDICTED BY IDOCK:   -1.89 KCAL/MOL
REMARK 924 INTRA-LIGAND FREE ENERGY PREDICTED BY IDOCK:   -0.52 KCAL/MOL
REMARK 927      BINDING AFFINITY PREDICTED BY RF-SCORE:    0.00 PKD
ROOT
ATOM      1  N   ASP A   1      -8.727   9.457  68.082  1.00  0.00    -0.124 NA 
ATOM      2  CA  ASP A   1      -8.946   7.985  67.953  1.00  0.00    -0.129 C  
ATOM      3  H1  ASP A   1      -8.455   9.877  67.194  1.00  0.00     0.000 HD 
ATOM      4  H2  ASP A   1      -8.051   9.669  68.816  1.00  0.00     0.000 HD 
ATOM      5  C   ASP A   1     -10.060   7.792  66.915  1.00  0.00    -0.286 C  
ATOM      6  O   ASP A   1     -10.064   8.789  65.997  1.00  0.00    -0.228 OA 
ATOM      7  OXT ASP A   1     -10.874   6.877  66.927  1.00  0.00    -0.351 OA 
ENDROOT
BRANCH   2   8
ATOM      8  CB  ASP A   1      -9.351   7.357  69.279  1.00  0.00    -0.154 C  
ATOM      9  CG  ASP A   1      -9.799   8.406  70.264  1.00  0.00    -0.181 C  
ATOM     10  OD2 ASP A   1     -10.945   8.826  70.315  1.00  0.00    -0.237 OA 
ATOM     11  OD1 ASP A   1      -8.830   8.844  71.097  1.00  0.00    -0.201 OA 
ENDBRANCH   2   8
TORSDOF 1
ENDMDL
MODEL      184
REMARK 921   NORMALIZED FREE ENERGY PREDICTED BY IDOCK:   -2.01 KCAL/MOL
REMARK 922        TOTAL FREE ENERGY PREDICTED BY IDOCK:   -2.38 KCAL/MOL
REMARK 923 INTER-LIGAND FREE ENERGY PREDICTED BY IDOCK:   -1.86 KCAL/MOL
REMARK 924 INTRA-LIGAND FREE ENERGY PREDICTED BY IDOCK:   -0.52 KCAL/MOL
REMARK 927      BINDING AFFINITY PREDICTED BY RF-SCORE:    0.00 PKD
ROOT
ATOM      1  N   ASP A   1      -9.958   9.315  67.987  1.00  0.00    -0.173 NA 
ATOM      2  CA  ASP A   1      -9.535  10.739  68.136  1.00  0.00    -0.158 C  
ATOM      3  H1  ASP A   1     -10.739   9.088  68.601  1.00  0.00     0.000 HD 
ATOM      4  H2  ASP A   1      -9.175   8.677  68.130  1.00  0.00     0.000 HD 
ATOM      5  C   ASP A   1     -10.752  11.603  67.781  1.00  0.00    -0.204 C  
ATOM      6  O   ASP A   1     -11.914  10.971  68.076  1.00  0.00    -0.623 OA 
ATOM      7  OXT ASP A   1     -10.695  12.710  67.259  1.00  0.00    -0.232 OA 
ENDROOT
BRANCH   2   8
ATOM      8  CB  ASP A   1      -8.367  11.078  67.219  1.00  0.00    -0.125 C  
ATOM      9  CG  ASP A   1      -8.115   9.974  66.226  1.00  0.00    -0.117 C  
ATOM     10  OD2 ASP A   1      -8.701   9.892  65.158  1.00  0.00    -0.145 OA 
ATOM     11  OD1 ASP A   1      -7.180   9.078  66.609  1.00  0.00    -0.083 OA 
ENDBRANCH   2   8
TORSDOF 1
ENDMDL
MODEL      185
REMARK 921   NORMALIZED FREE ENERGY PREDICTED BY IDOCK:   -2.01 KCAL/MOL
REMARK 922        TOTAL FREE ENERGY PREDICTED BY IDOCK:   -2.37 KCAL/MOL
REMARK 923 INTER-LIGAND FREE ENERGY PREDICTED BY IDOCK:   -2.10 KCAL/MOL
REMARK 924 INTRA-LIGAND FREE ENERGY PREDICTED BY IDOCK:   -0.27 KCAL/MOL
REMARK 927      BINDING AFFINITY PREDICTED BY RF-SCORE:    0.00 PKD
ROOT
ATOM      1  N   ASP A   1     -10.794   8.467  67.875  1.00  0.00    -0.482 NA 
ATOM      2  CA  ASP A   1      -9.486   7.775  67.679  1.00  0.00    -0.144 C  
ATOM      3  H1  ASP A   1     -10.729   9.464  67.667  1.00  0.00     0.000 HD 
ATOM      4  H2  ASP A   1     -11.164   8.306  68.812  1.00  0.00     0.000 HD 
ATOM      5  C   ASP A   1      -9.089   7.983  66.212  1.00  0.00    -0.186 C  
ATOM      6  O   ASP A   1      -9.573   9.152  65.725  1.00  0.00    -0.262 OA 
ATOM      7  OXT ASP A   1      -8.449   7.182  65.541  1.00  0.00    -0.138 OA 
ENDROOT
BRANCH   2   8
ATOM      8  CB  ASP A   1      -9.583   6.288  67.990  1.00  0.00    -0.115 C  
ATOM      9  CG  ASP A   1     -10.189   6.054  69.349  1.00  0.00    -0.211 C  
ATOM     10  OD2 ASP A   1     -11.394   5.992  69.540  1.00  0.00    -0.405 OA 
ATOM     11  OD1 ASP A   1      -9.290   5.908  70.347  1.00  0.00    -0.155 OA 
ENDBRANCH   2   8
TORSDOF 1
ENDMDL
MODEL      186
REMARK 921   NORMALIZED FREE ENERGY PREDICTED BY IDOCK:   -2.00 KCAL/MOL
REMARK 922        TOTAL FREE ENERGY PREDICTED BY IDOCK:   -2.37 KCAL/MOL
REMARK 923 INTER-LIGAND FREE ENERGY PREDICTED BY IDOCK:   -1.86 KCAL/MOL
REMARK 924 INTRA-LIGAND FREE ENERGY PREDICTED BY IDOCK:   -0.51 KCAL/MOL
REMARK 927      BINDING AFFINITY PREDICTED BY RF-SCORE:    0.00 PKD
ROOT
ATOM      1  N   ASP A   1     -10.205   8.758  66.502  1.00  0.00    -0.282 NA 
ATOM      2  CA  ASP A   1     -10.212   8.900  67.988  1.00  0.00    -0.213 C  
ATOM      3  H1  ASP A   1     -11.132   8.911  66.104  1.00  0.00     0.000 HD 
ATOM      4  H2  ASP A   1      -9.821   7.858  66.215  1.00  0.00     0.000 HD 
ATOM      5  C   ASP A   1     -10.690  10.325  68.296  1.00  0.00    -0.237 C  
ATOM      6  O   ASP A   1     -11.537  10.783  67.342  1.00  0.00    -0.485 OA 
ATOM      7  OXT ASP A   1     -10.329  10.990  69.259  1.00  0.00    -0.214 OA 
ENDROOT
BRANCH   2   8
ATOM      8  CB  ASP A   1      -8.828   8.673  68.581  1.00  0.00    -0.142 C  
ATOM      9  CG  ASP A   1      -7.788   8.537  67.501  1.00  0.00    -0.099 C  
ATOM     10  OD2 ASP A   1      -7.221   9.496  66.998  1.00  0.00    -0.086 OA 
ATOM     11  OD1 ASP A   1      -7.522   7.265  67.133  1.00  0.00    -0.100 OA 
ENDBRANCH   2   8
TORSDOF 1
ENDMDL
MODEL      187
REMARK 921   NORMALIZED FREE ENERGY PREDICTED BY IDOCK:   -1.98 KCAL/MOL
REMARK 922        TOTAL FREE ENERGY PREDICTED BY IDOCK:   -2.34 KCAL/MOL
REMARK 923 INTER-LIGAND FREE ENERGY PREDICTED BY IDOCK:   -1.83 KCAL/MOL
REMARK 924 INTRA-LIGAND FREE ENERGY PREDICTED BY IDOCK:   -0.51 KCAL/MOL
REMARK 927      BINDING AFFINITY PREDICTED BY RF-SCORE:    0.00 PKD
ROOT
ATOM      1  N   ASP A   1      -8.769   4.255  68.120  1.00  0.00    -0.099 NA 
ATOM      2  CA  ASP A   1      -9.261   5.647  68.345  1.00  0.00    -0.118 C  
ATOM      3  H1  ASP A   1      -8.421   3.834  68.982  1.00  0.00     0.000 HD 
ATOM      4  H2  ASP A   1      -8.068   4.223  67.381  1.00  0.00     0.000 HD 
ATOM      5  C   ASP A   1     -10.389   5.557  69.382  1.00  0.00    -0.278 C  
ATOM      6  O   ASP A   1     -10.204   4.517  70.231  1.00  0.00    -0.219 OA 
ATOM      7  OXT ASP A   1     -11.361   6.301  69.422  1.00  0.00    -0.412 OA 
ENDROOT
BRANCH   2   8
ATOM      8  CB  ASP A   1      -9.781   6.275  67.059  1.00  0.00    -0.173 C  
ATOM      9  CG  ASP A   1      -9.780   5.280  65.928  1.00  0.00    -0.105 C  
ATOM     10  OD2 ASP A   1     -10.705   4.510  65.717  1.00  0.00    -0.280 OA 
ATOM     11  OD1 ASP A   1      -8.673   5.310  65.155  1.00  0.00    -0.149 OA 
ENDBRANCH   2   8
TORSDOF 1
ENDMDL
MODEL      188
REMARK 921   NORMALIZED FREE ENERGY PREDICTED BY IDOCK:   -1.96 KCAL/MOL
REMARK 922        TOTAL FREE ENERGY PREDICTED BY IDOCK:   -2.32 KCAL/MOL
REMARK 923 INTER-LIGAND FREE ENERGY PREDICTED BY IDOCK:   -1.82 KCAL/MOL
REMARK 924 INTRA-LIGAND FREE ENERGY PREDICTED BY IDOCK:   -0.51 KCAL/MOL
REMARK 927      BINDING AFFINITY PREDICTED BY RF-SCORE:    0.00 PKD
ROOT
ATOM      1  N   ASP A   1      -7.298  10.597  63.672  1.00  0.00    -0.351 NA 
ATOM      2  CA  ASP A   1      -7.930   9.522  64.495  1.00  0.00    -0.133 C  
ATOM      3  H1  ASP A   1      -7.711  10.651  62.741  1.00  0.00     0.000 HD 
ATOM      4  H2  ASP A   1      -6.286  10.482  63.624  1.00  0.00     0.000 HD 
ATOM      5  C   ASP A   1      -9.423   9.862  64.599  1.00  0.00    -0.278 C  
ATOM      6  O   ASP A   1      -9.858  10.535  63.506  1.00  0.00    -0.314 OA 
ATOM      7  OXT ASP A   1     -10.133   9.599  65.561  1.00  0.00    -0.290 OA 
ENDROOT
BRANCH   2   8
ATOM      8  CB  ASP A   1      -7.313   9.441  65.884  1.00  0.00    -0.095 C  
ATOM      9  CG  ASP A   1      -6.664  10.745  66.269  1.00  0.00    -0.134 C  
ATOM     10  OD2 ASP A   1      -7.276  11.666  66.787  1.00  0.00    -0.137 OA 
ATOM     11  OD1 ASP A   1      -5.342  10.815  66.002  1.00  0.00    -0.086 OA 
ENDBRANCH   2   8
TORSDOF 1
ENDMDL
MODEL      189
REMARK 921   NORMALIZED FREE ENERGY PREDICTED BY IDOCK:   -1.96 KCAL/MOL
REMARK 922        TOTAL FREE ENERGY PREDICTED BY IDOCK:   -2.32 KCAL/MOL
REMARK 923 INTER-LIGAND FREE ENERGY PREDICTED BY IDOCK:   -2.20 KCAL/MOL
REMARK 924 INTRA-LIGAND FREE ENERGY PREDICTED BY IDOCK:   -0.12 KCAL/MOL
REMARK 927      BINDING AFFINITY PREDICTED BY RF-SCORE:    0.00 PKD
ROOT
ATOM      1  N   ASP A   1      -9.391  14.324  66.819  1.00  0.00    -0.265 NA 
ATOM      2  CA  ASP A   1     -10.034  13.261  67.647  1.00  0.00    -0.229 C  
ATOM      3  H1  ASP A   1      -8.406  14.126  66.649  1.00  0.00     0.000 HD 
ATOM      4  H2  ASP A   1      -9.519  15.247  67.234  1.00  0.00     0.000 HD 
ATOM      5  C   ASP A   1      -9.886  11.945  66.872  1.00  0.00    -0.202 C  
ATOM      6  O   ASP A   1      -8.768  11.940  66.105  1.00  0.00    -0.133 OA 
ATOM      7  OXT ASP A   1     -10.692  11.023  66.901  1.00  0.00    -0.253 OA 
ENDROOT
BRANCH   2   8
ATOM      8  CB  ASP A   1     -11.505  13.557  67.901  1.00  0.00    -0.353 C  
ATOM      9  CG  ASP A   1     -11.875  13.289  69.336  1.00  0.00    -0.329 C  
ATOM     10  OD2 ASP A   1     -11.737  14.115  70.225  1.00  0.00    -0.280 OA 
ATOM     11  OD1 ASP A   1     -12.381  12.057  69.566  1.00  0.00    -0.154 OA 
ENDBRANCH   2   8
TORSDOF 1
ENDMDL
MODEL      190
REMARK 921   NORMALIZED FREE ENERGY PREDICTED BY IDOCK:   -1.96 KCAL/MOL
REMARK 922        TOTAL FREE ENERGY PREDICTED BY IDOCK:   -2.32 KCAL/MOL
REMARK 923 INTER-LIGAND FREE ENERGY PREDICTED BY IDOCK:   -2.15 KCAL/MOL
REMARK 924 INTRA-LIGAND FREE ENERGY PREDICTED BY IDOCK:   -0.17 KCAL/MOL
REMARK 927      BINDING AFFINITY PREDICTED BY RF-SCORE:    0.00 PKD
ROOT
ATOM      1  N   ASP A   1      -8.822   7.144  65.738  1.00  0.00    -0.314 NA 
ATOM      2  CA  ASP A   1      -8.785   8.298  66.686  1.00  0.00    -0.136 C  
ATOM      3  H1  ASP A   1      -9.082   6.278  66.208  1.00  0.00     0.000 HD 
ATOM      4  H2  ASP A   1      -7.940   7.046  65.236  1.00  0.00     0.000 HD 
ATOM      5  C   ASP A   1     -10.191   8.424  67.287  1.00  0.00    -0.279 C  
ATOM      6  O   ASP A   1     -10.815   7.222  67.351  1.00  0.00    -0.274 OA 
ATOM      7  OXT ASP A   1     -10.712   9.478  67.631  1.00  0.00    -0.274 OA 
ENDROOT
BRANCH   2   8
ATOM      8  CB  ASP A   1      -8.398   9.592  65.983  1.00  0.00    -0.123 C  
ATOM      9  CG  ASP A   1      -9.138   9.747  64.681  1.00  0.00    -0.245 C  
ATOM     10  OD2 ASP A   1     -10.251  10.244  64.602  1.00  0.00    -0.322 OA 
ATOM     11  OD1 ASP A   1      -8.469   9.297  63.597  1.00  0.00    -0.179 OA 
ENDBRANCH   2   8
TORSDOF 1
ENDMDL
MODEL      191
REMARK 921   NORMALIZED FREE ENERGY PREDICTED BY IDOCK:   -1.93 KCAL/MOL
REMARK 922        TOTAL FREE ENERGY PREDICTED BY IDOCK:   -2.29 KCAL/MOL
REMARK 923 INTER-LIGAND FREE ENERGY PREDICTED BY IDOCK:   -1.80 KCAL/MOL
REMARK 924 INTRA-LIGAND FREE ENERGY PREDICTED BY IDOCK:   -0.49 KCAL/MOL
REMARK 927      BINDING AFFINITY PREDICTED BY RF-SCORE:    0.00 PKD
ROOT
ATOM      1  N   ASP A   1      -9.929   7.523  69.178  1.00  0.00    -0.175 NA 
ATOM      2  CA  ASP A   1      -9.378   7.068  70.489  1.00  0.00    -0.159 C  
ATOM      3  H1  ASP A   1     -10.111   6.739  68.552  1.00  0.00     0.000 HD 
ATOM      4  H2  ASP A   1      -9.322   8.216  68.739  1.00  0.00     0.000 HD 
ATOM      5  C   ASP A   1     -10.423   6.131  71.108  1.00  0.00    -0.230 C  
ATOM      6  O   ASP A   1     -11.139   5.484  70.157  1.00  0.00    -0.248 OA 
ATOM      7  OXT ASP A   1     -10.623   6.005  72.310  1.00  0.00    -0.202 OA 
ENDROOT
BRANCH   2   8
ATOM      8  CB  ASP A   1      -9.105   8.239  71.423  1.00  0.00    -0.217 C  
ATOM      9  CG  ASP A   1      -9.479   9.548  70.778  1.00  0.00    -0.168 C  
ATOM     10  OD2 ASP A   1     -10.609  10.010  70.815  1.00  0.00    -0.287 OA 
ATOM     11  OD1 ASP A   1      -8.459  10.180  70.157  1.00  0.00    -0.112 OA 
ENDBRANCH   2   8
TORSDOF 1
ENDMDL
MODEL      192
REMARK 921   NORMALIZED FREE ENERGY PREDICTED BY IDOCK:   -1.92 KCAL/MOL
REMARK 922        TOTAL FREE ENERGY PREDICTED BY IDOCK:   -2.28 KCAL/MOL
REMARK 923 INTER-LIGAND FREE ENERGY PREDICTED BY IDOCK:   -2.16 KCAL/MOL
REMARK 924 INTRA-LIGAND FREE ENERGY PREDICTED BY IDOCK:   -0.12 KCAL/MOL
REMARK 927      BINDING AFFINITY PREDICTED BY RF-SCORE:    0.00 PKD
ROOT
ATOM      1  N   ASP A   1      -9.865  12.683  65.224  1.00  0.00    -0.448 NA 
ATOM      2  CA  ASP A   1      -9.276  11.499  65.917  1.00  0.00    -0.210 C  
ATOM      3  H1  ASP A   1      -9.602  12.713  64.239  1.00  0.00     0.000 HD 
ATOM      4  H2  ASP A   1      -9.621  13.552  65.700  1.00  0.00     0.000 HD 
ATOM      5  C   ASP A   1      -9.805  10.253  65.192  1.00  0.00    -0.321 C  
ATOM      6  O   ASP A   1     -10.048  10.504  63.882  1.00  0.00    -0.327 OA 
ATOM      7  OXT ASP A   1     -10.022   9.173  65.727  1.00  0.00    -0.277 OA 
ENDROOT
BRANCH   2   8
ATOM      8  CB  ASP A   1      -9.669  11.454  67.387  1.00  0.00    -0.196 C  
ATOM      9  CG  ASP A   1      -8.491  11.092  68.254  1.00  0.00    -0.145 C  
ATOM     10  OD2 ASP A   1      -7.694  11.917  68.674  1.00  0.00    -0.129 OA 
ATOM     11  OD1 ASP A   1      -8.388   9.776  68.540  1.00  0.00    -0.107 OA 
ENDBRANCH   2   8
TORSDOF 1
ENDMDL
MODEL      193
REMARK 921   NORMALIZED FREE ENERGY PREDICTED BY IDOCK:   -1.91 KCAL/MOL
REMARK 922        TOTAL FREE ENERGY PREDICTED BY IDOCK:   -2.27 KCAL/MOL
REMARK 923 INTER-LIGAND FREE ENERGY PREDICTED BY IDOCK:   -1.99 KCAL/MOL
REMARK 924 INTRA-LIGAND FREE ENERGY PREDICTED BY IDOCK:   -0.28 KCAL/MOL
REMARK 927      BINDING AFFINITY PREDICTED BY RF-SCORE:    0.00 PKD
ROOT
ATOM      1  N   ASP A   1     -10.001   8.822  65.905  1.00  0.00    -0.454 NA 
ATOM      2  CA  ASP A   1      -8.711   9.573  65.861  1.00  0.00    -0.147 C  
ATOM      3  H1  ASP A   1      -9.886   7.899  66.323  1.00  0.00     0.000 HD 
ATOM      4  H2  ASP A   1     -10.428   8.761  64.981  1.00  0.00     0.000 HD 
ATOM      5  C   ASP A   1      -8.227   9.708  67.311  1.00  0.00    -0.114 C  
ATOM      6  O   ASP A   1      -8.639   8.666  68.073  1.00  0.00    -0.135 OA 
ATOM      7  OXT ASP A   1      -7.582  10.654  67.747  1.00  0.00    -0.094 OA 
ENDROOT
BRANCH   2   8
ATOM      8  CB  ASP A   1      -8.883  10.951  65.236  1.00  0.00    -0.179 C  
ATOM      9  CG  ASP A   1      -9.791  10.896  64.036  1.00  0.00    -0.322 C  
ATOM     10  OD2 ASP A   1     -11.007  10.976  64.117  1.00  0.00    -0.314 OA 
ATOM     11  OD1 ASP A   1      -9.153  10.757  62.854  1.00  0.00    -0.233 OA 
ENDBRANCH   2   8
TORSDOF 1
ENDMDL
MODEL      194
REMARK 921   NORMALIZED FREE ENERGY PREDICTED BY IDOCK:   -1.86 KCAL/MOL
REMARK 922        TOTAL FREE ENERGY PREDICTED BY IDOCK:   -2.21 KCAL/MOL
REMARK 923 INTER-LIGAND FREE ENERGY PREDICTED BY IDOCK:   -2.09 KCAL/MOL
REMARK 924 INTRA-LIGAND FREE ENERGY PREDICTED BY IDOCK:   -0.13 KCAL/MOL
REMARK 927      BINDING AFFINITY PREDICTED BY RF-SCORE:    0.00 PKD
ROOT
ATOM      1  N   ASP A   1      -9.905   6.843  66.682  1.00  0.00    -0.287 NA 
ATOM      2  CA  ASP A   1     -10.294   7.963  67.590  1.00  0.00    -0.241 C  
ATOM      3  H1  ASP A   1     -10.272   6.977  65.740  1.00  0.00     0.000 HD 
ATOM      4  H2  ASP A   1     -10.184   5.940  67.065  1.00  0.00     0.000 HD 
ATOM      5  C   ASP A   1      -9.721   9.249  66.979  1.00  0.00    -0.185 C  
ATOM      6  O   ASP A   1      -9.644   9.168  65.628  1.00  0.00    -0.262 OA 
ATOM      7  OXT ASP A   1      -9.341  10.219  67.623  1.00  0.00    -0.144 OA 
ENDROOT
BRANCH   2   8
ATOM      8  CB  ASP A   1      -9.747   7.763  68.997  1.00  0.00    -0.157 C  
ATOM      9  CG  ASP A   1     -10.852   7.797  70.020  1.00  0.00    -0.241 C  
ATOM     10  OD2 ASP A   1     -11.507   6.812  70.326  1.00  0.00    -0.326 OA 
ATOM     11  OD1 ASP A   1     -11.059   9.006  70.584  1.00  0.00    -0.245 OA 
ENDBRANCH   2   8
TORSDOF 1
ENDMDL
MODEL      195
REMARK 921   NORMALIZED FREE ENERGY PREDICTED BY IDOCK:   -1.84 KCAL/MOL
REMARK 922        TOTAL FREE ENERGY PREDICTED BY IDOCK:   -2.20 KCAL/MOL
REMARK 923 INTER-LIGAND FREE ENERGY PREDICTED BY IDOCK:   -2.07 KCAL/MOL
REMARK 924 INTRA-LIGAND FREE ENERGY PREDICTED BY IDOCK:   -0.13 KCAL/MOL
REMARK 927      BINDING AFFINITY PREDICTED BY RF-SCORE:    0.00 PKD
ROOT
ATOM      1  N   ASP A   1      -8.389   5.077  72.800  1.00  0.00    -0.112 NA 
ATOM      2  CA  ASP A   1      -9.593   5.953  72.922  1.00  0.00    -0.155 C  
ATOM      3  H1  ASP A   1      -8.240   4.520  73.641  1.00  0.00     0.000 HD 
ATOM      4  H2  ASP A   1      -7.558   5.618  72.560  1.00  0.00     0.000 HD 
ATOM      5  C   ASP A   1     -10.793   5.027  73.161  1.00  0.00    -0.286 C  
ATOM      6  O   ASP A   1     -10.428   3.897  73.815  1.00  0.00    -0.155 OA 
ATOM      7  OXT ASP A   1     -11.934   5.250  72.778  1.00  0.00    -0.211 OA 
ENDROOT
BRANCH   2   8
ATOM      8  CB  ASP A   1      -9.815   6.784  71.666  1.00  0.00    -0.173 C  
ATOM      9  CG  ASP A   1      -9.962   8.246  72.000  1.00  0.00    -0.257 C  
ATOM     10  OD2 ASP A   1      -9.010   9.002  72.118  1.00  0.00    -0.378 OA 
ATOM     11  OD1 ASP A   1     -11.239   8.661  72.151  1.00  0.00    -0.342 OA 
ENDBRANCH   2   8
TORSDOF 1
ENDMDL
MODEL      196
REMARK 921   NORMALIZED FREE ENERGY PREDICTED BY IDOCK:   -1.83 KCAL/MOL
REMARK 922        TOTAL FREE ENERGY PREDICTED BY IDOCK:   -2.18 KCAL/MOL
REMARK 923 INTER-LIGAND FREE ENERGY PREDICTED BY IDOCK:   -1.70 KCAL/MOL
REMARK 924 INTRA-LIGAND FREE ENERGY PREDICTED BY IDOCK:   -0.48 KCAL/MOL
REMARK 927      BINDING AFFINITY PREDICTED BY RF-SCORE:    0.00 PKD
ROOT
ATOM      1  N   ASP A   1     -10.348   8.480  70.108  1.00  0.00    -0.202 NA 
ATOM      2  CA  ASP A   1      -9.088   7.697  69.942  1.00  0.00    -0.147 C  
ATOM      3  H1  ASP A   1     -10.373   8.967  71.004  1.00  0.00     0.000 HD 
ATOM      4  H2  ASP A   1     -11.171   7.892  69.981  1.00  0.00     0.000 HD 
ATOM      5  C   ASP A   1      -7.927   8.697  70.032  1.00  0.00    -0.106 C  
ATOM      6  O   ASP A   1      -8.237   9.749  70.829  1.00  0.00    -0.251 OA 
ATOM      7  OXT ASP A   1      -6.865   8.590  69.432  1.00  0.00    -0.045 OA 
ENDROOT
BRANCH   2   8
ATOM      8  CB  ASP A   1      -9.049   6.970  68.604  1.00  0.00    -0.132 C  
ATOM      9  CG  ASP A   1     -10.315   7.202  67.822  1.00  0.00    -0.202 C  
ATOM     10  OD2 ASP A   1     -10.479   8.168  67.092  1.00  0.00    -0.295 OA 
ATOM     11  OD1 ASP A   1     -11.259   6.250  67.985  1.00  0.00    -0.323 OA 
ENDBRANCH   2   8
TORSDOF 1
ENDMDL
MODEL      197
REMARK 921   NORMALIZED FREE ENERGY PREDICTED BY IDOCK:   -1.81 KCAL/MOL
REMARK 922        TOTAL FREE ENERGY PREDICTED BY IDOCK:   -2.16 KCAL/MOL
REMARK 923 INTER-LIGAND FREE ENERGY PREDICTED BY IDOCK:   -1.88 KCAL/MOL
REMARK 924 INTRA-LIGAND FREE ENERGY PREDICTED BY IDOCK:   -0.28 KCAL/MOL
REMARK 927      BINDING AFFINITY PREDICTED BY RF-SCORE:    0.00 PKD
ROOT
ATOM      1  N   ASP A   1     -11.244   6.754  68.507  1.00  0.00    -0.542 NA 
ATOM      2  CA  ASP A   1     -10.815   7.458  69.753  1.00  0.00    -0.234 C  
ATOM      3  H1  ASP A   1     -11.919   7.305  67.977  1.00  0.00     0.000 HD 
ATOM      4  H2  ASP A   1     -11.602   5.822  68.711  1.00  0.00     0.000 HD 
ATOM      5  C   ASP A   1     -10.186   8.788  69.318  1.00  0.00    -0.210 C  
ATOM      6  O   ASP A   1     -10.735   9.246  68.166  1.00  0.00    -0.213 OA 
ATOM      7  OXT ASP A   1      -9.274   9.355  69.907  1.00  0.00    -0.175 OA 
ENDROOT
BRANCH   2   8
ATOM      8  CB  ASP A   1      -9.808   6.636  70.545  1.00  0.00    -0.190 C  
ATOM      9  CG  ASP A   1     -10.046   5.160  70.365  1.00  0.00    -0.262 C  
ATOM     10  OD2 ASP A   1      -9.576   4.517  69.439  1.00  0.00    -0.161 OA 
ATOM     11  OD1 ASP A   1     -10.820   4.596  71.318  1.00  0.00     0.108 OA 
ENDBRANCH   2   8
TORSDOF 1
ENDMDL
MODEL      198
REMARK 921   NORMALIZED FREE ENERGY PREDICTED BY IDOCK:   -1.80 KCAL/MOL
REMARK 922        TOTAL FREE ENERGY PREDICTED BY IDOCK:   -2.16 KCAL/MOL
REMARK 923 INTER-LIGAND FREE ENERGY PREDICTED BY IDOCK:   -1.66 KCAL/MOL
REMARK 924 INTRA-LIGAND FREE ENERGY PREDICTED BY IDOCK:   -0.50 KCAL/MOL
REMARK 927      BINDING AFFINITY PREDICTED BY RF-SCORE:    0.00 PKD
ROOT
ATOM      1  N   ASP A   1     -11.008   7.591  68.902  1.00  0.00    -0.424 NA 
ATOM      2  CA  ASP A   1      -9.908   7.544  67.893  1.00  0.00    -0.154 C  
ATOM      3  H1  ASP A   1     -11.317   6.656  69.167  1.00  0.00     0.000 HD 
ATOM      4  H2  ASP A   1     -11.787   8.163  68.577  1.00  0.00     0.000 HD 
ATOM      5  C   ASP A   1      -8.751   6.766  68.533  1.00  0.00    -0.124 C  
ATOM      6  O   ASP A   1      -9.200   5.847  69.423  1.00  0.00    -0.129 OA 
ATOM      7  OXT ASP A   1      -7.564   6.968  68.308  1.00  0.00    -0.106 OA 
ENDROOT
BRANCH   2   8
ATOM      8  CB  ASP A   1      -9.446   8.939  67.497  1.00  0.00    -0.172 C  
ATOM      9  CG  ASP A   1      -9.739   9.939  68.585  1.00  0.00    -0.157 C  
ATOM     10  OD2 ASP A   1      -8.983  10.146  69.522  1.00  0.00    -0.192 OA 
ATOM     11  OD1 ASP A   1     -10.909  10.599  68.441  1.00  0.00    -0.203 OA 
ENDBRANCH   2   8
TORSDOF 1
ENDMDL
MODEL      199
REMARK 921   NORMALIZED FREE ENERGY PREDICTED BY IDOCK:   -1.79 KCAL/MOL
REMARK 922        TOTAL FREE ENERGY PREDICTED BY IDOCK:   -2.14 KCAL/MOL
REMARK 923 INTER-LIGAND FREE ENERGY PREDICTED BY IDOCK:   -1.65 KCAL/MOL
REMARK 924 INTRA-LIGAND FREE ENERGY PREDICTED BY IDOCK:   -0.49 KCAL/MOL
REMARK 927      BINDING AFFINITY PREDICTED BY RF-SCORE:    0.00 PKD
ROOT
ATOM      1  N   ASP A   1     -10.104   8.357  69.267  1.00  0.00    -0.197 NA 
ATOM      2  CA  ASP A   1      -9.752   9.241  68.116  1.00  0.00    -0.150 C  
ATOM      3  H1  ASP A   1     -11.058   8.004  69.193  1.00  0.00     0.000 HD 
ATOM      4  H2  ASP A   1      -9.950   8.828  70.158  1.00  0.00     0.000 HD 
ATOM      5  C   ASP A   1      -9.904   8.395  66.844  1.00  0.00    -0.245 C  
ATOM      6  O   ASP A   1     -10.856   7.441  66.992  1.00  0.00    -0.354 OA 
ATOM      7  OXT ASP A   1      -9.229   8.529  65.831  1.00  0.00    -0.203 OA 
ENDROOT
BRANCH   2   8
ATOM      8  CB  ASP A   1      -8.328   9.768  68.226  1.00  0.00    -0.106 C  
ATOM      9  CG  ASP A   1      -7.646   9.240  69.461  1.00  0.00    -0.081 C  
ATOM     10  OD2 ASP A   1      -7.063   8.168  69.494  1.00  0.00    -0.049 OA 
ATOM     11  OD1 ASP A   1      -7.723  10.054  70.536  1.00  0.00    -0.264 OA 
ENDBRANCH   2   8
TORSDOF 1
ENDMDL
MODEL      200
REMARK 921   NORMALIZED FREE ENERGY PREDICTED BY IDOCK:   -1.79 KCAL/MOL
REMARK 922        TOTAL FREE ENERGY PREDICTED BY IDOCK:   -2.14 KCAL/MOL
REMARK 923 INTER-LIGAND FREE ENERGY PREDICTED BY IDOCK:   -1.86 KCAL/MOL
REMARK 924 INTRA-LIGAND FREE ENERGY PREDICTED BY IDOCK:   -0.28 KCAL/MOL
REMARK 927      BINDING AFFINITY PREDICTED BY RF-SCORE:    0.00 PKD
ROOT
ATOM      1  N   ASP A   1      -8.641  13.667  68.308  1.00  0.00    -0.169 NA 
ATOM      2  CA  ASP A   1      -8.917  12.288  67.806  1.00  0.00    -0.177 C  
ATOM      3  H1  ASP A   1      -8.149  13.651  69.201  1.00  0.00     0.000 HD 
ATOM      4  H2  ASP A   1      -9.495  14.221  68.363  1.00  0.00     0.000 HD 
ATOM      5  C   ASP A   1      -7.558  11.592  67.648  1.00  0.00    -0.128 C  
ATOM      6  O   ASP A   1      -6.650  12.064  68.537  1.00  0.00    -0.054 OA 
ATOM      7  OXT ASP A   1      -7.301  10.745  66.802  1.00  0.00    -0.114 OA 
ENDROOT
BRANCH   2   8
ATOM      8  CB  ASP A   1      -9.651  12.310  66.473  1.00  0.00    -0.242 C  
ATOM      9  CG  ASP A   1     -10.807  13.276  66.504  1.00  0.00    -0.281 C  
ATOM     10  OD2 ASP A   1     -10.688  14.466  66.257  1.00  0.00    -0.297 OA 
ATOM     11  OD1 ASP A   1     -11.996  12.719  66.821  1.00  0.00    -0.399 OA 
ENDBRANCH   2   8
TORSDOF 1
ENDMDL
MODEL      201
REMARK 921   NORMALIZED FREE ENERGY PREDICTED BY IDOCK:   -1.78 KCAL/MOL
REMARK 922        TOTAL FREE ENERGY PREDICTED BY IDOCK:   -2.13 KCAL/MOL
REMARK 923 INTER-LIGAND FREE ENERGY PREDICTED BY IDOCK:   -2.04 KCAL/MOL
REMARK 924 INTRA-LIGAND FREE ENERGY PREDICTED BY IDOCK:   -0.09 KCAL/MOL
REMARK 927      BINDING AFFINITY PREDICTED BY RF-SCORE:    0.00 PKD
ROOT
ATOM      1  N   ASP A   1      -5.626  17.195  70.392  1.00  0.00    -0.221 NA 
ATOM      2  CA  ASP A   1      -5.639  18.221  69.308  1.00  0.00    -0.210 C  
ATOM      3  H1  ASP A   1      -4.983  17.447  71.142  1.00  0.00     0.000 HD 
ATOM      4  H2  ASP A   1      -5.422  16.266  70.023  1.00  0.00     0.000 HD 
ATOM      5  C   ASP A   1      -6.073  19.544  69.953  1.00  0.00    -0.294 C  
ATOM      6  O   ASP A   1      -5.699  19.610  71.254  1.00  0.00    -0.261 OA 
ATOM      7  OXT ASP A   1      -6.714  20.420  69.387  1.00  0.00    -0.203 OA 
ENDROOT
BRANCH   2   8
ATOM      8  CB  ASP A   1      -6.599  17.845  68.188  1.00  0.00    -0.197 C  
ATOM      9  CG  ASP A   1      -5.857  17.323  66.986  1.00  0.00    -0.164 C  
ATOM     10  OD2 ASP A   1      -5.531  16.153  66.860  1.00  0.00    -0.341 OA 
ATOM     11  OD1 ASP A   1      -5.583  18.255  66.047  1.00  0.00    -0.148 OA 
ENDBRANCH   2   8
TORSDOF 1
ENDMDL
MODEL      202
REMARK 921   NORMALIZED FREE ENERGY PREDICTED BY IDOCK:   -1.77 KCAL/MOL
REMARK 922        TOTAL FREE ENERGY PREDICTED BY IDOCK:   -2.12 KCAL/MOL
REMARK 923 INTER-LIGAND FREE ENERGY PREDICTED BY IDOCK:   -1.62 KCAL/MOL
REMARK 924 INTRA-LIGAND FREE ENERGY PREDICTED BY IDOCK:   -0.50 KCAL/MOL
REMARK 927      BINDING AFFINITY PREDICTED BY RF-SCORE:    0.00 PKD
ROOT
ATOM      1  N   ASP A   1      -8.145   6.630  65.845  1.00  0.00    -0.119 NA 
ATOM      2  CA  ASP A   1      -8.037   6.350  67.308  1.00  0.00    -0.113 C  
ATOM      3  H1  ASP A   1      -7.424   6.142  65.314  1.00  0.00     0.000 HD 
ATOM      4  H2  ASP A   1      -8.132   7.633  65.657  1.00  0.00     0.000 HD 
ATOM      5  C   ASP A   1      -8.189   4.833  67.482  1.00  0.00    -0.105 C  
ATOM      6  O   ASP A   1      -7.734   4.159  66.397  1.00  0.00    -0.088 OA 
ATOM      7  OXT ASP A   1      -8.694   4.288  68.456  1.00  0.00    -0.092 OA 
ENDROOT
BRANCH   2   8
ATOM      8  CB  ASP A   1      -9.112   7.078  68.102  1.00  0.00    -0.128 C  
ATOM      9  CG  ASP A   1     -10.308   7.389  67.241  1.00  0.00    -0.286 C  
ATOM     10  OD2 ASP A   1     -11.224   6.600  67.063  1.00  0.00    -0.404 OA 
ATOM     11  OD1 ASP A   1     -10.294   8.619  66.683  1.00  0.00    -0.289 OA 
ENDBRANCH   2   8
TORSDOF 1
ENDMDL
MODEL      203
REMARK 921   NORMALIZED FREE ENERGY PREDICTED BY IDOCK:   -1.75 KCAL/MOL
REMARK 922        TOTAL FREE ENERGY PREDICTED BY IDOCK:   -2.10 KCAL/MOL
REMARK 923 INTER-LIGAND FREE ENERGY PREDICTED BY IDOCK:   -1.59 KCAL/MOL
REMARK 924 INTRA-LIGAND FREE ENERGY PREDICTED BY IDOCK:   -0.51 KCAL/MOL
REMARK 927      BINDING AFFINITY PREDICTED BY RF-SCORE:    0.00 PKD
ROOT
ATOM      1  N   ASP A   1      -9.381   5.275  73.887  1.00  0.00    -0.128 NA 
ATOM      2  CA  ASP A   1      -9.964   6.439  73.154  1.00  0.00    -0.176 C  
ATOM      3  H1  ASP A   1     -10.042   4.882  74.557  1.00  0.00     0.000 HD 
ATOM      4  H2  ASP A   1      -8.499   5.521  74.334  1.00  0.00     0.000 HD 
ATOM      5  C   ASP A   1     -11.213   5.924  72.426  1.00  0.00    -0.291 C  
ATOM      6  O   ASP A   1     -11.792   4.897  73.094  1.00  0.00    -0.279 OA 
ATOM      7  OXT ASP A   1     -11.623   6.353  71.355  1.00  0.00    -0.300 OA 
ENDROOT
BRANCH   2   8
ATOM      8  CB  ASP A   1      -8.978   7.025  72.153  1.00  0.00    -0.140 C  
ATOM      9  CG  ASP A   1      -7.922   6.020  71.777  1.00  0.00    -0.107 C  
ATOM     10  OD2 ASP A   1      -8.069   5.200  70.883  1.00  0.00    -0.100 OA 
ATOM     11  OD1 ASP A   1      -6.786   6.100  72.504  1.00  0.00    -0.068 OA 
ENDBRANCH   2   8
TORSDOF 1
ENDMDL
MODEL      204
REMARK 921   NORMALIZED FREE ENERGY PREDICTED BY IDOCK:   -1.68 KCAL/MOL
REMARK 922        TOTAL FREE ENERGY PREDICTED BY IDOCK:   -2.03 KCAL/MOL
REMARK 923 INTER-LIGAND FREE ENERGY PREDICTED BY IDOCK:   -1.54 KCAL/MOL
REMARK 924 INTRA-LIGAND FREE ENERGY PREDICTED BY IDOCK:   -0.49 KCAL/MOL
REMARK 927      BINDING AFFINITY PREDICTED BY RF-SCORE:    0.00 PKD
ROOT
ATOM      1  N   ASP A   1     -10.452   8.879  68.053  1.00  0.00    -0.300 NA 
ATOM      2  CA  ASP A   1      -9.850  10.064  68.734  1.00  0.00    -0.167 C  
ATOM      3  H1  ASP A   1     -11.272   9.137  67.504  1.00  0.00     0.000 HD 
ATOM      4  H2  ASP A   1     -10.668   8.137  68.719  1.00  0.00     0.000 HD 
ATOM      5  C   ASP A   1      -9.457  11.057  67.632  1.00  0.00    -0.164 C  
ATOM      6  O   ASP A   1     -10.271  10.953  66.554  1.00  0.00    -0.217 OA 
ATOM      7  OXT ASP A   1      -8.504  11.824  67.691  1.00  0.00    -0.137 OA 
ENDROOT
BRANCH   2   8
ATOM      8  CB  ASP A   1      -8.627   9.681  69.555  1.00  0.00    -0.177 C  
ATOM      9  CG  ASP A   1      -8.357   8.201  69.471  1.00  0.00    -0.122 C  
ATOM     10  OD2 ASP A   1      -7.697   7.694  68.577  1.00  0.00    -0.113 OA 
ATOM     11  OD1 ASP A   1      -8.898   7.474  70.472  1.00  0.00    -0.145 OA 
ENDBRANCH   2   8
TORSDOF 1
ENDMDL
MODEL      205
REMARK 921   NORMALIZED FREE ENERGY PREDICTED BY IDOCK:   -1.66 KCAL/MOL
REMARK 922        TOTAL FREE ENERGY PREDICTED BY IDOCK:   -2.01 KCAL/MOL
REMARK 923 INTER-LIGAND FREE ENERGY PREDICTED BY IDOCK:   -1.51 KCAL/MOL
REMARK 924 INTRA-LIGAND FREE ENERGY PREDICTED BY IDOCK:   -0.49 KCAL/MOL
REMARK 927      BINDING AFFINITY PREDICTED BY RF-SCORE:    0.00 PKD
ROOT
ATOM      1  N   ASP A   1      -9.351   4.938  66.821  1.00  0.00    -0.131 NA 
ATOM      2  CA  ASP A   1      -8.918   6.351  67.037  1.00  0.00    -0.119 C  
ATOM      3  H1  ASP A   1      -9.990   4.624  67.551  1.00  0.00     0.000 HD 
ATOM      4  H2  ASP A   1      -8.551   4.313  66.732  1.00  0.00     0.000 HD 
ATOM      5  C   ASP A   1     -10.188   7.211  67.032  1.00  0.00    -0.269 C  
ATOM      6  O   ASP A   1     -11.262   6.517  67.484  1.00  0.00    -0.343 OA 
ATOM      7  OXT ASP A   1     -10.247   8.368  66.635  1.00  0.00    -0.285 OA 
ENDROOT
BRANCH   2   8
ATOM      8  CB  ASP A   1      -7.964   6.820  65.948  1.00  0.00    -0.112 C  
ATOM      9  CG  ASP A   1      -7.729   5.738  64.926  1.00  0.00    -0.095 C  
ATOM     10  OD2 ASP A   1      -8.460   5.561  63.964  1.00  0.00    -0.122 OA 
ATOM     11  OD1 ASP A   1      -6.636   4.978  65.154  1.00  0.00    -0.038 OA 
ENDBRANCH   2   8
TORSDOF 1
ENDMDL
MODEL      206
REMARK 921   NORMALIZED FREE ENERGY PREDICTED BY IDOCK:   -1.64 KCAL/MOL
REMARK 922        TOTAL FREE ENERGY PREDICTED BY IDOCK:   -1.98 KCAL/MOL
REMARK 923 INTER-LIGAND FREE ENERGY PREDICTED BY IDOCK:   -1.46 KCAL/MOL
REMARK 924 INTRA-LIGAND FREE ENERGY PREDICTED BY IDOCK:   -0.52 KCAL/MOL
REMARK 927      BINDING AFFINITY PREDICTED BY RF-SCORE:    0.00 PKD
ROOT
ATOM      1  N   ASP A   1      -8.554   4.035  67.445  1.00  0.00    -0.099 NA 
ATOM      2  CA  ASP A   1      -9.612   4.949  67.968  1.00  0.00    -0.146 C  
ATOM      3  H1  ASP A   1      -8.955   3.230  66.965  1.00  0.00     0.000 HD 
ATOM      4  H2  ASP A   1      -7.913   3.746  68.185  1.00  0.00     0.000 HD 
ATOM      5  C   ASP A   1     -10.435   5.413  66.759  1.00  0.00    -0.289 C  
ATOM      6  O   ASP A   1     -10.456   4.475  65.781  1.00  0.00    -0.280 OA 
ATOM      7  OXT ASP A   1     -10.977   6.507  66.661  1.00  0.00    -0.293 OA 
ENDROOT
BRANCH   2   8
ATOM      8  CB  ASP A   1      -9.013   6.151  68.686  1.00  0.00    -0.126 C  
ATOM      9  CG  ASP A   1      -7.545   6.290  68.383  1.00  0.00    -0.096 C  
ATOM     10  OD2 ASP A   1      -7.120   6.886  67.405  1.00  0.00    -0.079 OA 
ATOM     11  OD1 ASP A   1      -6.727   5.708  69.287  1.00  0.00    -0.055 OA 
ENDBRANCH   2   8
TORSDOF 1
ENDMDL
MODEL      207
REMARK 921   NORMALIZED FREE ENERGY PREDICTED BY IDOCK:   -1.63 KCAL/MOL
REMARK 922        TOTAL FREE ENERGY PREDICTED BY IDOCK:   -1.98 KCAL/MOL
REMARK 923 INTER-LIGAND FREE ENERGY PREDICTED BY IDOCK:   -1.85 KCAL/MOL
REMARK 924 INTRA-LIGAND FREE ENERGY PREDICTED BY IDOCK:   -0.13 KCAL/MOL
REMARK 927      BINDING AFFINITY PREDICTED BY RF-SCORE:    0.00 PKD
ROOT
ATOM      1  N   ASP A   1      -8.935   7.140  65.564  1.00  0.00    -0.377 NA 
ATOM      2  CA  ASP A   1      -8.995   8.359  66.424  1.00  0.00    -0.171 C  
ATOM      3  H1  ASP A   1      -9.183   6.298  66.085  1.00  0.00     0.000 HD 
ATOM      4  H2  ASP A   1      -8.024   7.045  65.116  1.00  0.00     0.000 HD 
ATOM      5  C   ASP A   1     -10.435   8.465  66.944  1.00  0.00    -0.289 C  
ATOM      6  O   ASP A   1     -11.012   7.244  67.067  1.00  0.00    -0.358 OA 
ATOM      7  OXT ASP A   1     -11.015   9.516  67.183  1.00  0.00    -0.168 OA 
ENDROOT
BRANCH   2   8
ATOM      8  CB  ASP A   1      -8.625   9.615  65.648  1.00  0.00    -0.149 C  
ATOM      9  CG  ASP A   1      -7.522  10.375  66.335  1.00  0.00    -0.120 C  
ATOM     10  OD2 ASP A   1      -6.337  10.133  66.162  1.00  0.00    -0.075 OA 
ATOM     11  OD1 ASP A   1      -7.946  11.358  67.159  1.00  0.00    -0.140 OA 
ENDBRANCH   2   8
TORSDOF 1
ENDMDL
MODEL      208
REMARK 921   NORMALIZED FREE ENERGY PREDICTED BY IDOCK:   -1.63 KCAL/MOL
REMARK 922        TOTAL FREE ENERGY PREDICTED BY IDOCK:   -1.97 KCAL/MOL
REMARK 923 INTER-LIGAND FREE ENERGY PREDICTED BY IDOCK:   -1.86 KCAL/MOL
REMARK 924 INTRA-LIGAND FREE ENERGY PREDICTED BY IDOCK:   -0.11 KCAL/MOL
REMARK 927      BINDING AFFINITY PREDICTED BY RF-SCORE:    0.00 PKD
ROOT
ATOM      1  N   ASP A   1      -8.000   6.404  65.953  1.00  0.00    -0.112 NA 
ATOM      2  CA  ASP A   1      -9.191   5.827  66.646  1.00  0.00    -0.137 C  
ATOM      3  H1  ASP A   1      -7.329   5.682  65.692  1.00  0.00     0.000 HD 
ATOM      4  H2  ASP A   1      -7.561   7.135  66.513  1.00  0.00     0.000 HD 
ATOM      5  C   ASP A   1      -9.836   4.836  65.668  1.00  0.00    -0.176 C  
ATOM      6  O   ASP A   1      -8.917   4.282  64.841  1.00  0.00    -0.131 OA 
ATOM      7  OXT ASP A   1     -11.036   4.598  65.606  1.00  0.00    -0.253 OA 
ENDROOT
BRANCH   2   8
ATOM      8  CB  ASP A   1     -10.192   6.906  67.036  1.00  0.00    -0.317 C  
ATOM      9  CG  ASP A   1     -10.368   6.971  68.530  1.00  0.00    -0.186 C  
ATOM     10  OD2 ASP A   1      -9.642   7.631  69.258  1.00  0.00    -0.158 OA 
ATOM     11  OD1 ASP A   1     -11.402   6.244  69.007  1.00  0.00    -0.390 OA 
ENDBRANCH   2   8
TORSDOF 1
ENDMDL
MODEL      209
REMARK 921   NORMALIZED FREE ENERGY PREDICTED BY IDOCK:   -1.60 KCAL/MOL
REMARK 922        TOTAL FREE ENERGY PREDICTED BY IDOCK:   -1.94 KCAL/MOL
REMARK 923 INTER-LIGAND FREE ENERGY PREDICTED BY IDOCK:   -1.44 KCAL/MOL
REMARK 924 INTRA-LIGAND FREE ENERGY PREDICTED BY IDOCK:   -0.50 KCAL/MOL
REMARK 927      BINDING AFFINITY PREDICTED BY RF-SCORE:    0.00 PKD
ROOT
ATOM      1  N   ASP A   1      -8.404   6.724  68.255  1.00  0.00    -0.118 NA 
ATOM      2  CA  ASP A   1      -8.345   5.234  68.179  1.00  0.00    -0.097 C  
ATOM      3  H1  ASP A   1      -8.077   7.159  67.392  1.00  0.00     0.000 HD 
ATOM      4  H2  ASP A   1      -7.893   7.076  69.065  1.00  0.00     0.000 HD 
ATOM      5  C   ASP A   1      -9.239   4.814  67.005  1.00  0.00    -0.126 C  
ATOM      6  O   ASP A   1      -9.277   5.766  66.041  1.00  0.00    -0.161 OA 
ATOM      7  OXT ASP A   1      -9.877   3.770  66.952  1.00  0.00    -0.182 OA 
ENDROOT
BRANCH   2   8
ATOM      8  CB  ASP A   1      -8.832   4.585  69.467  1.00  0.00    -0.129 C  
ATOM      9  CG  ASP A   1      -9.753   5.505  70.225  1.00  0.00    -0.183 C  
ATOM     10  OD2 ASP A   1     -10.954   5.569  70.012  1.00  0.00    -0.301 OA 
ATOM     11  OD1 ASP A   1      -9.146   6.253  71.172  1.00  0.00    -0.146 OA 
ENDBRANCH   2   8
TORSDOF 1
ENDMDL
MODEL      210
REMARK 921   NORMALIZED FREE ENERGY PREDICTED BY IDOCK:   -1.56 KCAL/MOL
REMARK 922        TOTAL FREE ENERGY PREDICTED BY IDOCK:   -1.90 KCAL/MOL
REMARK 923 INTER-LIGAND FREE ENERGY PREDICTED BY IDOCK:   -1.39 KCAL/MOL
REMARK 924 INTRA-LIGAND FREE ENERGY PREDICTED BY IDOCK:   -0.50 KCAL/MOL
REMARK 927      BINDING AFFINITY PREDICTED BY RF-SCORE:    0.00 PKD
ROOT
ATOM      1  N   ASP A   1     -10.785   4.109  73.067  1.00  0.00    -0.180 NA 
ATOM      2  CA  ASP A   1     -10.252   4.663  71.787  1.00  0.00    -0.172 C  
ATOM      3  H1  ASP A   1     -11.045   3.127  72.974  1.00  0.00     0.000 HD 
ATOM      4  H2  ASP A   1     -11.562   4.668  73.419  1.00  0.00     0.000 HD 
ATOM      5  C   ASP A   1      -9.021   3.824  71.419  1.00  0.00    -0.107 C  
ATOM      6  O   ASP A   1      -9.129   2.552  71.877  1.00  0.00    -0.077 OA 
ATOM      7  OXT ASP A   1      -8.039   4.248  70.823  1.00  0.00    -0.065 OA 
ENDROOT
BRANCH   2   8
ATOM      8  CB  ASP A   1      -9.864   6.128  71.926  1.00  0.00    -0.176 C  
ATOM      9  CG  ASP A   1      -9.582   6.483  73.362  1.00  0.00    -0.155 C  
ATOM     10  OD2 ASP A   1      -8.489   6.327  73.885  1.00  0.00    -0.118 OA 
ATOM     11  OD1 ASP A   1     -10.636   6.998  74.031  1.00  0.00    -0.341 OA 
ENDBRANCH   2   8
TORSDOF 1
ENDMDL
MODEL      211
REMARK 921   NORMALIZED FREE ENERGY PREDICTED BY IDOCK:   -1.56 KCAL/MOL
REMARK 922        TOTAL FREE ENERGY PREDICTED BY IDOCK:   -1.89 KCAL/MOL
REMARK 923 INTER-LIGAND FREE ENERGY PREDICTED BY IDOCK:   -1.45 KCAL/MOL
REMARK 924 INTRA-LIGAND FREE ENERGY PREDICTED BY IDOCK:   -0.44 KCAL/MOL
REMARK 927      BINDING AFFINITY PREDICTED BY RF-SCORE:    0.00 PKD
ROOT
ATOM      1  N   ASP A   1      -7.362   6.425  65.892  1.00  0.00    -0.078 NA 
ATOM      2  CA  ASP A   1      -8.594   6.544  66.727  1.00  0.00    -0.117 C  
ATOM      3  H1  ASP A   1      -6.888   5.535  66.045  1.00  0.00     0.000 HD 
ATOM      4  H2  ASP A   1      -6.732   7.213  66.044  1.00  0.00     0.000 HD 
ATOM      5  C   ASP A   1      -9.514   5.382  66.329  1.00  0.00    -0.157 C  
ATOM      6  O   ASP A   1      -8.804   4.304  65.916  1.00  0.00    -0.116 OA 
ATOM      7  OXT ASP A   1     -10.738   5.425  66.339  1.00  0.00    -0.297 OA 
ENDROOT
BRANCH   2   8
ATOM      8  CB  ASP A   1      -9.302   7.873  66.499  1.00  0.00    -0.255 C  
ATOM      9  CG  ASP A   1      -8.462   8.801  65.660  1.00  0.00    -0.160 C  
ATOM     10  OD2 ASP A   1      -8.473   8.788  64.439  1.00  0.00    -0.171 OA 
ATOM     11  OD1 ASP A   1      -7.696   9.659  66.368  1.00  0.00    -0.100 OA 
ENDBRANCH   2   8
TORSDOF 1
ENDMDL
MODEL      212
REMARK 921   NORMALIZED FREE ENERGY PREDICTED BY IDOCK:   -1.55 KCAL/MOL
REMARK 922        TOTAL FREE ENERGY PREDICTED BY IDOCK:   -1.89 KCAL/MOL
REMARK 923 INTER-LIGAND FREE ENERGY PREDICTED BY IDOCK:   -1.76 KCAL/MOL
REMARK 924 INTRA-LIGAND FREE ENERGY PREDICTED BY IDOCK:   -0.13 KCAL/MOL
REMARK 927      BINDING AFFINITY PREDICTED BY RF-SCORE:    0.00 PKD
ROOT
ATOM      1  N   ASP A   1      -9.349   9.179  71.718  1.00  0.00    -0.327 NA 
ATOM      2  CA  ASP A   1      -9.915   8.512  70.508  1.00  0.00    -0.188 C  
ATOM      3  H1  ASP A   1      -9.915   9.001  72.547  1.00  0.00     0.000 HD 
ATOM      4  H2  ASP A   1      -9.217  10.179  71.565  1.00  0.00     0.000 HD 
ATOM      5  C   ASP A   1      -9.954   7.007  70.808  1.00  0.00    -0.190 C  
ATOM      6  O   ASP A   1     -10.119   6.767  72.132  1.00  0.00    -0.181 OA 
ATOM      7  OXT ASP A   1      -9.814   6.125  69.971  1.00  0.00    -0.165 OA 
ENDROOT
BRANCH   2   8
ATOM      8  CB  ASP A   1      -9.069   8.778  69.271  1.00  0.00    -0.145 C  
ATOM      9  CG  ASP A   1      -9.901   9.358  68.157  1.00  0.00    -0.160 C  
ATOM     10  OD2 ASP A   1     -10.123  10.554  68.045  1.00  0.00    -0.158 OA 
ATOM     11  OD1 ASP A   1     -10.380   8.448  67.281  1.00  0.00    -0.248 OA 
ENDBRANCH   2   8
TORSDOF 1
ENDMDL
MODEL      213
REMARK 921   NORMALIZED FREE ENERGY PREDICTED BY IDOCK:   -1.52 KCAL/MOL
REMARK 922        TOTAL FREE ENERGY PREDICTED BY IDOCK:   -1.85 KCAL/MOL
REMARK 923 INTER-LIGAND FREE ENERGY PREDICTED BY IDOCK:   -1.36 KCAL/MOL
REMARK 924 INTRA-LIGAND FREE ENERGY PREDICTED BY IDOCK:   -0.49 KCAL/MOL
REMARK 927      BINDING AFFINITY PREDICTED BY RF-SCORE:    0.00 PKD
ROOT
ATOM      1  N   ASP A   1      -9.689   5.850  71.324  1.00  0.00    -0.171 NA 
ATOM      2  CA  ASP A   1      -9.404   6.693  72.523  1.00  0.00    -0.137 C  
ATOM      3  H1  ASP A   1      -9.305   6.262  70.474  1.00  0.00     0.000 HD 
ATOM      4  H2  ASP A   1     -10.687   5.663  71.229  1.00  0.00     0.000 HD 
ATOM      5  C   ASP A   1      -7.878   6.806  72.634  1.00  0.00    -0.100 C  
ATOM      6  O   ASP A   1      -7.283   6.735  71.418  1.00  0.00    -0.078 OA 
ATOM      7  OXT ASP A   1      -7.259   6.906  73.687  1.00  0.00    -0.078 OA 
ENDROOT
BRANCH   2   8
ATOM      8  CB  ASP A   1      -9.978   6.079  73.793  1.00  0.00    -0.212 C  
ATOM      9  CG  ASP A   1     -10.677   4.778  73.500  1.00  0.00    -0.273 C  
ATOM     10  OD2 ASP A   1     -10.096   3.705  73.455  1.00  0.00    -0.123 OA 
ATOM     11  OD1 ASP A   1     -12.008   4.889  73.298  1.00  0.00    -0.193 OA 
ENDBRANCH   2   8
TORSDOF 1
ENDMDL
MODEL      214
REMARK 921   NORMALIZED FREE ENERGY PREDICTED BY IDOCK:   -1.45 KCAL/MOL
REMARK 922        TOTAL FREE ENERGY PREDICTED BY IDOCK:   -1.78 KCAL/MOL
REMARK 923 INTER-LIGAND FREE ENERGY PREDICTED BY IDOCK:   -1.28 KCAL/MOL
REMARK 924 INTRA-LIGAND FREE ENERGY PREDICTED BY IDOCK:   -0.50 KCAL/MOL
REMARK 927      BINDING AFFINITY PREDICTED BY RF-SCORE:    0.00 PKD
ROOT
ATOM      1  N   ASP A   1      -9.672   8.197  69.333  1.00  0.00    -0.168 NA 
ATOM      2  CA  ASP A   1      -9.038   9.211  70.227  1.00  0.00    -0.218 C  
ATOM      3  H1  ASP A   1     -10.315   8.629  68.670  1.00  0.00     0.000 HD 
ATOM      4  H2  ASP A   1     -10.131   7.462  69.871  1.00  0.00     0.000 HD 
ATOM      5  C   ASP A   1      -8.281  10.191  69.321  1.00  0.00    -0.156 C  
ATOM      6  O   ASP A   1      -8.871  10.303  68.106  1.00  0.00    -0.121 OA 
ATOM      7  OXT ASP A   1      -7.250  10.774  69.630  1.00  0.00    -0.141 OA 
ENDROOT
BRANCH   2   8
ATOM      8  CB  ASP A   1      -8.078   8.566  71.218  1.00  0.00    -0.166 C  
ATOM      9  CG  ASP A   1      -7.955   7.085  70.971  1.00  0.00    -0.101 C  
ATOM     10  OD2 ASP A   1      -7.168   6.607  70.168  1.00  0.00    -0.075 OA 
ATOM     11  OD1 ASP A   1      -8.781   6.321  71.718  1.00  0.00    -0.133 OA 
ENDBRANCH   2   8
TORSDOF 1
ENDMDL
MODEL      215
REMARK 921   NORMALIZED FREE ENERGY PREDICTED BY IDOCK:   -1.38 KCAL/MOL
REMARK 922        TOTAL FREE ENERGY PREDICTED BY IDOCK:   -1.70 KCAL/MOL
REMARK 923 INTER-LIGAND FREE ENERGY PREDICTED BY IDOCK:   -1.26 KCAL/MOL
REMARK 924 INTRA-LIGAND FREE ENERGY PREDICTED BY IDOCK:   -0.45 KCAL/MOL
REMARK 927      BINDING AFFINITY PREDICTED BY RF-SCORE:    0.00 PKD
ROOT
ATOM      1  N   ASP A   1      -9.309   3.471  69.006  1.00  0.00    -0.163 NA 
ATOM      2  CA  ASP A   1      -9.630   3.369  67.551  1.00  0.00    -0.101 C  
ATOM      3  H1  ASP A   1      -9.088   2.560  69.407  1.00  0.00     0.000 HD 
ATOM      4  H2  ASP A   1     -10.059   3.932  69.520  1.00  0.00     0.000 HD 
ATOM      5  C   ASP A   1      -8.392   2.777  66.864  1.00  0.00    -0.094 C  
ATOM      6  O   ASP A   1      -7.705   1.956  67.696  1.00  0.00    -0.058 OA 
ATOM      7  OXT ASP A   1      -8.036   3.036  65.721  1.00  0.00    -0.085 OA 
ENDROOT
BRANCH   2   8
ATOM      8  CB  ASP A   1      -9.960   4.729  66.951  1.00  0.00    -0.245 C  
ATOM      9  CG  ASP A   1     -10.070   5.784  68.020  1.00  0.00    -0.161 C  
ATOM     10  OD2 ASP A   1      -9.107   6.403  68.446  1.00  0.00    -0.121 OA 
ATOM     11  OD1 ASP A   1     -11.325   6.000  68.470  1.00  0.00    -0.230 OA 
ENDBRANCH   2   8
TORSDOF 1
ENDMDL
MODEL      216
REMARK 921   NORMALIZED FREE ENERGY PREDICTED BY IDOCK:   -1.38 KCAL/MOL
REMARK 922        TOTAL FREE ENERGY PREDICTED BY IDOCK:   -1.70 KCAL/MOL
REMARK 923 INTER-LIGAND FREE ENERGY PREDICTED BY IDOCK:   -1.60 KCAL/MOL
REMARK 924 INTRA-LIGAND FREE ENERGY PREDICTED BY IDOCK:   -0.10 KCAL/MOL
REMARK 927      BINDING AFFINITY PREDICTED BY RF-SCORE:    0.00 PKD
ROOT
ATOM      1  N   ASP A   1     -10.913   3.349  73.761  1.00  0.00    -0.223 NA 
ATOM      2  CA  ASP A   1     -10.600   3.780  72.366  1.00  0.00     0.020 C  
ATOM      3  H1  ASP A   1     -11.167   2.362  73.802  1.00  0.00     0.000 HD 
ATOM      4  H2  ASP A   1     -11.633   3.936  74.179  1.00  0.00     0.000 HD 
ATOM      5  C   ASP A   1      -9.429   2.912  71.885  1.00  0.00    -0.133 C  
ATOM      6  O   ASP A   1      -9.441   1.690  72.471  1.00  0.00    -0.073 OA 
ATOM      7  OXT ASP A   1      -8.562   3.280  71.102  1.00  0.00    -0.065 OA 
ENDROOT
BRANCH   2   8
ATOM      8  CB  ASP A   1     -10.220   5.253  72.303  1.00  0.00    -0.250 C  
ATOM      9  CG  ASP A   1     -11.276   6.058  71.592  1.00  0.00    -0.268 C  
ATOM     10  OD2 ASP A   1     -12.257   6.516  72.156  1.00  0.00    -0.308 OA 
ATOM     11  OD1 ASP A   1     -11.049   6.241  70.273  1.00  0.00    -0.303 OA 
ENDBRANCH   2   8
TORSDOF 1
ENDMDL
MODEL      217
REMARK 921   NORMALIZED FREE ENERGY PREDICTED BY IDOCK:   -1.37 KCAL/MOL
REMARK 922        TOTAL FREE ENERGY PREDICTED BY IDOCK:   -1.70 KCAL/MOL
REMARK 923 INTER-LIGAND FREE ENERGY PREDICTED BY IDOCK:   -1.18 KCAL/MOL
REMARK 924 INTRA-LIGAND FREE ENERGY PREDICTED BY IDOCK:   -0.52 KCAL/MOL
REMARK 927      BINDING AFFINITY PREDICTED BY RF-SCORE:    0.00 PKD
ROOT
ATOM      1  N   ASP A   1      -9.762   4.116  74.425  1.00  0.00    -0.118 NA 
ATOM      2  CA  ASP A   1     -10.410   3.771  73.124  1.00  0.00    -0.165 C  
ATOM      3  H1  ASP A   1     -10.356   3.875  75.218  1.00  0.00     0.000 HD 
ATOM      4  H2  ASP A   1      -9.483   5.096  74.453  1.00  0.00     0.000 HD 
ATOM      5  C   ASP A   1     -10.673   2.259  73.147  1.00  0.00    -0.165 C  
ATOM      6  O   ASP A   1     -10.884   1.809  74.407  1.00  0.00    -0.133 OA 
ATOM      7  OXT ASP A   1     -10.657   1.533  72.160  1.00  0.00    -0.161 OA 
ENDROOT
BRANCH   2   8
ATOM      8  CB  ASP A   1      -9.522   4.130  71.941  1.00  0.00    -0.201 C  
ATOM      9  CG  ASP A   1      -8.092   4.326  72.371  1.00  0.00    -0.096 C  
ATOM     10  OD2 ASP A   1      -7.293   3.407  72.465  1.00  0.00    -0.046 OA 
ATOM     11  OD1 ASP A   1      -7.757   5.606  72.642  1.00  0.00    -0.099 OA 
ENDBRANCH   2   8
TORSDOF 1
ENDMDL
MODEL      218
REMARK 921   NORMALIZED FREE ENERGY PREDICTED BY IDOCK:   -1.36 KCAL/MOL
REMARK 922        TOTAL FREE ENERGY PREDICTED BY IDOCK:   -1.69 KCAL/MOL
REMARK 923 INTER-LIGAND FREE ENERGY PREDICTED BY IDOCK:   -1.20 KCAL/MOL
REMARK 924 INTRA-LIGAND FREE ENERGY PREDICTED BY IDOCK:   -0.49 KCAL/MOL
REMARK 927      BINDING AFFINITY PREDICTED BY RF-SCORE:    0.00 PKD
ROOT
ATOM      1  N   ASP A   1      -9.501   3.223  68.300  1.00  0.00    -0.180 NA 
ATOM      2  CA  ASP A   1      -9.846   4.640  68.620  1.00  0.00    -0.120 C  
ATOM      3  H1  ASP A   1      -9.658   3.010  67.315  1.00  0.00     0.000 HD 
ATOM      4  H2  ASP A   1     -10.001   2.572  68.905  1.00  0.00     0.000 HD 
ATOM      5  C   ASP A   1      -8.952   5.524  67.741  1.00  0.00    -0.108 C  
ATOM      6  O   ASP A   1      -8.643   4.913  66.571  1.00  0.00    -0.110 OA 
ATOM      7  OXT ASP A   1      -8.530   6.629  68.061  1.00  0.00    -0.116 OA 
ENDROOT
BRANCH   2   8
ATOM      8  CB  ASP A   1      -9.611   4.958  70.091  1.00  0.00    -0.263 C  
ATOM      9  CG  ASP A   1      -9.077   3.758  70.828  1.00  0.00    -0.109 C  
ATOM     10  OD2 ASP A   1      -7.888   3.484  70.881  1.00  0.00    -0.046 OA 
ATOM     11  OD1 ASP A   1     -10.020   3.008  71.439  1.00  0.00    -0.144 OA 
ENDBRANCH   2   8
TORSDOF 1
ENDMDL
MODEL      219
REMARK 921   NORMALIZED FREE ENERGY PREDICTED BY IDOCK:   -1.34 KCAL/MOL
REMARK 922        TOTAL FREE ENERGY PREDICTED BY IDOCK:   -1.67 KCAL/MOL
REMARK 923 INTER-LIGAND FREE ENERGY PREDICTED BY IDOCK:   -1.15 KCAL/MOL
REMARK 924 INTRA-LIGAND FREE ENERGY PREDICTED BY IDOCK:   -0.51 KCAL/MOL
REMARK 927      BINDING AFFINITY PREDICTED BY RF-SCORE:    0.00 PKD
ROOT
ATOM      1  N   ASP A   1      -8.579   5.588  72.507  1.00  0.00    -0.121 NA 
ATOM      2  CA  ASP A   1      -8.923   6.239  71.208  1.00  0.00    -0.139 C  
ATOM      3  H1  ASP A   1      -8.768   4.586  72.489  1.00  0.00     0.000 HD 
ATOM      4  H2  ASP A   1      -9.053   6.043  73.287  1.00  0.00     0.000 HD 
ATOM      5  C   ASP A   1      -8.066   5.560  70.131  1.00  0.00    -0.098 C  
ATOM      6  O   ASP A   1      -7.793   4.271  70.450  1.00  0.00    -0.051 OA 
ATOM      7  OXT ASP A   1      -7.642   6.113  69.124  1.00  0.00    -0.090 OA 
ENDROOT
BRANCH   2   8
ATOM      8  CB  ASP A   1      -8.640   7.735  71.235  1.00  0.00    -0.127 C  
ATOM      9  CG  ASP A   1      -7.923   8.131  72.498  1.00  0.00    -0.144 C  
ATOM     10  OD2 ASP A   1      -6.708   8.078  72.619  1.00  0.00    -0.069 OA 
ATOM     11  OD1 ASP A   1      -8.731   8.558  73.493  1.00  0.00    -0.314 OA 
ENDBRANCH   2   8
TORSDOF 1
ENDMDL
MODEL      220
REMARK 921   NORMALIZED FREE ENERGY PREDICTED BY IDOCK:   -1.32 KCAL/MOL
REMARK 922        TOTAL FREE ENERGY PREDICTED BY IDOCK:   -1.65 KCAL/MOL
REMARK 923 INTER-LIGAND FREE ENERGY PREDICTED BY IDOCK:   -1.38 KCAL/MOL
REMARK 924 INTRA-LIGAND FREE ENERGY PREDICTED BY IDOCK:   -0.27 KCAL/MOL
REMARK 927      BINDING AFFINITY PREDICTED BY RF-SCORE:    0.00 PKD
ROOT
ATOM      1  N   ASP A   1      -9.757   7.970  69.463  1.00  0.00    -0.168 NA 
ATOM      2  CA  ASP A   1      -9.132   7.102  70.505  1.00  0.00    -0.155 C  
ATOM      3  H1  ASP A   1     -10.274   8.745  69.878  1.00  0.00     0.000 HD 
ATOM      4  H2  ASP A   1     -10.344   7.427  68.830  1.00  0.00     0.000 HD 
ATOM      5  C   ASP A   1      -8.183   7.996  71.316  1.00  0.00    -0.109 C  
ATOM      6  O   ASP A   1      -8.616   9.280  71.351  1.00  0.00    -0.326 OA 
ATOM      7  OXT ASP A   1      -7.141   7.617  71.836  1.00  0.00    -0.061 OA 
ENDROOT
BRANCH   2   8
ATOM      8  CB  ASP A   1      -8.360   5.945  69.886  1.00  0.00    -0.121 C  
ATOM      9  CG  ASP A   1      -9.251   5.101  69.014  1.00  0.00    -0.117 C  
ATOM     10  OD2 ASP A   1      -9.467   5.354  67.839  1.00  0.00    -0.114 OA 
ATOM     11  OD1 ASP A   1      -9.792   4.029  69.634  1.00  0.00    -0.210 OA 
ENDBRANCH   2   8
TORSDOF 1
ENDMDL
MODEL      221
REMARK 921   NORMALIZED FREE ENERGY PREDICTED BY IDOCK:   -1.31 KCAL/MOL
REMARK 922        TOTAL FREE ENERGY PREDICTED BY IDOCK:   -1.63 KCAL/MOL
REMARK 923 INTER-LIGAND FREE ENERGY PREDICTED BY IDOCK:   -1.35 KCAL/MOL
REMARK 924 INTRA-LIGAND FREE ENERGY PREDICTED BY IDOCK:   -0.28 KCAL/MOL
REMARK 927      BINDING AFFINITY PREDICTED BY RF-SCORE:    0.00 PKD
ROOT
ATOM      1  N   ASP A   1     -10.073   5.068  69.544  1.00  0.00    -0.229 NA 
ATOM      2  CA  ASP A   1      -9.225   4.274  68.607  1.00  0.00    -0.140 C  
ATOM      3  H1  ASP A   1     -10.170   4.606  70.449  1.00  0.00     0.000 HD 
ATOM      4  H2  ASP A   1     -10.983   5.279  69.135  1.00  0.00     0.000 HD 
ATOM      5  C   ASP A   1      -7.850   4.123  69.272  1.00  0.00    -0.057 C  
ATOM      6  O   ASP A   1      -7.948   4.119  70.624  1.00  0.00    -0.054 OA 
ATOM      7  OXT ASP A   1      -6.786   4.054  68.669  1.00  0.00    -0.045 OA 
ENDROOT
BRANCH   2   8
ATOM      8  CB  ASP A   1      -9.080   4.963  67.257  1.00  0.00    -0.122 C  
ATOM      9  CG  ASP A   1     -10.369   5.621  66.841  1.00  0.00    -0.259 C  
ATOM     10  OD2 ASP A   1     -10.682   6.751  67.185  1.00  0.00    -0.288 OA 
ATOM     11  OD1 ASP A   1     -11.156   4.864  66.046  1.00  0.00    -0.154 OA 
ENDBRANCH   2   8
TORSDOF 1
ENDMDL
MODEL      222
REMARK 921   NORMALIZED FREE ENERGY PREDICTED BY IDOCK:   -1.25 KCAL/MOL
REMARK 922        TOTAL FREE ENERGY PREDICTED BY IDOCK:   -1.57 KCAL/MOL
REMARK 923 INTER-LIGAND FREE ENERGY PREDICTED BY IDOCK:   -1.05 KCAL/MOL
REMARK 924 INTRA-LIGAND FREE ENERGY PREDICTED BY IDOCK:   -0.52 KCAL/MOL
REMARK 927      BINDING AFFINITY PREDICTED BY RF-SCORE:    0.00 PKD
ROOT
ATOM      1  N   ASP A   1      -7.513   3.850  73.638  1.00  0.00    -0.069 NA 
ATOM      2  CA  ASP A   1      -8.763   4.536  74.082  1.00  0.00    -0.103 C  
ATOM      3  H1  ASP A   1      -7.212   3.144  74.309  1.00  0.00     0.000 HD 
ATOM      4  H2  ASP A   1      -6.770   4.521  73.443  1.00  0.00     0.000 HD 
ATOM      5  C   ASP A   1      -9.838   3.450  74.225  1.00  0.00    -0.117 C  
ATOM      6  O   ASP A   1      -9.297   2.254  74.561  1.00  0.00    -0.078 OA 
ATOM      7  OXT ASP A   1     -11.034   3.620  74.024  1.00  0.00    -0.208 OA 
ENDROOT
BRANCH   2   8
ATOM      8  CB  ASP A   1      -9.214   5.590  73.080  1.00  0.00    -0.137 C  
ATOM      9  CG  ASP A   1      -8.564   5.379  71.738  1.00  0.00    -0.131 C  
ATOM     10  OD2 ASP A   1      -9.019   4.630  70.887  1.00  0.00    -0.114 OA 
ATOM     11  OD1 ASP A   1      -7.434   6.092  71.543  1.00  0.00    -0.090 OA 
ENDBRANCH   2   8
TORSDOF 1
ENDMDL
MODEL      223
REMARK 921   NORMALIZED FREE ENERGY PREDICTED BY IDOCK:   -1.23 KCAL/MOL
REMARK 922        TOTAL FREE ENERGY PREDICTED BY IDOCK:   -1.55 KCAL/MOL
REMARK 923 INTER-LIGAND FREE ENERGY PREDICTED BY IDOCK:   -1.03 KCAL/MOL
REMARK 924 INTRA-LIGAND FREE ENERGY PREDICTED BY IDOCK:   -0.52 KCAL/MOL
REMARK 927      BINDING AFFINITY PREDICTED BY RF-SCORE:    0.00 PKD
ROOT
ATOM      1  N   ASP A   1      -6.709   5.516  66.953  1.00  0.00    -0.060 NA 
ATOM      2  CA  ASP A   1      -8.118   5.452  67.443  1.00  0.00    -0.101 C  
ATOM      3  H1  ASP A   1      -6.056   5.120  67.630  1.00  0.00     0.000 HD 
ATOM      4  H2  ASP A   1      -6.447   6.467  66.696  1.00  0.00     0.000 HD 
ATOM      5  C   ASP A   1      -8.439   3.970  67.681  1.00  0.00    -0.098 C  
ATOM      6  O   ASP A   1      -7.330   3.270  68.026  1.00  0.00    -0.053 OA 
ATOM      7  OXT ASP A   1      -9.545   3.463  67.541  1.00  0.00    -0.208 OA 
ENDROOT
BRANCH   2   8
ATOM      8  CB  ASP A   1      -9.093   6.042  66.433  1.00  0.00    -0.159 C  
ATOM      9  CG  ASP A   1      -8.442   6.217  65.086  1.00  0.00    -0.100 C  
ATOM     10  OD2 ASP A   1      -8.390   5.327  64.251  1.00  0.00    -0.131 OA 
ATOM     11  OD1 ASP A   1      -7.922   7.444  64.868  1.00  0.00    -0.120 OA 
ENDBRANCH   2   8
TORSDOF 1
ENDMDL
MODEL      224
REMARK 921   NORMALIZED FREE ENERGY PREDICTED BY IDOCK:   -1.10 KCAL/MOL
REMARK 922        TOTAL FREE ENERGY PREDICTED BY IDOCK:   -1.41 KCAL/MOL
REMARK 923 INTER-LIGAND FREE ENERGY PREDICTED BY IDOCK:   -1.19 KCAL/MOL
REMARK 924 INTRA-LIGAND FREE ENERGY PREDICTED BY IDOCK:   -0.22 KCAL/MOL
REMARK 927      BINDING AFFINITY PREDICTED BY RF-SCORE:    0.00 PKD
ROOT
ATOM      1  N   ASP A   1      -8.398   3.417  68.150  1.00  0.00    -0.081 NA 
ATOM      2  CA  ASP A   1      -8.379   3.284  66.663  1.00  0.00    -0.102 C  
ATOM      3  H1  ASP A   1      -8.128   2.548  68.610  1.00  0.00     0.000 HD 
ATOM      4  H2  ASP A   1      -9.303   3.749  68.483  1.00  0.00     0.000 HD 
ATOM      5  C   ASP A   1      -6.946   2.901  66.270  1.00  0.00    -0.053 C  
ATOM      6  O   ASP A   1      -6.334   2.190  67.248  1.00  0.00    -0.027 OA 
ATOM      7  OXT ASP A   1      -6.398   3.226  65.224  1.00  0.00    -0.029 OA 
ENDROOT
BRANCH   2   8
ATOM      8  CB  ASP A   1      -8.781   4.582  65.976  1.00  0.00    -0.115 C  
ATOM      9  CG  ASP A   1     -10.260   4.833  66.110  1.00  0.00    -0.281 C  
ATOM     10  OD2 ASP A   1     -10.756   5.396  67.074  1.00  0.00    -0.252 OA 
ATOM     11  OD1 ASP A   1     -11.001   4.391  65.071  1.00  0.00    -0.247 OA 
ENDBRANCH   2   8
TORSDOF 1
ENDMDL
MODEL      225
REMARK 921   NORMALIZED FREE ENERGY PREDICTED BY IDOCK:   -0.85 KCAL/MOL
REMARK 922        TOTAL FREE ENERGY PREDICTED BY IDOCK:   -1.15 KCAL/MOL
REMARK 923 INTER-LIGAND FREE ENERGY PREDICTED BY IDOCK:   -0.90 KCAL/MOL
REMARK 924 INTRA-LIGAND FREE ENERGY PREDICTED BY IDOCK:   -0.25 KCAL/MOL
REMARK 927      BINDING AFFINITY PREDICTED BY RF-SCORE:    0.00 PKD
ROOT
ATOM      1  N   ASP A   1      -8.534   7.929  67.820  1.00  0.00    -0.125 NA 
ATOM      2  CA  ASP A   1      -7.331   8.747  68.158  1.00  0.00    -0.087 C  
ATOM      3  H1  ASP A   1      -8.384   6.940  68.016  1.00  0.00     0.000 HD 
ATOM      4  H2  ASP A   1      -8.824   8.077  66.854  1.00  0.00     0.000 HD 
ATOM      5  C   ASP A   1      -7.061   8.541  69.654  1.00  0.00    -0.052 C  
ATOM      6  O   ASP A   1      -7.465   7.316  70.070  1.00  0.00    -0.081 OA 
ATOM      7  OXT ASP A   1      -6.578   9.385  70.400  1.00  0.00    -0.057 OA 
ENDROOT
BRANCH   2   8
ATOM      8  CB  ASP A   1      -7.554  10.225  67.865  1.00  0.00    -0.089 C  
ATOM      9  CG  ASP A   1      -7.718  10.468  66.388  1.00  0.00    -0.135 C  
ATOM     10  OD2 ASP A   1      -8.792  10.373  65.813  1.00  0.00    -0.157 OA 
ATOM     11  OD1 ASP A   1      -6.581  10.809  65.745  1.00  0.00    -0.120 OA 
ENDBRANCH   2   8
TORSDOF 1
ENDMDL
