MODEL        1
REMARK 921   NORMALIZED FREE ENERGY PREDICTED BY IDOCK:   -7.68 KCAL/MOL
REMARK 922        TOTAL FREE ENERGY PREDICTED BY IDOCK:   -8.95 KCAL/MOL
REMARK 923 INTER-LIGAND FREE ENERGY PREDICTED BY IDOCK:   -8.58 KCAL/MOL
REMARK 924 INTRA-LIGAND FREE ENERGY PREDICTED BY IDOCK:   -0.37 KCAL/MOL
REMARK 927      BINDING AFFINITY PREDICTED BY RF-SCORE:    0.00 PKD
ROOT
HETATM    1  O   UNL     1      -8.528  10.456  64.505  1.00  0.00    -0.174 OA 
HETATM    2  C   UNL     1      -9.611  10.668  63.729  1.00  0.00    -0.306 C  
HETATM    3  C   UNL     1     -10.597  11.604  64.321  1.00  0.00    -0.394 A  
HETATM    4  O   UNL     1      -9.752  10.175  62.625  1.00  0.00    -0.261 OA 
HETATM    5  C   UNL     1     -11.322  12.447  63.474  1.00  0.00    -0.553 A  
HETATM    6  C   UNL     1     -12.246  13.346  64.010  1.00  0.00    -0.466 A  
HETATM    7  C   UNL     1     -12.442  13.409  65.393  1.00  0.00    -0.543 A  
HETATM    8  C   UNL     1     -11.727  12.563  66.251  1.00  0.00    -0.462 A  
HETATM    9  C   UNL     1     -10.823  11.640  65.699  1.00  0.00    -0.330 A  
ENDROOT
BRANCH   8  10
HETATM   10  C   UNL     1     -11.858  12.640  67.701  1.00  0.00    -0.329 A  
HETATM   11  N   UNL     1     -11.949  11.582  68.520  1.00  0.00    -0.529 NA 
HETATM   12  O   UNL     1     -12.149  12.158  69.776  1.00  0.00    -0.290 OA 
HETATM   13  C   UNL     1     -12.160  13.512  69.593  1.00  0.00    -0.306 A  
HETATM   14  N   UNL     1     -11.972  13.856  68.339  1.00  0.00    -0.366 NA 
BRANCH  13  15
HETATM   15  C   UNL     1     -12.398  14.363  70.750  1.00  0.00    -0.417 A  
HETATM   16  C   UNL     1     -13.642  14.308  71.403  1.00  0.00    -0.395 A  
HETATM   17  C   UNL     1     -13.899  15.096  72.529  1.00  0.00    -0.602 A  
HETATM   18  C   UNL     1     -12.915  15.950  73.020  1.00  0.00    -0.630 A  
HETATM   19  C   UNL     1     -11.677  16.016  72.384  1.00  0.00    -0.573 A  
HETATM   20  C   UNL     1     -11.428  15.228  71.261  1.00  0.00    -0.380 A  
HETATM   21  F   UNL     1     -10.217  15.321  70.690  1.00  0.00    -0.268 F  
ENDBRANCH  13  15
ENDBRANCH   8  10
TORSDOF 2
ENDMDL
MODEL        2
REMARK 921   NORMALIZED FREE ENERGY PREDICTED BY IDOCK:   -7.56 KCAL/MOL
REMARK 922        TOTAL FREE ENERGY PREDICTED BY IDOCK:   -8.81 KCAL/MOL
REMARK 923 INTER-LIGAND FREE ENERGY PREDICTED BY IDOCK:   -8.44 KCAL/MOL
REMARK 924 INTRA-LIGAND FREE ENERGY PREDICTED BY IDOCK:   -0.37 KCAL/MOL
REMARK 927      BINDING AFFINITY PREDICTED BY RF-SCORE:    0.00 PKD
ROOT
HETATM    1  O   UNL     1     -12.878  10.609  70.028  1.00  0.00    -0.235 OA 
HETATM    2  C   UNL     1     -12.889  11.089  71.289  1.00  0.00    -0.425 C  
HETATM    3  C   UNL     1     -12.912  12.569  71.365  1.00  0.00    -0.347 A  
HETATM    4  O   UNL     1     -12.922  10.378  72.277  1.00  0.00    -0.382 OA 
HETATM    5  C   UNL     1     -13.607  13.181  72.412  1.00  0.00    -0.667 A  
HETATM    6  C   UNL     1     -13.654  14.575  72.497  1.00  0.00    -0.586 A  
HETATM    7  C   UNL     1     -13.012  15.358  71.532  1.00  0.00    -0.521 A  
HETATM    8  C   UNL     1     -12.306  14.754  70.483  1.00  0.00    -0.398 A  
HETATM    9  C   UNL     1     -12.238  13.353  70.425  1.00  0.00    -0.415 A  
ENDROOT
BRANCH   8  10
HETATM   10  C   UNL     1     -11.675  15.535  69.425  1.00  0.00    -0.367 A  
HETATM   11  N   UNL     1     -11.636  15.182  68.132  1.00  0.00    -0.343 NA 
HETATM   12  O   UNL     1     -10.860  16.183  67.544  1.00  0.00    -0.323 OA 
HETATM   13  C   UNL     1     -10.504  17.045  68.542  1.00  0.00    -0.373 A  
HETATM   14  N   UNL     1     -10.991  16.697  69.711  1.00  0.00    -0.293 NA 
BRANCH  13  15
HETATM   15  C   UNL     1      -9.645  18.172  68.208  1.00  0.00    -0.324 A  
HETATM   16  C   UNL     1      -8.283  18.127  68.556  1.00  0.00    -0.320 A  
HETATM   17  C   UNL     1      -7.424  19.182  68.234  1.00  0.00    -0.334 A  
HETATM   18  C   UNL     1      -7.913  20.297  67.557  1.00  0.00    -0.346 A  
HETATM   19  C   UNL     1      -9.259  20.355  67.205  1.00  0.00    -0.525 A  
HETATM   20  C   UNL     1     -10.111  19.300  67.530  1.00  0.00    -0.389 A  
HETATM   21  F   UNL     1     -11.397  19.401  67.162  1.00  0.00    -0.524 F  
ENDBRANCH  13  15
ENDBRANCH   8  10
TORSDOF 2
ENDMDL
MODEL        3
REMARK 921   NORMALIZED FREE ENERGY PREDICTED BY IDOCK:   -7.52 KCAL/MOL
REMARK 922        TOTAL FREE ENERGY PREDICTED BY IDOCK:   -8.77 KCAL/MOL
REMARK 923 INTER-LIGAND FREE ENERGY PREDICTED BY IDOCK:   -8.38 KCAL/MOL
REMARK 924 INTRA-LIGAND FREE ENERGY PREDICTED BY IDOCK:   -0.40 KCAL/MOL
REMARK 927      BINDING AFFINITY PREDICTED BY RF-SCORE:    0.00 PKD
ROOT
HETATM    1  O   UNL     1      -8.339  11.376  66.547  1.00  0.00    -0.168 OA 
HETATM    2  C   UNL     1      -9.506  10.812  66.173  1.00  0.00    -0.187 C  
HETATM    3  C   UNL     1     -10.348  11.686  65.322  1.00  0.00    -0.316 A  
HETATM    4  O   UNL     1      -9.825   9.674  66.466  1.00  0.00    -0.202 OA 
HETATM    5  C   UNL     1     -11.137  11.104  64.326  1.00  0.00    -0.175 A  
HETATM    6  C   UNL     1     -11.927  11.909  63.503  1.00  0.00    -0.567 A  
HETATM    7  C   UNL     1     -11.926  13.297  63.671  1.00  0.00    -0.547 A  
HETATM    8  C   UNL     1     -11.146  13.891  64.672  1.00  0.00    -0.389 A  
HETATM    9  C   UNL     1     -10.379  13.070  65.514  1.00  0.00    -0.304 A  
ENDROOT
BRANCH   8  10
HETATM   10  C   UNL     1     -11.071  15.338  64.839  1.00  0.00    -0.424 A  
HETATM   11  N   UNL     1     -11.666  16.233  64.037  1.00  0.00    -0.975 NA 
HETATM   12  O   UNL     1     -11.230  17.461  64.540  1.00  0.00    -1.018 OA 
HETATM   13  C   UNL     1     -10.412  17.187  65.599  1.00  0.00    -0.197 A  
HETATM   14  N   UNL     1     -10.293  15.899  65.829  1.00  0.00    -0.354 NA 
BRANCH  13  15
HETATM   15  C   UNL     1      -9.778  18.301  66.289  1.00  0.00    -0.293 A  
HETATM   16  C   UNL     1     -10.580  19.264  66.926  1.00  0.00    -0.557 A  
HETATM   17  C   UNL     1     -10.006  20.336  67.615  1.00  0.00    -0.551 A  
HETATM   18  C   UNL     1      -8.620  20.461  67.679  1.00  0.00    -0.302 A  
HETATM   19  C   UNL     1      -7.812  19.515  67.054  1.00  0.00    -0.286 A  
HETATM   20  C   UNL     1      -8.391  18.448  66.367  1.00  0.00    -0.251 A  
HETATM   21  F   UNL     1      -7.569  17.559  65.789  1.00  0.00    -0.311 F  
ENDBRANCH  13  15
ENDBRANCH   8  10
TORSDOF 2
ENDMDL
MODEL        4
REMARK 921   NORMALIZED FREE ENERGY PREDICTED BY IDOCK:   -7.43 KCAL/MOL
REMARK 922        TOTAL FREE ENERGY PREDICTED BY IDOCK:   -8.67 KCAL/MOL
REMARK 923 INTER-LIGAND FREE ENERGY PREDICTED BY IDOCK:   -8.29 KCAL/MOL
REMARK 924 INTRA-LIGAND FREE ENERGY PREDICTED BY IDOCK:   -0.38 KCAL/MOL
REMARK 927      BINDING AFFINITY PREDICTED BY RF-SCORE:    0.00 PKD
ROOT
HETATM    1  O   UNL     1     -12.752  10.511  70.034  1.00  0.00    -0.256 OA 
HETATM    2  C   UNL     1     -12.855  11.037  71.272  1.00  0.00    -0.425 C  
HETATM    3  C   UNL     1     -12.961  12.515  71.287  1.00  0.00    -0.301 A  
HETATM    4  O   UNL     1     -12.901  10.363  72.285  1.00  0.00    -0.334 OA 
HETATM    5  C   UNL     1     -13.742  13.127  72.272  1.00  0.00    -0.647 A  
HETATM    6  C   UNL     1     -13.869  14.517  72.298  1.00  0.00    -0.587 A  
HETATM    7  C   UNL     1     -13.220  15.298  71.335  1.00  0.00    -0.555 A  
HETATM    8  C   UNL     1     -12.428  14.696  70.349  1.00  0.00    -0.410 A  
HETATM    9  C   UNL     1     -12.282  13.300  70.351  1.00  0.00    -0.404 A  
ENDROOT
BRANCH   8  10
HETATM   10  C   UNL     1     -11.786  15.470  69.293  1.00  0.00    -0.365 A  
HETATM   11  N   UNL     1     -11.589  15.039  68.038  1.00  0.00    -0.337 NA 
HETATM   12  O   UNL     1     -10.869  16.079  67.446  1.00  0.00    -0.319 OA 
HETATM   13  C   UNL     1     -10.700  17.039  68.403  1.00  0.00    -0.361 A  
HETATM   14  N   UNL     1     -11.256  16.717  69.549  1.00  0.00    -0.162 NA 
BRANCH  13  15
HETATM   15  C   UNL     1      -9.936  18.229  68.060  1.00  0.00    -0.362 A  
HETATM   16  C   UNL     1     -10.576  19.295  67.402  1.00  0.00    -0.594 A  
HETATM   17  C   UNL     1      -9.878  20.461  67.075  1.00  0.00    -0.594 A  
HETATM   18  C   UNL     1      -8.530  20.581  67.403  1.00  0.00    -0.354 A  
HETATM   19  C   UNL     1      -7.882  19.535  68.055  1.00  0.00    -0.340 A  
HETATM   20  C   UNL     1      -8.583  18.373  68.377  1.00  0.00    -0.325 A  
HETATM   21  F   UNL     1      -7.916  17.399  69.013  1.00  0.00    -0.258 F  
ENDBRANCH  13  15
ENDBRANCH   8  10
TORSDOF 2
ENDMDL
MODEL        5
REMARK 921   NORMALIZED FREE ENERGY PREDICTED BY IDOCK:   -7.43 KCAL/MOL
REMARK 922        TOTAL FREE ENERGY PREDICTED BY IDOCK:   -8.66 KCAL/MOL
REMARK 923 INTER-LIGAND FREE ENERGY PREDICTED BY IDOCK:   -8.33 KCAL/MOL
REMARK 924 INTRA-LIGAND FREE ENERGY PREDICTED BY IDOCK:   -0.34 KCAL/MOL
REMARK 927      BINDING AFFINITY PREDICTED BY RF-SCORE:    0.00 PKD
ROOT
HETATM    1  O   UNL     1     -14.241  13.422  72.615  1.00  0.00    -0.747 OA 
HETATM    2  C   UNL     1     -13.203  14.270  72.764  1.00  0.00    -0.522 C  
HETATM    3  C   UNL     1     -12.455  14.525  71.510  1.00  0.00    -0.424 A  
HETATM    4  O   UNL     1     -12.927  14.815  73.818  1.00  0.00    -0.508 OA 
HETATM    5  C   UNL     1     -11.896  15.789  71.301  1.00  0.00    -0.491 A  
HETATM    6  C   UNL     1     -11.199  16.057  70.121  1.00  0.00    -0.376 A  
HETATM    7  C   UNL     1     -11.064  15.064  69.146  1.00  0.00    -0.278 A  
HETATM    8  C   UNL     1     -11.612  13.791  69.349  1.00  0.00    -0.365 A  
HETATM    9  C   UNL     1     -12.284  13.522  70.552  1.00  0.00    -0.433 A  
ENDROOT
BRANCH   8  10
HETATM   10  C   UNL     1     -11.545  12.748  68.331  1.00  0.00    -0.325 A  
HETATM   11  N   UNL     1     -12.122  11.542  68.431  1.00  0.00    -0.560 NA 
HETATM   12  O   UNL     1     -11.703  10.883  67.273  1.00  0.00    -0.458 OA 
HETATM   13  C   UNL     1     -10.911  11.758  66.585  1.00  0.00    -0.294 A  
HETATM   14  N   UNL     1     -10.795  12.920  67.188  1.00  0.00    -0.253 NA 
BRANCH  13  15
HETATM   15  C   UNL     1     -10.299  11.306  65.344  1.00  0.00    -0.328 A  
HETATM   16  C   UNL     1      -9.600  10.086  65.324  1.00  0.00    -0.355 A  
HETATM   17  C   UNL     1      -9.016   9.610  64.147  1.00  0.00    -0.269 A  
HETATM   18  C   UNL     1      -9.123  10.347  62.970  1.00  0.00    -0.279 A  
HETATM   19  C   UNL     1      -9.812  11.558  62.973  1.00  0.00    -0.367 A  
HETATM   20  C   UNL     1     -10.391  12.027  64.152  1.00  0.00    -0.347 A  
HETATM   21  F   UNL     1     -11.051  13.194  64.101  1.00  0.00    -0.348 F  
ENDBRANCH  13  15
ENDBRANCH   8  10
TORSDOF 2
ENDMDL
MODEL        6
REMARK 921   NORMALIZED FREE ENERGY PREDICTED BY IDOCK:   -7.41 KCAL/MOL
REMARK 922        TOTAL FREE ENERGY PREDICTED BY IDOCK:   -8.65 KCAL/MOL
REMARK 923 INTER-LIGAND FREE ENERGY PREDICTED BY IDOCK:   -8.32 KCAL/MOL
REMARK 924 INTRA-LIGAND FREE ENERGY PREDICTED BY IDOCK:   -0.32 KCAL/MOL
REMARK 927      BINDING AFFINITY PREDICTED BY RF-SCORE:    0.00 PKD
ROOT
HETATM    1  O   UNL     1      -8.544  11.230  66.069  1.00  0.00    -0.175 OA 
HETATM    2  C   UNL     1      -9.782  10.798  65.750  1.00  0.00    -0.228 C  
HETATM    3  C   UNL     1     -10.603  11.806  65.039  1.00  0.00    -0.338 A  
HETATM    4  O   UNL     1     -10.179   9.671  65.983  1.00  0.00    -0.265 OA 
HETATM    5  C   UNL     1     -11.513  11.375  64.069  1.00  0.00    -0.217 A  
HETATM    6  C   UNL     1     -12.287  12.308  63.376  1.00  0.00    -0.624 A  
HETATM    7  C   UNL     1     -12.149  13.673  63.647  1.00  0.00    -0.397 A  
HETATM    8  C   UNL     1     -11.246  14.116  64.623  1.00  0.00    -0.371 A  
HETATM    9  C   UNL     1     -10.495  13.168  65.335  1.00  0.00    -0.307 A  
ENDROOT
BRANCH   8  10
HETATM   10  C   UNL     1     -11.029  15.533  64.890  1.00  0.00    -0.436 A  
HETATM   11  N   UNL     1     -11.591  16.537  64.203  1.00  0.00    -1.080 NA 
HETATM   12  O   UNL     1     -11.013  17.679  64.763  1.00  0.00    -0.917 OA 
HETATM   13  C   UNL     1     -10.155  17.251  65.736  1.00  0.00    -0.141 A  
HETATM   14  N   UNL     1     -10.140  15.944  65.860  1.00  0.00    -0.327 NA 
BRANCH  13  15
HETATM   15  C   UNL     1      -9.379  18.248  66.458  1.00  0.00    -0.306 A  
HETATM   16  C   UNL     1      -7.986  18.088  66.571  1.00  0.00    -0.294 A  
HETATM   17  C   UNL     1      -7.205  19.036  67.240  1.00  0.00    -0.228 A  
HETATM   18  C   UNL     1      -7.805  20.158  67.806  1.00  0.00    -0.309 A  
HETATM   19  C   UNL     1      -9.183  20.330  67.702  1.00  0.00    -0.449 A  
HETATM   20  C   UNL     1      -9.957  19.381  67.034  1.00  0.00    -0.364 A  
HETATM   21  F   UNL     1     -11.278  19.598  66.955  1.00  0.00    -0.548 F  
ENDBRANCH  13  15
ENDBRANCH   8  10
TORSDOF 2
ENDMDL
MODEL        7
REMARK 921   NORMALIZED FREE ENERGY PREDICTED BY IDOCK:   -7.37 KCAL/MOL
REMARK 922        TOTAL FREE ENERGY PREDICTED BY IDOCK:   -8.60 KCAL/MOL
REMARK 923 INTER-LIGAND FREE ENERGY PREDICTED BY IDOCK:   -8.22 KCAL/MOL
REMARK 924 INTRA-LIGAND FREE ENERGY PREDICTED BY IDOCK:   -0.38 KCAL/MOL
REMARK 927      BINDING AFFINITY PREDICTED BY RF-SCORE:    0.00 PKD
ROOT
HETATM    1  O   UNL     1     -12.277  11.948  63.942  1.00  0.00    -0.418 OA 
HETATM    2  C   UNL     1     -12.239  13.296  63.880  1.00  0.00    -0.425 C  
HETATM    3  C   UNL     1     -11.789  13.939  65.138  1.00  0.00    -0.370 A  
HETATM    4  O   UNL     1     -12.505  13.929  62.875  1.00  0.00    -0.572 OA 
HETATM    5  C   UNL     1     -11.042  15.118  65.064  1.00  0.00    -0.428 A  
HETATM    6  C   UNL     1     -10.594  15.735  66.234  1.00  0.00    -0.313 A  
HETATM    7  C   UNL     1     -10.888  15.171  67.480  1.00  0.00    -0.301 A  
HETATM    8  C   UNL     1     -11.644  13.994  67.566  1.00  0.00    -0.397 A  
HETATM    9  C   UNL     1     -12.115  13.399  66.384  1.00  0.00    -0.464 A  
ENDROOT
BRANCH   8  10
HETATM   10  C   UNL     1     -11.920  13.343  68.841  1.00  0.00    -0.324 A  
HETATM   11  N   UNL     1     -12.219  13.984  69.980  1.00  0.00    -0.339 NA 
HETATM   12  O   UNL     1     -12.301  12.955  70.921  1.00  0.00    -0.370 OA 
HETATM   13  C   UNL     1     -12.042  11.790  70.257  1.00  0.00    -0.342 A  
HETATM   14  N   UNL     1     -11.814  11.975  68.977  1.00  0.00    -0.320 NA 
BRANCH  13  15
HETATM   15  C   UNL     1     -12.020  10.551  71.020  1.00  0.00    -0.466 A  
HETATM   16  C   UNL     1     -13.174  10.147  71.715  1.00  0.00    -0.542 A  
HETATM   17  C   UNL     1     -13.196   8.953  72.441  1.00  0.00    -0.482 A  
HETATM   18  C   UNL     1     -12.064   8.143  72.483  1.00  0.00    -0.377 A  
HETATM   19  C   UNL     1     -10.913   8.528  71.801  1.00  0.00    -0.376 A  
HETATM   20  C   UNL     1     -10.898   9.721  71.078  1.00  0.00    -0.308 A  
HETATM   21  F   UNL     1      -9.768  10.043  70.431  1.00  0.00    -0.287 F  
ENDBRANCH  13  15
ENDBRANCH   8  10
TORSDOF 2
ENDMDL
MODEL        8
REMARK 921   NORMALIZED FREE ENERGY PREDICTED BY IDOCK:   -7.24 KCAL/MOL
REMARK 922        TOTAL FREE ENERGY PREDICTED BY IDOCK:   -8.46 KCAL/MOL
REMARK 923 INTER-LIGAND FREE ENERGY PREDICTED BY IDOCK:   -8.16 KCAL/MOL
REMARK 924 INTRA-LIGAND FREE ENERGY PREDICTED BY IDOCK:   -0.29 KCAL/MOL
REMARK 927      BINDING AFFINITY PREDICTED BY RF-SCORE:    0.00 PKD
ROOT
HETATM    1  O   UNL     1      -6.891  19.553  70.036  1.00  0.00    -0.192 OA 
HETATM    2  C   UNL     1      -6.947  19.952  68.749  1.00  0.00    -0.316 C  
HETATM    3  C   UNL     1      -8.198  19.564  68.056  1.00  0.00    -0.352 A  
HETATM    4  O   UNL     1      -6.074  20.610  68.212  1.00  0.00    -0.288 OA 
HETATM    5  C   UNL     1      -8.727  20.419  67.084  1.00  0.00    -0.413 A  
HETATM    6  C   UNL     1      -9.912  20.081  66.428  1.00  0.00    -0.601 A  
HETATM    7  C   UNL     1     -10.574  18.891  66.746  1.00  0.00    -0.480 A  
HETATM    8  C   UNL     1     -10.049  18.022  67.712  1.00  0.00    -0.359 A  
HETATM    9  C   UNL     1      -8.840  18.357  68.343  1.00  0.00    -0.340 A  
ENDROOT
BRANCH   8  10
HETATM   10  C   UNL     1     -10.741  16.803  68.114  1.00  0.00    -0.361 A  
HETATM   11  N   UNL     1     -11.120  15.826  67.278  1.00  0.00    -0.264 NA 
HETATM   12  O   UNL     1     -11.812  14.939  68.107  1.00  0.00    -0.330 OA 
HETATM   13  C   UNL     1     -11.783  15.469  69.365  1.00  0.00    -0.367 A  
HETATM   14  N   UNL     1     -11.126  16.605  69.423  1.00  0.00    -0.247 NA 
BRANCH  13  15
HETATM   15  C   UNL     1     -12.476  14.758  70.430  1.00  0.00    -0.405 A  
HETATM   16  C   UNL     1     -13.354  15.464  71.272  1.00  0.00    -0.598 A  
HETATM   17  C   UNL     1     -14.052  14.811  72.292  1.00  0.00    -0.587 A  
HETATM   18  C   UNL     1     -13.885  13.441  72.485  1.00  0.00    -0.595 A  
HETATM   19  C   UNL     1     -13.019  12.729  71.658  1.00  0.00    -0.402 A  
HETATM   20  C   UNL     1     -12.325  13.386  70.643  1.00  0.00    -0.348 A  
HETATM   21  F   UNL     1     -11.510  12.654  69.869  1.00  0.00    -0.320 F  
ENDBRANCH  13  15
ENDBRANCH   8  10
TORSDOF 2
ENDMDL
MODEL        9
REMARK 921   NORMALIZED FREE ENERGY PREDICTED BY IDOCK:   -7.19 KCAL/MOL
REMARK 922        TOTAL FREE ENERGY PREDICTED BY IDOCK:   -8.40 KCAL/MOL
REMARK 923 INTER-LIGAND FREE ENERGY PREDICTED BY IDOCK:   -8.08 KCAL/MOL
REMARK 924 INTRA-LIGAND FREE ENERGY PREDICTED BY IDOCK:   -0.32 KCAL/MOL
REMARK 927      BINDING AFFINITY PREDICTED BY RF-SCORE:    0.00 PKD
ROOT
HETATM    1  O   UNL     1      -6.316  18.739  69.593  1.00  0.00    -0.268 OA 
HETATM    2  C   UNL     1      -6.679  19.462  68.514  1.00  0.00    -0.284 C  
HETATM    3  C   UNL     1      -8.096  19.276  68.118  1.00  0.00    -0.349 A  
HETATM    4  O   UNL     1      -5.931  20.232  67.939  1.00  0.00    -0.207 OA 
HETATM    5  C   UNL     1      -8.795  20.358  67.576  1.00  0.00    -0.386 A  
HETATM    6  C   UNL     1     -10.134  20.211  67.209  1.00  0.00    -0.572 A  
HETATM    7  C   UNL     1     -10.778  18.982  67.389  1.00  0.00    -0.559 A  
HETATM    8  C   UNL     1     -10.085  17.888  67.923  1.00  0.00    -0.350 A  
HETATM    9  C   UNL     1      -8.730  18.039  68.259  1.00  0.00    -0.289 A  
ENDROOT
BRANCH   8  10
HETATM   10  C   UNL     1     -10.737  16.610  68.182  1.00  0.00    -0.349 A  
HETATM   11  N   UNL     1     -11.136  15.747  67.235  1.00  0.00    -0.264 NA 
HETATM   12  O   UNL     1     -11.775  14.740  67.962  1.00  0.00    -0.333 OA 
HETATM   13  C   UNL     1     -11.701  15.094  69.278  1.00  0.00    -0.329 A  
HETATM   14  N   UNL     1     -11.063  16.227  69.465  1.00  0.00    -0.332 NA 
BRANCH  13  15
HETATM   15  C   UNL     1     -12.336  14.229  70.262  1.00  0.00    -0.418 A  
HETATM   16  C   UNL     1     -12.097  12.844  70.220  1.00  0.00    -0.377 A  
HETATM   17  C   UNL     1     -12.673  11.985  71.161  1.00  0.00    -0.365 A  
HETATM   18  C   UNL     1     -13.496  12.499  72.160  1.00  0.00    -0.523 A  
HETATM   19  C   UNL     1     -13.742  13.868  72.216  1.00  0.00    -0.660 A  
HETATM   20  C   UNL     1     -13.165  14.720  71.274  1.00  0.00    -0.382 A  
HETATM   21  F   UNL     1     -13.426  16.031  71.376  1.00  0.00    -0.490 F  
ENDBRANCH  13  15
ENDBRANCH   8  10
TORSDOF 2
ENDMDL
MODEL       10
REMARK 921   NORMALIZED FREE ENERGY PREDICTED BY IDOCK:   -7.16 KCAL/MOL
REMARK 922        TOTAL FREE ENERGY PREDICTED BY IDOCK:   -8.37 KCAL/MOL
REMARK 923 INTER-LIGAND FREE ENERGY PREDICTED BY IDOCK:   -8.12 KCAL/MOL
REMARK 924 INTRA-LIGAND FREE ENERGY PREDICTED BY IDOCK:   -0.25 KCAL/MOL
REMARK 927      BINDING AFFINITY PREDICTED BY RF-SCORE:    0.00 PKD
ROOT
HETATM    1  O   UNL     1      -9.239   7.544  71.650  1.00  0.00    -0.134 OA 
HETATM    2  C   UNL     1     -10.159   7.865  72.583  1.00  0.00    -0.279 C  
HETATM    3  C   UNL     1     -11.272   8.696  72.064  1.00  0.00    -0.434 A  
HETATM    4  O   UNL     1     -10.111   7.475  73.735  1.00  0.00    -0.319 OA 
HETATM    5  C   UNL     1     -12.552   8.522  72.599  1.00  0.00    -0.257 A  
HETATM    6  C   UNL     1     -13.618   9.283  72.116  1.00  0.00    -0.536 A  
HETATM    7  C   UNL     1     -13.409  10.214  71.093  1.00  0.00    -0.372 A  
HETATM    8  C   UNL     1     -12.128  10.402  70.556  1.00  0.00    -0.423 A  
HETATM    9  C   UNL     1     -11.057   9.654  71.070  1.00  0.00    -0.438 A  
ENDROOT
BRANCH   8  10
HETATM   10  C   UNL     1     -11.881  11.319  69.449  1.00  0.00    -0.355 A  
HETATM   11  N   UNL     1     -11.846  12.655  69.553  1.00  0.00    -0.318 NA 
HETATM   12  O   UNL     1     -11.674  13.080  68.233  1.00  0.00    -0.314 OA 
HETATM   13  C   UNL     1     -11.623  11.956  67.459  1.00  0.00    -0.304 A  
HETATM   14  N   UNL     1     -11.732  10.851  68.161  1.00  0.00    -0.544 NA 
BRANCH  13  15
HETATM   15  C   UNL     1     -11.491  12.116  66.018  1.00  0.00    -0.427 A  
HETATM   16  C   UNL     1     -10.607  11.282  65.310  1.00  0.00    -0.323 A  
HETATM   17  C   UNL     1     -10.469  11.393  63.923  1.00  0.00    -0.444 A  
HETATM   18  C   UNL     1     -11.215  12.338  63.223  1.00  0.00    -0.399 A  
HETATM   19  C   UNL     1     -12.094  13.171  63.910  1.00  0.00    -0.536 A  
HETATM   20  C   UNL     1     -12.226  13.056  65.294  1.00  0.00    -0.466 A  
HETATM   21  F   UNL     1     -13.093  13.876  65.907  1.00  0.00    -0.496 F  
ENDBRANCH  13  15
ENDBRANCH   8  10
TORSDOF 2
ENDMDL
MODEL       11
REMARK 921   NORMALIZED FREE ENERGY PREDICTED BY IDOCK:   -7.09 KCAL/MOL
REMARK 922        TOTAL FREE ENERGY PREDICTED BY IDOCK:   -8.29 KCAL/MOL
REMARK 923 INTER-LIGAND FREE ENERGY PREDICTED BY IDOCK:   -7.99 KCAL/MOL
REMARK 924 INTRA-LIGAND FREE ENERGY PREDICTED BY IDOCK:   -0.30 KCAL/MOL
REMARK 927      BINDING AFFINITY PREDICTED BY RF-SCORE:    0.00 PKD
ROOT
HETATM    1  O   UNL     1     -12.190  11.865  63.850  1.00  0.00    -0.418 OA 
HETATM    2  C   UNL     1     -12.244  13.211  63.769  1.00  0.00    -0.456 C  
HETATM    3  C   UNL     1     -11.846  13.902  65.018  1.00  0.00    -0.383 A  
HETATM    4  O   UNL     1     -12.549  13.809  62.753  1.00  0.00    -0.447 OA 
HETATM    5  C   UNL     1     -11.182  15.129  64.930  1.00  0.00    -0.424 A  
HETATM    6  C   UNL     1     -10.785  15.793  66.093  1.00  0.00    -0.293 A  
HETATM    7  C   UNL     1     -11.045  15.228  67.346  1.00  0.00    -0.326 A  
HETATM    8  C   UNL     1     -11.718  14.003  67.446  1.00  0.00    -0.421 A  
HETATM    9  C   UNL     1     -12.141  13.359  66.272  1.00  0.00    -0.475 A  
ENDROOT
BRANCH   8  10
HETATM   10  C   UNL     1     -11.954  13.352  68.730  1.00  0.00    -0.324 A  
HETATM   11  N   UNL     1     -12.207  13.995  69.879  1.00  0.00    -0.334 NA 
HETATM   12  O   UNL     1     -12.265  12.966  70.822  1.00  0.00    -0.367 OA 
HETATM   13  C   UNL     1     -12.041  11.799  70.148  1.00  0.00    -0.317 A  
HETATM   14  N   UNL     1     -11.857  11.984  68.860  1.00  0.00    -0.307 NA 
BRANCH  13  15
HETATM   15  C   UNL     1     -12.003  10.559  70.909  1.00  0.00    -0.481 A  
HETATM   16  C   UNL     1     -10.935   9.664  70.718  1.00  0.00    -0.397 A  
HETATM   17  C   UNL     1     -10.855   8.473  71.445  1.00  0.00    -0.327 A  
HETATM   18  C   UNL     1     -11.842   8.158  72.376  1.00  0.00    -0.448 A  
HETATM   19  C   UNL     1     -12.906   9.034  72.577  1.00  0.00    -0.408 A  
HETATM   20  C   UNL     1     -12.980  10.220  71.847  1.00  0.00    -0.449 A  
HETATM   21  F   UNL     1     -14.021  11.033  72.083  1.00  0.00    -0.186 F  
ENDBRANCH  13  15
ENDBRANCH   8  10
TORSDOF 2
ENDMDL
MODEL       12
REMARK 921   NORMALIZED FREE ENERGY PREDICTED BY IDOCK:   -7.08 KCAL/MOL
REMARK 922        TOTAL FREE ENERGY PREDICTED BY IDOCK:   -8.28 KCAL/MOL
REMARK 923 INTER-LIGAND FREE ENERGY PREDICTED BY IDOCK:   -7.91 KCAL/MOL
REMARK 924 INTRA-LIGAND FREE ENERGY PREDICTED BY IDOCK:   -0.37 KCAL/MOL
REMARK 927      BINDING AFFINITY PREDICTED BY RF-SCORE:    0.00 PKD
ROOT
HETATM    1  O   UNL     1     -12.237  15.425  63.853  1.00  0.00    -0.607 OA 
HETATM    2  C   UNL     1     -11.442  16.210  64.609  1.00  0.00    -0.224 C  
HETATM    3  C   UNL     1     -10.657  15.467  65.624  1.00  0.00    -0.389 A  
HETATM    4  O   UNL     1     -11.339  17.413  64.449  1.00  0.00    -0.949 OA 
HETATM    5  C   UNL     1      -9.376  15.919  65.952  1.00  0.00    -0.353 A  
HETATM    6  C   UNL     1      -8.612  15.227  66.894  1.00  0.00    -0.289 A  
HETATM    7  C   UNL     1      -9.126  14.079  67.506  1.00  0.00    -0.196 A  
HETATM    8  C   UNL     1     -10.413  13.623  67.192  1.00  0.00    -0.264 A  
HETATM    9  C   UNL     1     -11.184  14.343  66.266  1.00  0.00    -0.338 A  
ENDROOT
BRANCH   8  10
HETATM   10  C   UNL     1     -10.960  12.397  67.762  1.00  0.00    -0.228 A  
HETATM   11  N   UNL     1     -11.851  11.600  67.154  1.00  0.00    -0.607 NA 
HETATM   12  O   UNL     1     -12.130  10.629  68.118  1.00  0.00    -0.403 OA 
HETATM   13  C   UNL     1     -11.380  10.936  69.217  1.00  0.00    -0.277 A  
HETATM   14  N   UNL     1     -10.637  12.004  69.043  1.00  0.00    -0.153 NA 
BRANCH  13  15
HETATM   15  C   UNL     1     -11.515  10.098  70.401  1.00  0.00    -0.400 A  
HETATM   16  C   UNL     1     -12.760  10.014  71.048  1.00  0.00    -0.455 A  
HETATM   17  C   UNL     1     -12.932   9.204  72.175  1.00  0.00    -0.498 A  
HETATM   18  C   UNL     1     -11.861   8.465  72.671  1.00  0.00    -0.360 A  
HETATM   19  C   UNL     1     -10.621   8.538  72.040  1.00  0.00    -0.408 A  
HETATM   20  C   UNL     1     -10.456   9.348  70.917  1.00  0.00    -0.310 A  
HETATM   21  F   UNL     1      -9.245   9.377  70.342  1.00  0.00    -0.202 F  
ENDBRANCH  13  15
ENDBRANCH   8  10
TORSDOF 2
ENDMDL
MODEL       13
REMARK 921   NORMALIZED FREE ENERGY PREDICTED BY IDOCK:   -7.06 KCAL/MOL
REMARK 922        TOTAL FREE ENERGY PREDICTED BY IDOCK:   -8.26 KCAL/MOL
REMARK 923 INTER-LIGAND FREE ENERGY PREDICTED BY IDOCK:   -7.92 KCAL/MOL
REMARK 924 INTRA-LIGAND FREE ENERGY PREDICTED BY IDOCK:   -0.34 KCAL/MOL
REMARK 927      BINDING AFFINITY PREDICTED BY RF-SCORE:    0.00 PKD
ROOT
HETATM    1  O   UNL     1      -9.908  18.108  67.714  1.00  0.00    -0.289 OA 
HETATM    2  C   UNL     1      -9.676  17.388  66.597  1.00  0.00    -0.290 C  
HETATM    3  C   UNL     1     -10.458  16.131  66.523  1.00  0.00    -0.298 A  
HETATM    4  O   UNL     1      -8.929  17.753  65.707  1.00  0.00    -0.509 OA 
HETATM    5  C   UNL     1     -10.892  15.678  65.274  1.00  0.00    -0.420 A  
HETATM    6  C   UNL     1     -11.642  14.503  65.180  1.00  0.00    -0.371 A  
HETATM    7  C   UNL     1     -11.965  13.784  66.336  1.00  0.00    -0.473 A  
HETATM    8  C   UNL     1     -11.528  14.225  67.592  1.00  0.00    -0.370 A  
HETATM    9  C   UNL     1     -10.748  15.390  67.671  1.00  0.00    -0.292 A  
ENDROOT
BRANCH   8  10
HETATM   10  C   UNL     1     -11.894  13.537  68.824  1.00  0.00    -0.355 A  
HETATM   11  N   UNL     1     -12.304  14.144  69.947  1.00  0.00    -0.346 NA 
HETATM   12  O   UNL     1     -12.442  13.091  70.855  1.00  0.00    -0.367 OA 
HETATM   13  C   UNL     1     -12.100  11.949  70.190  1.00  0.00    -0.302 A  
HETATM   14  N   UNL     1     -11.769  12.169  68.938  1.00  0.00    -0.311 NA 
BRANCH  13  15
HETATM   15  C   UNL     1     -12.113  10.692  70.924  1.00  0.00    -0.489 A  
HETATM   16  C   UNL     1     -13.284  10.298  71.597  1.00  0.00    -0.509 A  
HETATM   17  C   UNL     1     -13.340   9.089  72.295  1.00  0.00    -0.523 A  
HETATM   18  C   UNL     1     -12.227   8.252  72.330  1.00  0.00    -0.412 A  
HETATM   19  C   UNL     1     -11.060   8.628  71.669  1.00  0.00    -0.375 A  
HETATM   20  C   UNL     1     -11.010   9.836  70.974  1.00  0.00    -0.332 A  
HETATM   21  F   UNL     1      -9.867  10.148  70.347  1.00  0.00    -0.286 F  
ENDBRANCH  13  15
ENDBRANCH   8  10
TORSDOF 2
ENDMDL
MODEL       14
REMARK 921   NORMALIZED FREE ENERGY PREDICTED BY IDOCK:   -7.02 KCAL/MOL
REMARK 922        TOTAL FREE ENERGY PREDICTED BY IDOCK:   -8.22 KCAL/MOL
REMARK 923 INTER-LIGAND FREE ENERGY PREDICTED BY IDOCK:   -7.94 KCAL/MOL
REMARK 924 INTRA-LIGAND FREE ENERGY PREDICTED BY IDOCK:   -0.28 KCAL/MOL
REMARK 927      BINDING AFFINITY PREDICTED BY RF-SCORE:    0.00 PKD
ROOT
HETATM    1  O   UNL     1      -8.875   7.809  71.519  1.00  0.00    -0.124 OA 
HETATM    2  C   UNL     1      -9.850   7.960  72.439  1.00  0.00    -0.225 C  
HETATM    3  C   UNL     1     -11.022   8.722  71.949  1.00  0.00    -0.435 A  
HETATM    4  O   UNL     1      -9.797   7.479  73.557  1.00  0.00    -0.283 OA 
HETATM    5  C   UNL     1     -12.294   8.383  72.419  1.00  0.00    -0.412 A  
HETATM    6  C   UNL     1     -13.416   9.077  71.960  1.00  0.00    -0.498 A  
HETATM    7  C   UNL     1     -13.268  10.109  71.027  1.00  0.00    -0.412 A  
HETATM    8  C   UNL     1     -11.997  10.463  70.556  1.00  0.00    -0.427 A  
HETATM    9  C   UNL     1     -10.873   9.779  71.047  1.00  0.00    -0.378 A  
ENDROOT
BRANCH   8  10
HETATM   10  C   UNL     1     -11.807  11.490  69.539  1.00  0.00    -0.351 A  
HETATM   11  N   UNL     1     -11.643  12.797  69.790  1.00  0.00    -0.257 NA 
HETATM   12  O   UNL     1     -11.597  13.371  68.517  1.00  0.00    -0.287 OA 
HETATM   13  C   UNL     1     -11.739  12.352  67.619  1.00  0.00    -0.346 A  
HETATM   14  N   UNL     1     -11.858  11.178  68.197  1.00  0.00    -0.607 NA 
BRANCH  13  15
HETATM   15  C   UNL     1     -11.771  12.681  66.201  1.00  0.00    -0.461 A  
HETATM   16  C   UNL     1     -12.369  13.884  65.785  1.00  0.00    -0.518 A  
HETATM   17  C   UNL     1     -12.399  14.242  64.434  1.00  0.00    -0.417 A  
HETATM   18  C   UNL     1     -11.831  13.403  63.478  1.00  0.00    -0.399 A  
HETATM   19  C   UNL     1     -11.236  12.209  63.875  1.00  0.00    -0.485 A  
HETATM   20  C   UNL     1     -11.209  11.857  65.224  1.00  0.00    -0.295 A  
HETATM   21  F   UNL     1     -10.616  10.700  65.555  1.00  0.00    -0.322 F  
ENDBRANCH  13  15
ENDBRANCH   8  10
TORSDOF 2
ENDMDL
MODEL       15
REMARK 921   NORMALIZED FREE ENERGY PREDICTED BY IDOCK:   -7.01 KCAL/MOL
REMARK 922        TOTAL FREE ENERGY PREDICTED BY IDOCK:   -8.20 KCAL/MOL
REMARK 923 INTER-LIGAND FREE ENERGY PREDICTED BY IDOCK:   -8.03 KCAL/MOL
REMARK 924 INTRA-LIGAND FREE ENERGY PREDICTED BY IDOCK:   -0.17 KCAL/MOL
REMARK 927      BINDING AFFINITY PREDICTED BY RF-SCORE:    0.00 PKD
ROOT
HETATM    1  O   UNL     1      -8.171  10.988  65.641  1.00  0.00    -0.130 OA 
HETATM    2  C   UNL     1      -9.293  10.571  65.018  1.00  0.00    -0.222 C  
HETATM    3  C   UNL     1     -10.401  11.555  65.061  1.00  0.00    -0.333 A  
HETATM    4  O   UNL     1      -9.380   9.506  64.435  1.00  0.00    -0.216 OA 
HETATM    5  C   UNL     1     -11.274  11.639  63.972  1.00  0.00    -0.448 A  
HETATM    6  C   UNL     1     -12.317  12.567  63.983  1.00  0.00    -0.557 A  
HETATM    7  C   UNL     1     -12.486  13.417  65.081  1.00  0.00    -0.509 A  
HETATM    8  C   UNL     1     -11.623  13.335  66.182  1.00  0.00    -0.385 A  
HETATM    9  C   UNL     1     -10.597  12.377  66.174  1.00  0.00    -0.283 A  
ENDROOT
BRANCH   8  10
HETATM   10  C   UNL     1     -11.729  14.244  67.318  1.00  0.00    -0.395 A  
HETATM   11  N   UNL     1     -11.440  15.553  67.281  1.00  0.00    -0.182 NA 
HETATM   12  O   UNL     1     -11.605  15.960  68.607  1.00  0.00    -0.382 OA 
HETATM   13  C   UNL     1     -11.977  14.855  69.317  1.00  0.00    -0.291 A  
HETATM   14  N   UNL     1     -12.079  13.781  68.567  1.00  0.00    -0.354 NA 
BRANCH  13  15
HETATM   15  C   UNL     1     -12.175  14.990  70.753  1.00  0.00    -0.386 A  
HETATM   16  C   UNL     1     -11.738  16.158  71.402  1.00  0.00    -0.506 A  
HETATM   17  C   UNL     1     -11.929  16.332  72.776  1.00  0.00    -0.636 A  
HETATM   18  C   UNL     1     -12.561  15.340  73.522  1.00  0.00    -0.681 A  
HETATM   19  C   UNL     1     -13.000  14.178  72.893  1.00  0.00    -0.498 A  
HETATM   20  C   UNL     1     -12.806  14.010  71.522  1.00  0.00    -0.362 A  
HETATM   21  F   UNL     1     -13.254  12.876  70.963  1.00  0.00    -0.275 F  
ENDBRANCH  13  15
ENDBRANCH   8  10
TORSDOF 2
ENDMDL
MODEL       16
REMARK 921   NORMALIZED FREE ENERGY PREDICTED BY IDOCK:   -7.01 KCAL/MOL
REMARK 922        TOTAL FREE ENERGY PREDICTED BY IDOCK:   -8.20 KCAL/MOL
REMARK 923 INTER-LIGAND FREE ENERGY PREDICTED BY IDOCK:   -7.80 KCAL/MOL
REMARK 924 INTRA-LIGAND FREE ENERGY PREDICTED BY IDOCK:   -0.39 KCAL/MOL
REMARK 927      BINDING AFFINITY PREDICTED BY RF-SCORE:    0.00 PKD
ROOT
HETATM    1  O   UNL     1     -12.950  14.654  72.841  1.00  0.00    -0.438 OA 
HETATM    2  C   UNL     1     -13.461  13.525  72.309  1.00  0.00    -0.571 C  
HETATM    3  C   UNL     1     -12.760  13.070  71.084  1.00  0.00    -0.372 A  
HETATM    4  O   UNL     1     -14.384  12.907  72.807  1.00  0.00    -0.382 OA 
HETATM    5  C   UNL     1     -12.647  11.698  70.840  1.00  0.00    -0.409 A  
HETATM    6  C   UNL     1     -11.978  11.246  69.700  1.00  0.00    -0.423 A  
HETATM    7  C   UNL     1     -11.416  12.163  68.807  1.00  0.00    -0.359 A  
HETATM    8  C   UNL     1     -11.531  13.541  69.038  1.00  0.00    -0.349 A  
HETATM    9  C   UNL     1     -12.232  13.985  70.170  1.00  0.00    -0.425 A  
ENDROOT
BRANCH   8  10
HETATM   10  C   UNL     1     -10.907  14.526  68.163  1.00  0.00    -0.240 A  
HETATM   11  N   UNL     1     -10.023  14.242  67.195  1.00  0.00    -0.251 NA 
HETATM   12  O   UNL     1      -9.653  15.499  66.712  1.00  0.00    -0.219 OA 
HETATM   13  C   UNL     1     -10.350  16.422  67.438  1.00  0.00    -0.295 A  
HETATM   14  N   UNL     1     -11.142  15.874  68.331  1.00  0.00    -0.328 NA 
BRANCH  13  15
HETATM   15  C   UNL     1     -10.117  17.833  67.165  1.00  0.00    -0.338 A  
HETATM   16  C   UNL     1      -9.480  18.627  68.136  1.00  0.00    -0.356 A  
HETATM   17  C   UNL     1      -9.221  19.981  67.901  1.00  0.00    -0.412 A  
HETATM   18  C   UNL     1      -9.595  20.562  66.691  1.00  0.00    -0.396 A  
HETATM   19  C   UNL     1     -10.227  19.789  65.721  1.00  0.00    -0.478 A  
HETATM   20  C   UNL     1     -10.483  18.439  65.961  1.00  0.00    -0.374 A  
HETATM   21  F   UNL     1     -11.086  17.736  64.991  1.00  0.00    -0.389 F  
ENDBRANCH  13  15
ENDBRANCH   8  10
TORSDOF 2
ENDMDL
MODEL       17
REMARK 921   NORMALIZED FREE ENERGY PREDICTED BY IDOCK:   -6.98 KCAL/MOL
REMARK 922        TOTAL FREE ENERGY PREDICTED BY IDOCK:   -8.17 KCAL/MOL
REMARK 923 INTER-LIGAND FREE ENERGY PREDICTED BY IDOCK:   -7.93 KCAL/MOL
REMARK 924 INTRA-LIGAND FREE ENERGY PREDICTED BY IDOCK:   -0.23 KCAL/MOL
REMARK 927      BINDING AFFINITY PREDICTED BY RF-SCORE:    0.00 PKD
ROOT
HETATM    1  O   UNL     1     -10.918  14.354  64.716  1.00  0.00    -0.387 OA 
HETATM    2  C   UNL     1     -10.961  15.663  65.040  1.00  0.00    -0.431 C  
HETATM    3  C   UNL     1     -10.901  15.920  66.498  1.00  0.00    -0.198 A  
HETATM    4  O   UNL     1     -11.001  16.557  64.214  1.00  0.00    -0.848 OA 
HETATM    5  C   UNL     1     -10.247  17.068  66.956  1.00  0.00    -0.303 A  
HETATM    6  C   UNL     1     -10.165  17.325  68.326  1.00  0.00    -0.348 A  
HETATM    7  C   UNL     1     -10.732  16.432  69.241  1.00  0.00    -0.325 A  
HETATM    8  C   UNL     1     -11.398  15.283  68.793  1.00  0.00    -0.318 A  
HETATM    9  C   UNL     1     -11.501  15.051  67.412  1.00  0.00    -0.326 A  
ENDROOT
BRANCH   8  10
HETATM   10  C   UNL     1     -11.949  14.298  69.717  1.00  0.00    -0.339 A  
HETATM   11  N   UNL     1     -12.673  14.591  70.807  1.00  0.00    -0.345 NA 
HETATM   12  O   UNL     1     -12.884  13.344  71.402  1.00  0.00    -0.347 OA 
HETATM   13  C   UNL     1     -12.264  12.419  70.612  1.00  0.00    -0.278 A  
HETATM   14  N   UNL     1     -11.687  12.954  69.560  1.00  0.00    -0.319 NA 
BRANCH  13  15
HETATM   15  C   UNL     1     -12.291  11.025  71.030  1.00  0.00    -0.490 A  
HETATM   16  C   UNL     1     -13.343  10.569  71.845  1.00  0.00    -0.461 A  
HETATM   17  C   UNL     1     -13.412   9.233  72.249  1.00  0.00    -0.548 A  
HETATM   18  C   UNL     1     -12.431   8.331  71.844  1.00  0.00    -0.376 A  
HETATM   19  C   UNL     1     -11.383   8.767  71.037  1.00  0.00    -0.332 A  
HETATM   20  C   UNL     1     -11.319  10.102  70.638  1.00  0.00    -0.352 A  
HETATM   21  F   UNL     1     -10.295  10.469  69.854  1.00  0.00    -0.264 F  
ENDBRANCH  13  15
ENDBRANCH   8  10
TORSDOF 2
ENDMDL
MODEL       18
REMARK 921   NORMALIZED FREE ENERGY PREDICTED BY IDOCK:   -6.95 KCAL/MOL
REMARK 922        TOTAL FREE ENERGY PREDICTED BY IDOCK:   -8.13 KCAL/MOL
REMARK 923 INTER-LIGAND FREE ENERGY PREDICTED BY IDOCK:   -7.83 KCAL/MOL
REMARK 924 INTRA-LIGAND FREE ENERGY PREDICTED BY IDOCK:   -0.31 KCAL/MOL
REMARK 927      BINDING AFFINITY PREDICTED BY RF-SCORE:    0.00 PKD
ROOT
HETATM    1  O   UNL     1     -11.836  13.114  64.020  1.00  0.00    -0.399 OA 
HETATM    2  C   UNL     1     -10.761  12.299  63.991  1.00  0.00    -0.396 C  
HETATM    3  C   UNL     1     -10.653  11.410  65.172  1.00  0.00    -0.352 A  
HETATM    4  O   UNL     1      -9.974  12.261  63.063  1.00  0.00    -0.320 OA 
HETATM    5  C   UNL     1     -10.120  10.128  65.007  1.00  0.00    -0.305 A  
HETATM    6  C   UNL     1     -10.020   9.268  66.102  1.00  0.00    -0.348 A  
HETATM    7  C   UNL     1     -10.459   9.685  67.363  1.00  0.00    -0.319 A  
HETATM    8  C   UNL     1     -10.986  10.971  67.542  1.00  0.00    -0.338 A  
HETATM    9  C   UNL     1     -11.053  11.839  66.440  1.00  0.00    -0.360 A  
ENDROOT
BRANCH   8  10
HETATM   10  C   UNL     1     -11.509  11.421  68.826  1.00  0.00    -0.290 A  
HETATM   11  N   UNL     1     -12.115  10.632  69.726  1.00  0.00    -0.294 NA 
HETATM   12  O   UNL     1     -12.511  11.523  70.726  1.00  0.00    -0.362 OA 
HETATM   13  C   UNL     1     -12.107  12.767  70.331  1.00  0.00    -0.302 A  
HETATM   14  N   UNL     1     -11.476  12.753  69.179  1.00  0.00    -0.291 NA 
BRANCH  13  15
HETATM   15  C   UNL     1     -12.436  13.902  71.181  1.00  0.00    -0.450 A  
HETATM   16  C   UNL     1     -13.673  13.929  71.848  1.00  0.00    -0.521 A  
HETATM   17  C   UNL     1     -14.015  14.993  72.688  1.00  0.00    -0.491 A  
HETATM   18  C   UNL     1     -13.123  16.046  72.875  1.00  0.00    -0.548 A  
HETATM   19  C   UNL     1     -11.893  16.034  72.221  1.00  0.00    -0.628 A  
HETATM   20  C   UNL     1     -11.559  14.970  71.384  1.00  0.00    -0.346 A  
HETATM   21  F   UNL     1     -10.359  15.001  70.785  1.00  0.00    -0.165 F  
ENDBRANCH  13  15
ENDBRANCH   8  10
TORSDOF 2
ENDMDL
MODEL       19
REMARK 921   NORMALIZED FREE ENERGY PREDICTED BY IDOCK:   -6.91 KCAL/MOL
REMARK 922        TOTAL FREE ENERGY PREDICTED BY IDOCK:   -8.08 KCAL/MOL
REMARK 923 INTER-LIGAND FREE ENERGY PREDICTED BY IDOCK:   -7.72 KCAL/MOL
REMARK 924 INTRA-LIGAND FREE ENERGY PREDICTED BY IDOCK:   -0.36 KCAL/MOL
REMARK 927      BINDING AFFINITY PREDICTED BY RF-SCORE:    0.00 PKD
ROOT
HETATM    1  O   UNL     1     -10.159   7.903  69.111  1.00  0.00    -0.186 OA 
HETATM    2  C   UNL     1     -10.362   7.832  67.779  1.00  0.00    -0.221 C  
HETATM    3  C   UNL     1     -10.443   9.154  67.115  1.00  0.00    -0.325 A  
HETATM    4  O   UNL     1     -10.430   6.782  67.167  1.00  0.00    -0.221 OA 
HETATM    5  C   UNL     1      -9.948   9.289  65.814  1.00  0.00    -0.215 A  
HETATM    6  C   UNL     1     -10.000  10.528  65.173  1.00  0.00    -0.375 A  
HETATM    7  C   UNL     1     -10.541  11.636  65.832  1.00  0.00    -0.318 A  
HETATM    8  C   UNL     1     -11.048  11.511  67.132  1.00  0.00    -0.355 A  
HETATM    9  C   UNL     1     -11.019  10.253  67.756  1.00  0.00    -0.360 A  
ENDROOT
BRANCH   8  10
HETATM   10  C   UNL     1     -11.565  12.654  67.875  1.00  0.00    -0.349 A  
HETATM   11  N   UNL     1     -11.927  13.824  67.328  1.00  0.00    -0.401 NA 
HETATM   12  O   UNL     1     -12.257  14.612  68.432  1.00  0.00    -0.231 OA 
HETATM   13  C   UNL     1     -12.060  13.841  69.542  1.00  0.00    -0.334 A  
HETATM   14  N   UNL     1     -11.649  12.628  69.251  1.00  0.00    -0.303 NA 
BRANCH  13  15
HETATM   15  C   UNL     1     -12.291  14.439  70.849  1.00  0.00    -0.419 A  
HETATM   16  C   UNL     1     -11.742  15.702  71.136  1.00  0.00    -0.461 A  
HETATM   17  C   UNL     1     -11.959  16.316  72.373  1.00  0.00    -0.630 A  
HETATM   18  C   UNL     1     -12.731  15.678  73.341  1.00  0.00    -0.660 A  
HETATM   19  C   UNL     1     -13.282  14.428  73.071  1.00  0.00    -0.547 A  
HETATM   20  C   UNL     1     -13.061  13.820  71.836  1.00  0.00    -0.388 A  
HETATM   21  F   UNL     1     -13.621  12.620  71.622  1.00  0.00    -0.423 F  
ENDBRANCH  13  15
ENDBRANCH   8  10
TORSDOF 2
ENDMDL
MODEL       20
REMARK 921   NORMALIZED FREE ENERGY PREDICTED BY IDOCK:   -6.87 KCAL/MOL
REMARK 922        TOTAL FREE ENERGY PREDICTED BY IDOCK:   -8.05 KCAL/MOL
REMARK 923 INTER-LIGAND FREE ENERGY PREDICTED BY IDOCK:   -7.70 KCAL/MOL
REMARK 924 INTRA-LIGAND FREE ENERGY PREDICTED BY IDOCK:   -0.34 KCAL/MOL
REMARK 927      BINDING AFFINITY PREDICTED BY RF-SCORE:    0.00 PKD
ROOT
HETATM    1  O   UNL     1      -9.857   8.266  68.698  1.00  0.00    -0.167 OA 
HETATM    2  C   UNL     1     -10.119   8.219  67.375  1.00  0.00    -0.233 C  
HETATM    3  C   UNL     1     -10.297   9.553  66.753  1.00  0.00    -0.298 A  
HETATM    4  O   UNL     1     -10.163   7.183  66.737  1.00  0.00    -0.235 OA 
HETATM    5  C   UNL     1      -9.871   9.746  65.436  1.00  0.00    -0.365 A  
HETATM    6  C   UNL     1     -10.015  10.998  64.833  1.00  0.00    -0.343 A  
HETATM    7  C   UNL     1     -10.579  12.059  65.548  1.00  0.00    -0.313 A  
HETATM    8  C   UNL     1     -11.018  11.874  66.866  1.00  0.00    -0.335 A  
HETATM    9  C   UNL     1     -10.897  10.604  67.452  1.00  0.00    -0.353 A  
ENDROOT
BRANCH   8  10
HETATM   10  C   UNL     1     -11.555  12.970  67.665  1.00  0.00    -0.355 A  
HETATM   11  N   UNL     1     -11.939  14.158  67.175  1.00  0.00    -0.421 NA 
HETATM   12  O   UNL     1     -12.283  14.885  68.317  1.00  0.00    -0.170 OA 
HETATM   13  C   UNL     1     -12.072  14.063  69.387  1.00  0.00    -0.340 A  
HETATM   14  N   UNL     1     -11.637  12.874  69.037  1.00  0.00    -0.303 NA 
BRANCH  13  15
HETATM   15  C   UNL     1     -12.313  14.592  70.722  1.00  0.00    -0.398 A  
HETATM   16  C   UNL     1     -13.157  13.890  71.600  1.00  0.00    -0.446 A  
HETATM   17  C   UNL     1     -13.396  14.357  72.896  1.00  0.00    -0.575 A  
HETATM   18  C   UNL     1     -12.792  15.533  73.335  1.00  0.00    -0.660 A  
HETATM   19  C   UNL     1     -11.953  16.240  72.477  1.00  0.00    -0.648 A  
HETATM   20  C   UNL     1     -11.720  15.769  71.185  1.00  0.00    -0.428 A  
HETATM   21  F   UNL     1     -10.897  16.481  70.401  1.00  0.00    -0.318 F  
ENDBRANCH  13  15
ENDBRANCH   8  10
TORSDOF 2
ENDMDL
MODEL       21
REMARK 921   NORMALIZED FREE ENERGY PREDICTED BY IDOCK:   -6.86 KCAL/MOL
REMARK 922        TOTAL FREE ENERGY PREDICTED BY IDOCK:   -8.04 KCAL/MOL
REMARK 923 INTER-LIGAND FREE ENERGY PREDICTED BY IDOCK:   -7.75 KCAL/MOL
REMARK 924 INTRA-LIGAND FREE ENERGY PREDICTED BY IDOCK:   -0.29 KCAL/MOL
REMARK 927      BINDING AFFINITY PREDICTED BY RF-SCORE:    0.00 PKD
ROOT
HETATM    1  O   UNL     1     -10.929  12.281  63.266  1.00  0.00    -0.432 OA 
HETATM    2  C   UNL     1     -11.850  13.046  63.887  1.00  0.00    -0.477 C  
HETATM    3  C   UNL     1     -11.822  12.935  65.365  1.00  0.00    -0.444 A  
HETATM    4  O   UNL     1     -12.609  13.794  63.297  1.00  0.00    -0.830 OA 
HETATM    5  C   UNL     1     -12.129  14.062  66.133  1.00  0.00    -0.471 A  
HETATM    6  C   UNL     1     -12.095  13.986  67.528  1.00  0.00    -0.361 A  
HETATM    7  C   UNL     1     -11.750  12.785  68.156  1.00  0.00    -0.392 A  
HETATM    8  C   UNL     1     -11.449  11.647  67.395  1.00  0.00    -0.357 A  
HETATM    9  C   UNL     1     -11.516  11.726  65.995  1.00  0.00    -0.281 A  
ENDROOT
BRANCH   8  10
HETATM   10  C   UNL     1     -11.025  10.395  68.011  1.00  0.00    -0.291 A  
HETATM   11  N   UNL     1     -10.524   9.345  67.345  1.00  0.00    -0.269 NA 
HETATM   12  O   UNL     1     -10.361   8.376  68.338  1.00  0.00    -0.206 OA 
HETATM   13  C   UNL     1     -10.782   8.937  69.510  1.00  0.00    -0.199 A  
HETATM   14  N   UNL     1     -11.187  10.178  69.362  1.00  0.00    -0.230 NA 
BRANCH  13  15
HETATM   15  C   UNL     1     -10.762   8.119  70.713  1.00  0.00    -0.242 A  
HETATM   16  C   UNL     1     -10.197   8.639  71.892  1.00  0.00    -0.404 A  
HETATM   17  C   UNL     1     -10.177   7.890  73.072  1.00  0.00    -0.394 A  
HETATM   18  C   UNL     1     -10.724   6.609  73.093  1.00  0.00    -0.306 A  
HETATM   19  C   UNL     1     -11.287   6.080  71.934  1.00  0.00    -0.335 A  
HETATM   20  C   UNL     1     -11.303   6.832  70.760  1.00  0.00    -0.325 A  
HETATM   21  F   UNL     1     -11.864   6.280  69.674  1.00  0.00    -0.500 F  
ENDBRANCH  13  15
ENDBRANCH   8  10
TORSDOF 2
ENDMDL
MODEL       22
REMARK 921   NORMALIZED FREE ENERGY PREDICTED BY IDOCK:   -6.81 KCAL/MOL
REMARK 922        TOTAL FREE ENERGY PREDICTED BY IDOCK:   -7.98 KCAL/MOL
REMARK 923 INTER-LIGAND FREE ENERGY PREDICTED BY IDOCK:   -7.67 KCAL/MOL
REMARK 924 INTRA-LIGAND FREE ENERGY PREDICTED BY IDOCK:   -0.31 KCAL/MOL
REMARK 927      BINDING AFFINITY PREDICTED BY RF-SCORE:    0.00 PKD
ROOT
HETATM    1  O   UNL     1     -12.660  13.980  62.840  1.00  0.00    -0.523 OA 
HETATM    2  C   UNL     1     -12.254  13.091  63.771  1.00  0.00    -0.460 C  
HETATM    3  C   UNL     1     -11.827  13.714  65.046  1.00  0.00    -0.379 A  
HETATM    4  O   UNL     1     -12.275  11.886  63.602  1.00  0.00    -0.494 OA 
HETATM    5  C   UNL     1     -12.066  13.034  66.244  1.00  0.00    -0.453 A  
HETATM    6  C   UNL     1     -11.685  13.608  67.460  1.00  0.00    -0.406 A  
HETATM    7  C   UNL     1     -11.071  14.864  67.480  1.00  0.00    -0.319 A  
HETATM    8  C   UNL     1     -10.818  15.550  66.284  1.00  0.00    -0.283 A  
HETATM    9  C   UNL     1     -11.177  14.951  65.066  1.00  0.00    -0.408 A  
ENDROOT
BRANCH   8  10
HETATM   10  C   UNL     1     -10.236  16.887  66.268  1.00  0.00    -0.329 A  
HETATM   11  N   UNL     1     -10.649  17.893  65.483  1.00  0.00    -0.611 NA 
HETATM   12  O   UNL     1      -9.739  18.916  65.759  1.00  0.00    -0.437 OA 
HETATM   13  C   UNL     1      -8.862  18.427  66.685  1.00  0.00    -0.289 A  
HETATM   14  N   UNL     1      -9.134  17.191  67.038  1.00  0.00    -0.225 NA 
BRANCH  13  15
HETATM   15  C   UNL     1      -7.770  19.283  67.122  1.00  0.00    -0.267 A  
HETATM   16  C   UNL     1      -7.567  19.495  68.498  1.00  0.00    -0.378 A  
HETATM   17  C   UNL     1      -6.516  20.295  68.955  1.00  0.00    -0.317 A  
HETATM   18  C   UNL     1      -5.649  20.895  68.044  1.00  0.00    -0.342 A  
HETATM   19  C   UNL     1      -5.837  20.695  66.679  1.00  0.00    -0.237 A  
HETATM   20  C   UNL     1      -6.888  19.896  66.229  1.00  0.00    -0.227 A  
HETATM   21  F   UNL     1      -7.021  19.728  64.904  1.00  0.00    -0.287 F  
ENDBRANCH  13  15
ENDBRANCH   8  10
TORSDOF 2
ENDMDL
MODEL       23
REMARK 921   NORMALIZED FREE ENERGY PREDICTED BY IDOCK:   -6.81 KCAL/MOL
REMARK 922        TOTAL FREE ENERGY PREDICTED BY IDOCK:   -7.98 KCAL/MOL
REMARK 923 INTER-LIGAND FREE ENERGY PREDICTED BY IDOCK:   -7.62 KCAL/MOL
REMARK 924 INTRA-LIGAND FREE ENERGY PREDICTED BY IDOCK:   -0.35 KCAL/MOL
REMARK 927      BINDING AFFINITY PREDICTED BY RF-SCORE:    0.00 PKD
ROOT
HETATM    1  O   UNL     1     -10.266   7.685  68.907  1.00  0.00    -0.199 OA 
HETATM    2  C   UNL     1     -10.564   7.599  70.220  1.00  0.00    -0.230 C  
HETATM    3  C   UNL     1     -11.412   8.709  70.715  1.00  0.00    -0.293 A  
HETATM    4  O   UNL     1     -10.209   6.674  70.928  1.00  0.00    -0.194 OA 
HETATM    5  C   UNL     1     -12.347   8.449  71.721  1.00  0.00    -0.375 A  
HETATM    6  C   UNL     1     -13.166   9.476  72.194  1.00  0.00    -0.539 A  
HETATM    7  C   UNL     1     -13.057  10.763  71.658  1.00  0.00    -0.551 A  
HETATM    8  C   UNL     1     -12.117  11.037  70.655  1.00  0.00    -0.471 A  
HETATM    9  C   UNL     1     -11.277  10.004  70.209  1.00  0.00    -0.379 A  
ENDROOT
BRANCH   8  10
HETATM   10  C   UNL     1     -12.014  12.350  70.029  1.00  0.00    -0.299 A  
HETATM   11  N   UNL     1     -12.394  13.503  70.599  1.00  0.00    -0.360 NA 
HETATM   12  O   UNL     1     -12.189  14.448  69.591  1.00  0.00    -0.321 OA 
HETATM   13  C   UNL     1     -11.706  13.771  68.507  1.00  0.00    -0.356 A  
HETATM   14  N   UNL     1     -11.569  12.484  68.731  1.00  0.00    -0.299 NA 
BRANCH  13  15
HETATM   15  C   UNL     1     -11.443  14.520  67.287  1.00  0.00    -0.381 A  
HETATM   16  C   UNL     1     -10.669  15.692  67.349  1.00  0.00    -0.309 A  
HETATM   17  C   UNL     1     -10.379  16.425  66.194  1.00  0.00    -0.354 A  
HETATM   18  C   UNL     1     -10.859  15.997  64.959  1.00  0.00    -0.421 A  
HETATM   19  C   UNL     1     -11.628  14.838  64.881  1.00  0.00    -0.401 A  
HETATM   20  C   UNL     1     -11.913  14.111  66.036  1.00  0.00    -0.413 A  
HETATM   21  F   UNL     1     -12.650  12.998  65.907  1.00  0.00    -0.478 F  
ENDBRANCH  13  15
ENDBRANCH   8  10
TORSDOF 2
ENDMDL
MODEL       24
REMARK 921   NORMALIZED FREE ENERGY PREDICTED BY IDOCK:   -6.81 KCAL/MOL
REMARK 922        TOTAL FREE ENERGY PREDICTED BY IDOCK:   -7.97 KCAL/MOL
REMARK 923 INTER-LIGAND FREE ENERGY PREDICTED BY IDOCK:   -7.63 KCAL/MOL
REMARK 924 INTRA-LIGAND FREE ENERGY PREDICTED BY IDOCK:   -0.34 KCAL/MOL
REMARK 927      BINDING AFFINITY PREDICTED BY RF-SCORE:    0.00 PKD
ROOT
HETATM    1  O   UNL     1      -9.862  10.805  63.267  1.00  0.00    -0.313 OA 
HETATM    2  C   UNL     1      -9.235   9.906  64.053  1.00  0.00    -0.253 C  
HETATM    3  C   UNL     1      -9.786   9.825  65.426  1.00  0.00    -0.365 A  
HETATM    4  O   UNL     1      -8.329   9.192  63.663  1.00  0.00    -0.169 OA 
HETATM    5  C   UNL     1      -9.792   8.589  66.081  1.00  0.00    -0.227 A  
HETATM    6  C   UNL     1     -10.319   8.485  67.370  1.00  0.00    -0.356 A  
HETATM    7  C   UNL     1     -10.846   9.615  68.005  1.00  0.00    -0.250 A  
HETATM    8  C   UNL     1     -10.837  10.860  67.362  1.00  0.00    -0.333 A  
HETATM    9  C   UNL     1     -10.277  10.959  66.078  1.00  0.00    -0.311 A  
ENDROOT
BRANCH   8  10
HETATM   10  C   UNL     1     -11.431  12.047  67.965  1.00  0.00    -0.328 A  
HETATM   11  N   UNL     1     -11.915  13.093  67.281  1.00  0.00    -0.362 NA 
HETATM   12  O   UNL     1     -12.281  13.996  68.282  1.00  0.00    -0.328 OA 
HETATM   13  C   UNL     1     -11.980  13.405  69.476  1.00  0.00    -0.319 A  
HETATM   14  N   UNL     1     -11.469  12.204  69.334  1.00  0.00    -0.290 NA 
BRANCH  13  15
HETATM   15  C   UNL     1     -12.223  14.157  70.699  1.00  0.00    -0.432 A  
HETATM   16  C   UNL     1     -11.698  15.455  70.827  1.00  0.00    -0.385 A  
HETATM   17  C   UNL     1     -11.928  16.214  71.978  1.00  0.00    -0.607 A  
HETATM   18  C   UNL     1     -12.689  15.687  73.019  1.00  0.00    -0.581 A  
HETATM   19  C   UNL     1     -13.216  14.403  72.907  1.00  0.00    -0.613 A  
HETATM   20  C   UNL     1     -12.982  13.651  71.756  1.00  0.00    -0.353 A  
HETATM   21  F   UNL     1     -13.520  12.423  71.694  1.00  0.00    -0.453 F  
ENDBRANCH  13  15
ENDBRANCH   8  10
TORSDOF 2
ENDMDL
MODEL       25
REMARK 921   NORMALIZED FREE ENERGY PREDICTED BY IDOCK:   -6.79 KCAL/MOL
REMARK 922        TOTAL FREE ENERGY PREDICTED BY IDOCK:   -7.95 KCAL/MOL
REMARK 923 INTER-LIGAND FREE ENERGY PREDICTED BY IDOCK:   -7.56 KCAL/MOL
REMARK 924 INTRA-LIGAND FREE ENERGY PREDICTED BY IDOCK:   -0.39 KCAL/MOL
REMARK 927      BINDING AFFINITY PREDICTED BY RF-SCORE:    0.00 PKD
ROOT
HETATM    1  O   UNL     1      -8.515  10.705  64.181  1.00  0.00    -0.154 OA 
HETATM    2  C   UNL     1      -9.622  11.111  63.527  1.00  0.00    -0.315 C  
HETATM    3  C   UNL     1     -10.572  11.871  64.374  1.00  0.00    -0.366 A  
HETATM    4  O   UNL     1      -9.811  10.914  62.340  1.00  0.00    -0.115 OA 
HETATM    5  C   UNL     1     -11.316  12.904  63.796  1.00  0.00    -0.490 A  
HETATM    6  C   UNL     1     -12.207  13.643  64.578  1.00  0.00    -0.444 A  
HETATM    7  C   UNL     1     -12.351  13.355  65.939  1.00  0.00    -0.493 A  
HETATM    8  C   UNL     1     -11.617  12.316  66.526  1.00  0.00    -0.440 A  
HETATM    9  C   UNL     1     -10.747  11.559  65.725  1.00  0.00    -0.325 A  
ENDROOT
BRANCH   8  10
HETATM   10  C   UNL     1     -11.694  12.025  67.953  1.00  0.00    -0.323 A  
HETATM   11  N   UNL     1     -11.817  12.948  68.918  1.00  0.00    -0.314 NA 
HETATM   12  O   UNL     1     -11.754  12.198  70.095  1.00  0.00    -0.303 OA 
HETATM   13  C   UNL     1     -11.597  10.893  69.725  1.00  0.00    -0.322 A  
HETATM   14  N   UNL     1     -11.567  10.735  68.422  1.00  0.00    -0.419 NA 
BRANCH  13  15
HETATM   15  C   UNL     1     -11.457   9.891  70.772  1.00  0.00    -0.433 A  
HETATM   16  C   UNL     1     -10.193   9.329  71.025  1.00  0.00    -0.384 A  
HETATM   17  C   UNL     1     -10.017   8.380  72.035  1.00  0.00    -0.354 A  
HETATM   18  C   UNL     1     -11.103   7.977  72.810  1.00  0.00    -0.448 A  
HETATM   19  C   UNL     1     -12.361   8.525  72.571  1.00  0.00    -0.372 A  
HETATM   20  C   UNL     1     -12.530   9.471  71.561  1.00  0.00    -0.376 A  
HETATM   21  F   UNL     1     -13.760   9.974  71.377  1.00  0.00    -0.372 F  
ENDBRANCH  13  15
ENDBRANCH   8  10
TORSDOF 2
ENDMDL
MODEL       26
REMARK 921   NORMALIZED FREE ENERGY PREDICTED BY IDOCK:   -6.78 KCAL/MOL
REMARK 922        TOTAL FREE ENERGY PREDICTED BY IDOCK:   -7.94 KCAL/MOL
REMARK 923 INTER-LIGAND FREE ENERGY PREDICTED BY IDOCK:   -7.53 KCAL/MOL
REMARK 924 INTRA-LIGAND FREE ENERGY PREDICTED BY IDOCK:   -0.41 KCAL/MOL
REMARK 927      BINDING AFFINITY PREDICTED BY RF-SCORE:    0.00 PKD
ROOT
HETATM    1  O   UNL     1     -10.239  14.181  69.016  1.00  0.00    -0.211 OA 
HETATM    2  C   UNL     1     -11.406  14.815  69.252  1.00  0.00    -0.294 C  
HETATM    3  C   UNL     1     -12.231  14.177  70.306  1.00  0.00    -0.416 A  
HETATM    4  O   UNL     1     -11.738  15.841  68.686  1.00  0.00    -0.375 OA 
HETATM    5  C   UNL     1     -13.013  14.987  71.134  1.00  0.00    -0.457 A  
HETATM    6  C   UNL     1     -13.788  14.411  72.143  1.00  0.00    -0.572 A  
HETATM    7  C   UNL     1     -13.777  13.025  72.329  1.00  0.00    -0.608 A  
HETATM    8  C   UNL     1     -13.003  12.203  71.499  1.00  0.00    -0.398 A  
HETATM    9  C   UNL     1     -12.253  12.790  70.468  1.00  0.00    -0.389 A  
ENDROOT
BRANCH   8  10
HETATM   10  C   UNL     1     -12.918  10.761  71.700  1.00  0.00    -0.476 A  
HETATM   11  N   UNL     1     -13.762  10.041  72.454  1.00  0.00    -0.180 NA 
HETATM   12  O   UNL     1     -13.221   8.754  72.410  1.00  0.00    -0.396 OA 
HETATM   13  C   UNL     1     -12.101   8.822  71.632  1.00  0.00    -0.337 A  
HETATM   14  N   UNL     1     -11.881  10.030  71.163  1.00  0.00    -0.369 NA 
BRANCH  13  15
HETATM   15  C   UNL     1     -11.310   7.613  71.452  1.00  0.00    -0.285 A  
HETATM   16  C   UNL     1     -11.526   6.810  70.318  1.00  0.00    -0.414 A  
HETATM   17  C   UNL     1     -10.772   5.653  70.102  1.00  0.00    -0.376 A  
HETATM   18  C   UNL     1      -9.789   5.282  71.016  1.00  0.00    -0.254 A  
HETATM   19  C   UNL     1      -9.563   6.067  72.143  1.00  0.00    -0.165 A  
HETATM   20  C   UNL     1     -10.319   7.220  72.354  1.00  0.00    -0.208 A  
HETATM   21  F   UNL     1     -10.057   7.946  73.450  1.00  0.00    -0.355 F  
ENDBRANCH  13  15
ENDBRANCH   8  10
TORSDOF 2
ENDMDL
MODEL       27
REMARK 921   NORMALIZED FREE ENERGY PREDICTED BY IDOCK:   -6.76 KCAL/MOL
REMARK 922        TOTAL FREE ENERGY PREDICTED BY IDOCK:   -7.91 KCAL/MOL
REMARK 923 INTER-LIGAND FREE ENERGY PREDICTED BY IDOCK:   -7.54 KCAL/MOL
REMARK 924 INTRA-LIGAND FREE ENERGY PREDICTED BY IDOCK:   -0.37 KCAL/MOL
REMARK 927      BINDING AFFINITY PREDICTED BY RF-SCORE:    0.00 PKD
ROOT
HETATM    1  O   UNL     1     -13.133  15.503  71.092  1.00  0.00    -0.472 OA 
HETATM    2  C   UNL     1     -12.242  15.373  70.087  1.00  0.00    -0.375 C  
HETATM    3  C   UNL     1     -12.074  13.979  69.613  1.00  0.00    -0.408 A  
HETATM    4  O   UNL     1     -11.660  16.316  69.581  1.00  0.00    -0.276 OA 
HETATM    5  C   UNL     1     -11.815  13.752  68.258  1.00  0.00    -0.413 A  
HETATM    6  C   UNL     1     -11.667  12.446  67.785  1.00  0.00    -0.413 A  
HETATM    7  C   UNL     1     -11.784  11.365  68.665  1.00  0.00    -0.394 A  
HETATM    8  C   UNL     1     -12.034  11.582  70.027  1.00  0.00    -0.435 A  
HETATM    9  C   UNL     1     -12.150  12.900  70.497  1.00  0.00    -0.364 A  
ENDROOT
BRANCH   8  10
HETATM   10  C   UNL     1     -12.222  10.480  70.964  1.00  0.00    -0.400 A  
HETATM   11  N   UNL     1     -13.224  10.391  71.851  1.00  0.00    -0.451 NA 
HETATM   12  O   UNL     1     -12.924   9.230  72.567  1.00  0.00    -0.393 OA 
HETATM   13  C   UNL     1     -11.766   8.731  72.042  1.00  0.00    -0.372 A  
HETATM   14  N   UNL     1     -11.305   9.456  71.048  1.00  0.00    -0.306 NA 
BRANCH  13  15
HETATM   15  C   UNL     1     -11.198   7.532  72.640  1.00  0.00    -0.399 A  
HETATM   16  C   UNL     1     -10.049   7.640  73.445  1.00  0.00    -0.379 A  
HETATM   17  C   UNL     1      -9.488   6.513  74.052  1.00  0.00    -0.217 A  
HETATM   18  C   UNL     1     -10.067   5.260  73.866  1.00  0.00    -0.232 A  
HETATM   19  C   UNL     1     -11.204   5.137  73.071  1.00  0.00    -0.390 A  
HETATM   20  C   UNL     1     -11.759   6.265  72.468  1.00  0.00    -0.204 A  
HETATM   21  F   UNL     1     -12.860   6.094  71.720  1.00  0.00    -0.250 F  
ENDBRANCH  13  15
ENDBRANCH   8  10
TORSDOF 2
ENDMDL
MODEL       28
REMARK 921   NORMALIZED FREE ENERGY PREDICTED BY IDOCK:   -6.72 KCAL/MOL
REMARK 922        TOTAL FREE ENERGY PREDICTED BY IDOCK:   -7.87 KCAL/MOL
REMARK 923 INTER-LIGAND FREE ENERGY PREDICTED BY IDOCK:   -7.47 KCAL/MOL
REMARK 924 INTRA-LIGAND FREE ENERGY PREDICTED BY IDOCK:   -0.40 KCAL/MOL
REMARK 927      BINDING AFFINITY PREDICTED BY RF-SCORE:    0.00 PKD
ROOT
HETATM    1  O   UNL     1     -10.460  17.531  69.380  1.00  0.00    -0.278 OA 
HETATM    2  C   UNL     1      -9.935  17.633  68.142  1.00  0.00    -0.330 C  
HETATM    3  C   UNL     1     -10.340  16.539  67.228  1.00  0.00    -0.296 A  
HETATM    4  O   UNL     1      -9.229  18.560  67.787  1.00  0.00    -0.275 OA 
HETATM    5  C   UNL     1     -10.511  16.821  65.869  1.00  0.00    -0.311 A  
HETATM    6  C   UNL     1     -10.907  15.809  64.991  1.00  0.00    -0.461 A  
HETATM    7  C   UNL     1     -11.137  14.516  65.471  1.00  0.00    -0.339 A  
HETATM    8  C   UNL     1     -10.960  14.220  66.829  1.00  0.00    -0.304 A  
HETATM    9  C   UNL     1     -10.533  15.237  67.697  1.00  0.00    -0.263 A  
ENDROOT
BRANCH   8  10
HETATM   10  C   UNL     1     -11.250  12.900  67.378  1.00  0.00    -0.291 A  
HETATM   11  N   UNL     1     -11.672  11.848  66.661  1.00  0.00    -0.579 NA 
HETATM   12  O   UNL     1     -11.894  10.864  67.627  1.00  0.00    -0.572 OA 
HETATM   13  C   UNL     1     -11.585  11.419  68.836  1.00  0.00    -0.323 A  
HETATM   14  N   UNL     1     -11.172  12.663  68.733  1.00  0.00    -0.263 NA 
BRANCH  13  15
HETATM   15  C   UNL     1     -11.771  10.614  70.034  1.00  0.00    -0.405 A  
HETATM   16  C   UNL     1     -13.015  10.629  70.689  1.00  0.00    -0.343 A  
HETATM   17  C   UNL     1     -13.236   9.853  71.830  1.00  0.00    -0.558 A  
HETATM   18  C   UNL     1     -12.217   9.047  72.333  1.00  0.00    -0.322 A  
HETATM   19  C   UNL     1     -10.980   9.021  71.695  1.00  0.00    -0.435 A  
HETATM   20  C   UNL     1     -10.765   9.799  70.557  1.00  0.00    -0.317 A  
HETATM   21  F   UNL     1      -9.558   9.731  69.975  1.00  0.00    -0.208 F  
ENDBRANCH  13  15
ENDBRANCH   8  10
TORSDOF 2
ENDMDL
MODEL       29
REMARK 921   NORMALIZED FREE ENERGY PREDICTED BY IDOCK:   -6.67 KCAL/MOL
REMARK 922        TOTAL FREE ENERGY PREDICTED BY IDOCK:   -7.82 KCAL/MOL
REMARK 923 INTER-LIGAND FREE ENERGY PREDICTED BY IDOCK:   -7.80 KCAL/MOL
REMARK 924 INTRA-LIGAND FREE ENERGY PREDICTED BY IDOCK:   -0.02 KCAL/MOL
REMARK 927      BINDING AFFINITY PREDICTED BY RF-SCORE:    0.00 PKD
ROOT
HETATM    1  O   UNL     1     -13.341  12.432  72.084  1.00  0.00    -0.528 OA 
HETATM    2  C   UNL     1     -12.990  11.272  71.490  1.00  0.00    -0.415 C  
HETATM    3  C   UNL     1     -11.982  11.432  70.416  1.00  0.00    -0.465 A  
HETATM    4  O   UNL     1     -13.425  10.187  71.830  1.00  0.00    -0.365 OA 
HETATM    5  C   UNL     1     -11.038  10.420  70.219  1.00  0.00    -0.379 A  
HETATM    6  C   UNL     1     -10.069  10.554  69.223  1.00  0.00    -0.244 A  
HETATM    7  C   UNL     1     -10.038  11.704  68.425  1.00  0.00    -0.207 A  
HETATM    8  C   UNL     1     -10.985  12.720  68.608  1.00  0.00    -0.295 A  
HETATM    9  C   UNL     1     -11.973  12.561  69.592  1.00  0.00    -0.339 A  
ENDROOT
BRANCH   8  10
HETATM   10  C   UNL     1     -10.949  13.959  67.840  1.00  0.00    -0.250 A  
HETATM   11  N   UNL     1     -11.013  14.032  66.502  1.00  0.00    -0.303 NA 
HETATM   12  O   UNL     1     -10.849  15.395  66.243  1.00  0.00    -0.313 OA 
HETATM   13  C   UNL     1     -10.700  16.013  67.452  1.00  0.00    -0.306 A  
HETATM   14  N   UNL     1     -10.767  15.175  68.462  1.00  0.00    -0.234 NA 
BRANCH  13  15
HETATM   15  C   UNL     1     -10.466  17.449  67.469  1.00  0.00    -0.354 A  
HETATM   16  C   UNL     1     -10.061  18.068  68.665  1.00  0.00    -0.401 A  
HETATM   17  C   UNL     1      -9.807  19.442  68.715  1.00  0.00    -0.530 A  
HETATM   18  C   UNL     1      -9.953  20.218  67.568  1.00  0.00    -0.557 A  
HETATM   19  C   UNL     1     -10.354  19.620  66.376  1.00  0.00    -0.609 A  
HETATM   20  C   UNL     1     -10.606  18.249  66.333  1.00  0.00    -0.293 A  
HETATM   21  F   UNL     1     -10.980  17.721  65.159  1.00  0.00    -0.416 F  
ENDBRANCH  13  15
ENDBRANCH   8  10
TORSDOF 2
ENDMDL
MODEL       30
REMARK 921   NORMALIZED FREE ENERGY PREDICTED BY IDOCK:   -6.66 KCAL/MOL
REMARK 922        TOTAL FREE ENERGY PREDICTED BY IDOCK:   -7.81 KCAL/MOL
REMARK 923 INTER-LIGAND FREE ENERGY PREDICTED BY IDOCK:   -7.42 KCAL/MOL
REMARK 924 INTRA-LIGAND FREE ENERGY PREDICTED BY IDOCK:   -0.39 KCAL/MOL
REMARK 927      BINDING AFFINITY PREDICTED BY RF-SCORE:    0.00 PKD
ROOT
HETATM    1  O   UNL     1     -13.435  13.908  65.654  1.00  0.00    -0.590 OA 
HETATM    2  C   UNL     1     -12.520  13.946  64.663  1.00  0.00    -0.325 C  
HETATM    3  C   UNL     1     -11.611  12.776  64.643  1.00  0.00    -0.384 A  
HETATM    4  O   UNL     1     -12.468  14.835  63.832  1.00  0.00    -0.811 OA 
HETATM    5  C   UNL     1     -11.151  12.298  63.413  1.00  0.00    -0.487 A  
HETATM    6  C   UNL     1     -10.305  11.188  63.368  1.00  0.00    -0.419 A  
HETATM    7  C   UNL     1      -9.922  10.550  64.553  1.00  0.00    -0.413 A  
HETATM    8  C   UNL     1     -10.370  11.026  65.792  1.00  0.00    -0.316 A  
HETATM    9  C   UNL     1     -11.195  12.161  65.827  1.00  0.00    -0.384 A  
ENDROOT
BRANCH   8  10
HETATM   10  C   UNL     1     -10.043  10.353  67.043  1.00  0.00    -0.215 A  
HETATM   11  N   UNL     1      -8.800  10.088  67.469  1.00  0.00    -0.128 NA 
HETATM   12  O   UNL     1      -9.005   9.364  68.646  1.00  0.00    -0.130 OA 
HETATM   13  C   UNL     1     -10.356   9.262  68.816  1.00  0.00    -0.211 A  
HETATM   14  N   UNL     1     -11.035   9.864  67.866  1.00  0.00    -0.260 NA 
BRANCH  13  15
HETATM   15  C   UNL     1     -10.853   8.509  69.959  1.00  0.00    -0.225 A  
HETATM   16  C   UNL     1     -10.890   7.104  69.896  1.00  0.00    -0.276 A  
HETATM   17  C   UNL     1     -11.342   6.347  70.980  1.00  0.00    -0.386 A  
HETATM   18  C   UNL     1     -11.762   6.983  72.147  1.00  0.00    -0.321 A  
HETATM   19  C   UNL     1     -11.731   8.373  72.224  1.00  0.00    -0.453 A  
HETATM   20  C   UNL     1     -11.280   9.123  71.138  1.00  0.00    -0.325 A  
HETATM   21  F   UNL     1     -11.262  10.458  71.267  1.00  0.00    -0.364 F  
ENDBRANCH  13  15
ENDBRANCH   8  10
TORSDOF 2
ENDMDL
MODEL       31
REMARK 921   NORMALIZED FREE ENERGY PREDICTED BY IDOCK:   -6.65 KCAL/MOL
REMARK 922        TOTAL FREE ENERGY PREDICTED BY IDOCK:   -7.80 KCAL/MOL
REMARK 923 INTER-LIGAND FREE ENERGY PREDICTED BY IDOCK:   -7.43 KCAL/MOL
REMARK 924 INTRA-LIGAND FREE ENERGY PREDICTED BY IDOCK:   -0.37 KCAL/MOL
REMARK 927      BINDING AFFINITY PREDICTED BY RF-SCORE:    0.00 PKD
ROOT
HETATM    1  O   UNL     1      -9.817   7.663  69.478  1.00  0.00    -0.174 OA 
HETATM    2  C   UNL     1     -10.253   7.656  70.755  1.00  0.00    -0.201 C  
HETATM    3  C   UNL     1     -11.238   8.721  71.057  1.00  0.00    -0.329 A  
HETATM    4  O   UNL     1      -9.906   6.827  71.577  1.00  0.00    -0.172 OA 
HETATM    5  C   UNL     1     -12.256   8.460  71.979  1.00  0.00    -0.419 A  
HETATM    6  C   UNL     1     -13.204   9.443  72.269  1.00  0.00    -0.528 A  
HETATM    7  C   UNL     1     -13.140  10.687  71.633  1.00  0.00    -0.555 A  
HETATM    8  C   UNL     1     -12.119  10.964  70.715  1.00  0.00    -0.469 A  
HETATM    9  C   UNL     1     -11.152   9.979  70.454  1.00  0.00    -0.393 A  
ENDROOT
BRANCH   8  10
HETATM   10  C   UNL     1     -12.053  12.226  69.987  1.00  0.00    -0.273 A  
HETATM   11  N   UNL     1     -12.391  13.421  70.493  1.00  0.00    -0.345 NA 
HETATM   12  O   UNL     1     -12.249  14.287  69.407  1.00  0.00    -0.324 OA 
HETATM   13  C   UNL     1     -11.840  13.528  68.347  1.00  0.00    -0.373 A  
HETATM   14  N   UNL     1     -11.693  12.260  68.657  1.00  0.00    -0.313 NA 
BRANCH  13  15
HETATM   15  C   UNL     1     -11.655  14.183  67.060  1.00  0.00    -0.404 A  
HETATM   16  C   UNL     1     -12.438  13.780  65.963  1.00  0.00    -0.491 A  
HETATM   17  C   UNL     1     -12.303  14.399  64.717  1.00  0.00    -0.427 A  
HETATM   18  C   UNL     1     -11.384  15.432  64.549  1.00  0.00    -0.321 A  
HETATM   19  C   UNL     1     -10.601  15.842  65.626  1.00  0.00    -0.393 A  
HETATM   20  C   UNL     1     -10.740  15.220  66.866  1.00  0.00    -0.313 A  
HETATM   21  F   UNL     1      -9.970  15.657  67.873  1.00  0.00    -0.217 F  
ENDBRANCH  13  15
ENDBRANCH   8  10
TORSDOF 2
ENDMDL
MODEL       32
REMARK 921   NORMALIZED FREE ENERGY PREDICTED BY IDOCK:   -6.64 KCAL/MOL
REMARK 922        TOTAL FREE ENERGY PREDICTED BY IDOCK:   -7.78 KCAL/MOL
REMARK 923 INTER-LIGAND FREE ENERGY PREDICTED BY IDOCK:   -7.61 KCAL/MOL
REMARK 924 INTRA-LIGAND FREE ENERGY PREDICTED BY IDOCK:   -0.17 KCAL/MOL
REMARK 927      BINDING AFFINITY PREDICTED BY RF-SCORE:    0.00 PKD
ROOT
HETATM    1  O   UNL     1     -13.381  12.202  72.182  1.00  0.00    -0.522 OA 
HETATM    2  C   UNL     1     -12.995  11.033  71.629  1.00  0.00    -0.456 C  
HETATM    3  C   UNL     1     -11.999  11.185  70.542  1.00  0.00    -0.475 A  
HETATM    4  O   UNL     1     -13.391   9.948  72.013  1.00  0.00    -0.423 OA 
HETATM    5  C   UNL     1     -11.024  10.198  70.376  1.00  0.00    -0.386 A  
HETATM    6  C   UNL     1     -10.066  10.326  69.368  1.00  0.00    -0.255 A  
HETATM    7  C   UNL     1     -10.079  11.444  68.527  1.00  0.00    -0.211 A  
HETATM    8  C   UNL     1     -11.058  12.435  68.679  1.00  0.00    -0.297 A  
HETATM    9  C   UNL     1     -12.034  12.281  69.676  1.00  0.00    -0.347 A  
ENDROOT
BRANCH   8  10
HETATM   10  C   UNL     1     -11.068  13.643  67.863  1.00  0.00    -0.261 A  
HETATM   11  N   UNL     1     -11.208  13.667  66.530  1.00  0.00    -0.305 NA 
HETATM   12  O   UNL     1     -11.061  15.019  66.210  1.00  0.00    -0.340 OA 
HETATM   13  C   UNL     1     -10.846  15.681  67.385  1.00  0.00    -0.315 A  
HETATM   14  N   UNL     1     -10.854  14.882  68.428  1.00  0.00    -0.244 NA 
BRANCH  13  15
HETATM   15  C   UNL     1     -10.614  17.118  67.335  1.00  0.00    -0.297 A  
HETATM   16  C   UNL     1     -10.504  17.756  66.087  1.00  0.00    -0.301 A  
HETATM   17  C   UNL     1     -10.302  19.136  66.000  1.00  0.00    -0.538 A  
HETATM   18  C   UNL     1     -10.208  19.901  67.160  1.00  0.00    -0.579 A  
HETATM   19  C   UNL     1     -10.316  19.283  68.404  1.00  0.00    -0.435 A  
HETATM   20  C   UNL     1     -10.517  17.906  68.484  1.00  0.00    -0.305 A  
HETATM   21  F   UNL     1     -10.622  17.361  69.705  1.00  0.00    -0.319 F  
ENDBRANCH  13  15
ENDBRANCH   8  10
TORSDOF 2
ENDMDL
MODEL       33
REMARK 921   NORMALIZED FREE ENERGY PREDICTED BY IDOCK:   -6.63 KCAL/MOL
REMARK 922        TOTAL FREE ENERGY PREDICTED BY IDOCK:   -7.77 KCAL/MOL
REMARK 923 INTER-LIGAND FREE ENERGY PREDICTED BY IDOCK:   -7.44 KCAL/MOL
REMARK 924 INTRA-LIGAND FREE ENERGY PREDICTED BY IDOCK:   -0.33 KCAL/MOL
REMARK 927      BINDING AFFINITY PREDICTED BY RF-SCORE:    0.00 PKD
ROOT
HETATM    1  O   UNL     1      -9.635   9.481  68.497  1.00  0.00    -0.141 OA 
HETATM    2  C   UNL     1     -10.230   9.294  67.301  1.00  0.00    -0.252 C  
HETATM    3  C   UNL     1     -10.383  10.537  66.509  1.00  0.00    -0.294 A  
HETATM    4  O   UNL     1     -10.572   8.202  66.886  1.00  0.00    -0.329 OA 
HETATM    5  C   UNL     1     -10.286  10.467  65.116  1.00  0.00    -0.358 A  
HETATM    6  C   UNL     1     -10.413  11.628  64.349  1.00  0.00    -0.374 A  
HETATM    7  C   UNL     1     -10.630  12.860  64.973  1.00  0.00    -0.333 A  
HETATM    8  C   UNL     1     -10.738  12.940  66.368  1.00  0.00    -0.286 A  
HETATM    9  C   UNL     1     -10.640  11.763  67.127  1.00  0.00    -0.267 A  
ENDROOT
BRANCH   8  10
HETATM   10  C   UNL     1     -10.904  14.213  67.059  1.00  0.00    -0.295 A  
HETATM   11  N   UNL     1     -11.727  14.420  68.097  1.00  0.00    -0.330 NA 
HETATM   12  O   UNL     1     -11.604  15.790  68.343  1.00  0.00    -0.373 OA 
HETATM   13  C   UNL     1     -10.717  16.278  67.426  1.00  0.00    -0.287 A  
HETATM   14  N   UNL     1     -10.250  15.347  66.626  1.00  0.00    -0.269 NA 
BRANCH  13  15
HETATM   15  C   UNL     1     -10.436  17.706  67.430  1.00  0.00    -0.356 A  
HETATM   16  C   UNL     1     -10.026  18.326  68.624  1.00  0.00    -0.410 A  
HETATM   17  C   UNL     1      -9.728  19.691  68.660  1.00  0.00    -0.486 A  
HETATM   18  C   UNL     1      -9.834  20.458  67.502  1.00  0.00    -0.564 A  
HETATM   19  C   UNL     1     -10.238  19.859  66.312  1.00  0.00    -0.614 A  
HETATM   20  C   UNL     1     -10.535  18.497  66.283  1.00  0.00    -0.406 A  
HETATM   21  F   UNL     1     -10.912  17.966  65.110  1.00  0.00    -0.417 F  
ENDBRANCH  13  15
ENDBRANCH   8  10
TORSDOF 2
ENDMDL
MODEL       34
REMARK 921   NORMALIZED FREE ENERGY PREDICTED BY IDOCK:   -6.60 KCAL/MOL
REMARK 922        TOTAL FREE ENERGY PREDICTED BY IDOCK:   -7.74 KCAL/MOL
REMARK 923 INTER-LIGAND FREE ENERGY PREDICTED BY IDOCK:   -7.34 KCAL/MOL
REMARK 924 INTRA-LIGAND FREE ENERGY PREDICTED BY IDOCK:   -0.39 KCAL/MOL
REMARK 927      BINDING AFFINITY PREDICTED BY RF-SCORE:    0.00 PKD
ROOT
HETATM    1  O   UNL     1     -10.673  11.099  66.158  1.00  0.00    -0.263 OA 
HETATM    2  C   UNL     1     -11.409  12.203  66.403  1.00  0.00    -0.356 C  
HETATM    3  C   UNL     1     -11.701  12.420  67.840  1.00  0.00    -0.421 A  
HETATM    4  O   UNL     1     -11.766  12.978  65.534  1.00  0.00    -0.333 OA 
HETATM    5  C   UNL     1     -11.780  13.729  68.324  1.00  0.00    -0.394 A  
HETATM    6  C   UNL     1     -12.040  13.958  69.677  1.00  0.00    -0.404 A  
HETATM    7  C   UNL     1     -12.216  12.878  70.549  1.00  0.00    -0.395 A  
HETATM    8  C   UNL     1     -12.148  11.562  70.073  1.00  0.00    -0.408 A  
HETATM    9  C   UNL     1     -11.917  11.344  68.705  1.00  0.00    -0.353 A  
ENDROOT
BRANCH   8  10
HETATM   10  C   UNL     1     -12.265  10.411  70.961  1.00  0.00    -0.393 A  
HETATM   11  N   UNL     1     -13.171  10.290  71.942  1.00  0.00    -0.455 NA 
HETATM   12  O   UNL     1     -12.826   9.083  72.555  1.00  0.00    -0.404 OA 
HETATM   13  C   UNL     1     -11.743   8.593  71.883  1.00  0.00    -0.352 A  
HETATM   14  N   UNL     1     -11.370   9.366  70.889  1.00  0.00    -0.293 NA 
BRANCH  13  15
HETATM   15  C   UNL     1     -11.146   7.349  72.349  1.00  0.00    -0.331 A  
HETATM   16  C   UNL     1     -10.609   7.286  73.647  1.00  0.00    -0.353 A  
HETATM   17  C   UNL     1     -10.046   6.103  74.136  1.00  0.00    -0.304 A  
HETATM   18  C   UNL     1     -10.012   4.965  73.333  1.00  0.00    -0.183 A  
HETATM   19  C   UNL     1     -10.540   5.012  72.045  1.00  0.00    -0.243 A  
HETATM   20  C   UNL     1     -11.100   6.195  71.564  1.00  0.00    -0.286 A  
HETATM   21  F   UNL     1     -11.603   6.186  70.320  1.00  0.00    -0.420 F  
ENDBRANCH  13  15
ENDBRANCH   8  10
TORSDOF 2
ENDMDL
MODEL       35
REMARK 921   NORMALIZED FREE ENERGY PREDICTED BY IDOCK:   -6.55 KCAL/MOL
REMARK 922        TOTAL FREE ENERGY PREDICTED BY IDOCK:   -7.69 KCAL/MOL
REMARK 923 INTER-LIGAND FREE ENERGY PREDICTED BY IDOCK:   -7.38 KCAL/MOL
REMARK 924 INTRA-LIGAND FREE ENERGY PREDICTED BY IDOCK:   -0.31 KCAL/MOL
REMARK 927      BINDING AFFINITY PREDICTED BY RF-SCORE:    0.00 PKD
ROOT
HETATM    1  O   UNL     1     -13.640  14.214  65.570  1.00  0.00    -0.568 OA 
HETATM    2  C   UNL     1     -12.435  14.082  64.978  1.00  0.00    -0.425 C  
HETATM    3  C   UNL     1     -11.651  12.924  65.470  1.00  0.00    -0.395 A  
HETATM    4  O   UNL     1     -12.040  14.816  64.090  1.00  0.00    -0.473 OA 
HETATM    5  C   UNL     1     -10.818  12.243  64.576  1.00  0.00    -0.355 A  
HETATM    6  C   UNL     1     -10.080  11.141  65.013  1.00  0.00    -0.338 A  
HETATM    7  C   UNL     1     -10.178  10.714  66.341  1.00  0.00    -0.291 A  
HETATM    8  C   UNL     1     -11.003  11.394  67.247  1.00  0.00    -0.336 A  
HETATM    9  C   UNL     1     -11.716  12.520  66.805  1.00  0.00    -0.453 A  
ENDROOT
BRANCH   8  10
HETATM   10  C   UNL     1     -11.178  10.943  68.623  1.00  0.00    -0.267 A  
HETATM   11  N   UNL     1     -11.967  11.539  69.529  1.00  0.00    -0.331 NA 
HETATM   12  O   UNL     1     -11.731  10.808  70.696  1.00  0.00    -0.325 OA 
HETATM   13  C   UNL     1     -10.820   9.841  70.380  1.00  0.00    -0.311 A  
HETATM   14  N   UNL     1     -10.461   9.875  69.117  1.00  0.00    -0.205 NA 
BRANCH  13  15
HETATM   15  C   UNL     1     -10.358   8.954  71.438  1.00  0.00    -0.377 A  
HETATM   16  C   UNL     1      -8.978   8.806  71.661  1.00  0.00    -0.301 A  
HETATM   17  C   UNL     1      -8.498   7.979  72.681  1.00  0.00    -0.231 A  
HETATM   18  C   UNL     1      -9.393   7.288  73.496  1.00  0.00    -0.253 A  
HETATM   19  C   UNL     1     -10.763   7.425  73.287  1.00  0.00    -0.441 A  
HETATM   20  C   UNL     1     -11.235   8.251  72.267  1.00  0.00    -0.374 A  
HETATM   21  F   UNL     1     -12.563   8.355  72.114  1.00  0.00    -0.328 F  
ENDBRANCH  13  15
ENDBRANCH   8  10
TORSDOF 2
ENDMDL
MODEL       36
REMARK 921   NORMALIZED FREE ENERGY PREDICTED BY IDOCK:   -6.50 KCAL/MOL
REMARK 922        TOTAL FREE ENERGY PREDICTED BY IDOCK:   -7.63 KCAL/MOL
REMARK 923 INTER-LIGAND FREE ENERGY PREDICTED BY IDOCK:   -7.26 KCAL/MOL
REMARK 924 INTRA-LIGAND FREE ENERGY PREDICTED BY IDOCK:   -0.38 KCAL/MOL
REMARK 927      BINDING AFFINITY PREDICTED BY RF-SCORE:    0.00 PKD
ROOT
HETATM    1  O   UNL     1     -11.323   6.422  70.533  1.00  0.00    -0.326 OA 
HETATM    2  C   UNL     1     -11.516   7.176  71.635  1.00  0.00    -0.266 C  
HETATM    3  C   UNL     1     -11.891   8.580  71.342  1.00  0.00    -0.345 A  
HETATM    4  O   UNL     1     -11.433   6.740  72.769  1.00  0.00    -0.228 OA 
HETATM    5  C   UNL     1     -12.767   9.240  72.208  1.00  0.00    -0.435 A  
HETATM    6  C   UNL     1     -13.147  10.558  71.945  1.00  0.00    -0.567 A  
HETATM    7  C   UNL     1     -12.657  11.215  70.811  1.00  0.00    -0.445 A  
HETATM    8  C   UNL     1     -11.772  10.565  69.941  1.00  0.00    -0.372 A  
HETATM    9  C   UNL     1     -11.372   9.251  70.232  1.00  0.00    -0.238 A  
ENDROOT
BRANCH   8  10
HETATM   10  C   UNL     1     -11.287  11.195  68.718  1.00  0.00    -0.277 A  
HETATM   11  N   UNL     1     -10.141  10.881  68.096  1.00  0.00    -0.168 NA 
HETATM   12  O   UNL     1     -10.076  11.803  67.049  1.00  0.00    -0.206 OA 
HETATM   13  C   UNL     1     -11.190  12.586  67.141  1.00  0.00    -0.300 A  
HETATM   14  N   UNL     1     -11.971  12.243  68.141  1.00  0.00    -0.423 NA 
BRANCH  13  15
HETATM   15  C   UNL     1     -11.353  13.671  66.184  1.00  0.00    -0.324 A  
HETATM   16  C   UNL     1     -10.562  14.827  66.311  1.00  0.00    -0.306 A  
HETATM   17  C   UNL     1     -10.676  15.881  65.400  1.00  0.00    -0.415 A  
HETATM   18  C   UNL     1     -11.582  15.793  64.345  1.00  0.00    -0.240 A  
HETATM   19  C   UNL     1     -12.372  14.655  64.205  1.00  0.00    -0.375 A  
HETATM   20  C   UNL     1     -12.254  13.608  65.119  1.00  0.00    -0.433 A  
HETATM   21  F   UNL     1     -13.030  12.530  64.935  1.00  0.00    -0.569 F  
ENDBRANCH  13  15
ENDBRANCH   8  10
TORSDOF 2
ENDMDL
MODEL       37
REMARK 921   NORMALIZED FREE ENERGY PREDICTED BY IDOCK:   -6.50 KCAL/MOL
REMARK 922        TOTAL FREE ENERGY PREDICTED BY IDOCK:   -7.63 KCAL/MOL
REMARK 923 INTER-LIGAND FREE ENERGY PREDICTED BY IDOCK:   -7.28 KCAL/MOL
REMARK 924 INTRA-LIGAND FREE ENERGY PREDICTED BY IDOCK:   -0.35 KCAL/MOL
REMARK 927      BINDING AFFINITY PREDICTED BY RF-SCORE:    0.00 PKD
ROOT
HETATM    1  O   UNL     1     -12.308  16.203  71.682  1.00  0.00    -0.442 OA 
HETATM    2  C   UNL     1     -13.230  15.232  71.848  1.00  0.00    -0.415 C  
HETATM    3  C   UNL     1     -12.843  13.932  71.251  1.00  0.00    -0.435 A  
HETATM    4  O   UNL     1     -14.266  15.390  72.467  1.00  0.00    -0.523 OA 
HETATM    5  C   UNL     1     -13.246  12.751  71.882  1.00  0.00    -0.511 A  
HETATM    6  C   UNL     1     -12.881  11.514  71.346  1.00  0.00    -0.489 A  
HETATM    7  C   UNL     1     -12.109  11.455  70.181  1.00  0.00    -0.439 A  
HETATM    8  C   UNL     1     -11.708  12.632  69.535  1.00  0.00    -0.374 A  
HETATM    9  C   UNL     1     -12.106  13.870  70.065  1.00  0.00    -0.411 A  
ENDROOT
BRANCH   8  10
HETATM   10  C   UNL     1     -10.852  12.613  68.355  1.00  0.00    -0.245 A  
HETATM   11  N   UNL     1      -9.975  13.574  68.028  1.00  0.00    -0.241 NA 
HETATM   12  O   UNL     1      -9.477  13.154  66.793  1.00  0.00    -0.239 OA 
HETATM   13  C   UNL     1     -10.104  11.979  66.492  1.00  0.00    -0.201 A  
HETATM   14  N   UNL     1     -10.947  11.600  67.426  1.00  0.00    -0.245 NA 
BRANCH  13  15
HETATM   15  C   UNL     1      -9.798  11.339  65.221  1.00  0.00    -0.291 A  
HETATM   16  C   UNL     1      -9.251  10.043  65.215  1.00  0.00    -0.268 A  
HETATM   17  C   UNL     1      -8.964   9.389  64.014  1.00  0.00    -0.174 A  
HETATM   18  C   UNL     1      -9.220  10.020  62.799  1.00  0.00    -0.313 A  
HETATM   19  C   UNL     1      -9.761  11.303  62.788  1.00  0.00    -0.289 A  
HETATM   20  C   UNL     1     -10.045  11.951  63.990  1.00  0.00    -0.334 A  
HETATM   21  F   UNL     1     -10.573  13.182  63.926  1.00  0.00    -0.401 F  
ENDBRANCH  13  15
ENDBRANCH   8  10
TORSDOF 2
ENDMDL
MODEL       38
REMARK 921   NORMALIZED FREE ENERGY PREDICTED BY IDOCK:   -6.47 KCAL/MOL
REMARK 922        TOTAL FREE ENERGY PREDICTED BY IDOCK:   -7.59 KCAL/MOL
REMARK 923 INTER-LIGAND FREE ENERGY PREDICTED BY IDOCK:   -7.22 KCAL/MOL
REMARK 924 INTRA-LIGAND FREE ENERGY PREDICTED BY IDOCK:   -0.37 KCAL/MOL
REMARK 927      BINDING AFFINITY PREDICTED BY RF-SCORE:    0.00 PKD
ROOT
HETATM    1  O   UNL     1     -14.361   9.119  72.464  1.00  0.00    -0.529 OA 
HETATM    2  C   UNL     1     -13.504   8.247  71.893  1.00  0.00    -0.346 C  
HETATM    3  C   UNL     1     -12.341   8.892  71.239  1.00  0.00    -0.342 A  
HETATM    4  O   UNL     1     -13.644   7.039  71.944  1.00  0.00    -0.296 OA 
HETATM    5  C   UNL     1     -11.107   8.235  71.254  1.00  0.00    -0.296 A  
HETATM    6  C   UNL     1      -9.993   8.830  70.657  1.00  0.00    -0.242 A  
HETATM    7  C   UNL     1     -10.110  10.085  70.050  1.00  0.00    -0.289 A  
HETATM    8  C   UNL     1     -11.344  10.748  70.022  1.00  0.00    -0.397 A  
HETATM    9  C   UNL     1     -12.464  10.127  70.598  1.00  0.00    -0.372 A  
ENDROOT
BRANCH   8  10
HETATM   10  C   UNL     1     -11.492  12.082  69.453  1.00  0.00    -0.296 A  
HETATM   11  N   UNL     1     -11.963  13.150  70.115  1.00  0.00    -0.335 NA 
HETATM   12  O   UNL     1     -12.001  14.148  69.139  1.00  0.00    -0.324 OA 
HETATM   13  C   UNL     1     -11.550  13.584  67.979  1.00  0.00    -0.337 A  
HETATM   14  N   UNL     1     -11.214  12.323  68.125  1.00  0.00    -0.248 NA 
BRANCH  13  15
HETATM   15  C   UNL     1     -11.529  14.404  66.776  1.00  0.00    -0.381 A  
HETATM   16  C   UNL     1     -10.663  15.511  66.711  1.00  0.00    -0.305 A  
HETATM   17  C   UNL     1     -10.601  16.308  65.565  1.00  0.00    -0.369 A  
HETATM   18  C   UNL     1     -11.401  16.010  64.464  1.00  0.00    -0.303 A  
HETATM   19  C   UNL     1     -12.263  14.917  64.514  1.00  0.00    -0.396 A  
HETATM   20  C   UNL     1     -12.321  14.126  65.661  1.00  0.00    -0.456 A  
HETATM   21  F   UNL     1     -13.161  13.080  65.655  1.00  0.00    -0.363 F  
ENDBRANCH  13  15
ENDBRANCH   8  10
TORSDOF 2
ENDMDL
MODEL       39
REMARK 921   NORMALIZED FREE ENERGY PREDICTED BY IDOCK:   -6.47 KCAL/MOL
REMARK 922        TOTAL FREE ENERGY PREDICTED BY IDOCK:   -7.59 KCAL/MOL
REMARK 923 INTER-LIGAND FREE ENERGY PREDICTED BY IDOCK:   -7.27 KCAL/MOL
REMARK 924 INTRA-LIGAND FREE ENERGY PREDICTED BY IDOCK:   -0.32 KCAL/MOL
REMARK 927      BINDING AFFINITY PREDICTED BY RF-SCORE:    0.00 PKD
ROOT
HETATM    1  O   UNL     1      -9.171   7.279  71.387  1.00  0.00    -0.143 OA 
HETATM    2  C   UNL     1     -10.216   6.716  72.028  1.00  0.00    -0.188 C  
HETATM    3  C   UNL     1     -11.486   7.464  71.873  1.00  0.00    -0.300 A  
HETATM    4  O   UNL     1     -10.139   5.667  72.641  1.00  0.00    -0.175 OA 
HETATM    5  C   UNL     1     -12.688   6.752  71.818  1.00  0.00    -0.342 A  
HETATM    6  C   UNL     1     -13.896   7.434  71.659  1.00  0.00    -0.490 A  
HETATM    7  C   UNL     1     -13.904   8.828  71.548  1.00  0.00    -0.391 A  
HETATM    8  C   UNL     1     -12.706   9.552  71.611  1.00  0.00    -0.478 A  
HETATM    9  C   UNL     1     -11.500   8.859  71.802  1.00  0.00    -0.423 A  
ENDROOT
BRANCH   8  10
HETATM   10  C   UNL     1     -12.667  11.000  71.439  1.00  0.00    -0.429 A  
HETATM   11  N   UNL     1     -13.328  11.881  72.204  1.00  0.00    -0.420 NA 
HETATM   12  O   UNL     1     -13.054  13.109  71.598  1.00  0.00    -0.383 OA 
HETATM   13  C   UNL     1     -12.253  12.850  70.523  1.00  0.00    -0.314 A  
HETATM   14  N   UNL     1     -11.978  11.572  70.391  1.00  0.00    -0.367 NA 
BRANCH  13  15
HETATM   15  C   UNL     1     -11.849  13.964  69.678  1.00  0.00    -0.385 A  
HETATM   16  C   UNL     1     -11.356  15.138  70.275  1.00  0.00    -0.315 A  
HETATM   17  C   UNL     1     -10.939  16.221  69.495  1.00  0.00    -0.339 A  
HETATM   18  C   UNL     1     -11.007  16.145  68.105  1.00  0.00    -0.341 A  
HETATM   19  C   UNL     1     -11.492  14.989  67.500  1.00  0.00    -0.339 A  
HETATM   20  C   UNL     1     -11.907  13.913  68.284  1.00  0.00    -0.376 A  
HETATM   21  F   UNL     1     -12.359  12.819  67.652  1.00  0.00    -0.331 F  
ENDBRANCH  13  15
ENDBRANCH   8  10
TORSDOF 2
ENDMDL
MODEL       40
REMARK 921   NORMALIZED FREE ENERGY PREDICTED BY IDOCK:   -6.44 KCAL/MOL
REMARK 922        TOTAL FREE ENERGY PREDICTED BY IDOCK:   -7.56 KCAL/MOL
REMARK 923 INTER-LIGAND FREE ENERGY PREDICTED BY IDOCK:   -7.39 KCAL/MOL
REMARK 924 INTRA-LIGAND FREE ENERGY PREDICTED BY IDOCK:   -0.17 KCAL/MOL
REMARK 927      BINDING AFFINITY PREDICTED BY RF-SCORE:    0.00 PKD
ROOT
HETATM    1  O   UNL     1     -10.909  17.095  66.774  1.00  0.00    -0.152 OA 
HETATM    2  C   UNL     1     -11.003  16.540  65.548  1.00  0.00    -0.092 C  
HETATM    3  C   UNL     1     -11.282  15.085  65.570  1.00  0.00    -0.344 A  
HETATM    4  O   UNL     1     -10.912  17.178  64.515  1.00  0.00    -1.003 OA 
HETATM    5  C   UNL     1     -12.073  14.532  64.558  1.00  0.00    -0.501 A  
HETATM    6  C   UNL     1     -12.361  13.166  64.566  1.00  0.00    -0.447 A  
HETATM    7  C   UNL     1     -11.865  12.351  65.588  1.00  0.00    -0.468 A  
HETATM    8  C   UNL     1     -11.064  12.892  66.603  1.00  0.00    -0.316 A  
HETATM    9  C   UNL     1     -10.755  14.261  66.568  1.00  0.00    -0.297 A  
ENDROOT
BRANCH   8  10
HETATM   10  C   UNL     1     -10.579  12.088  67.718  1.00  0.00    -0.207 A  
HETATM   11  N   UNL     1      -9.292  11.782  67.939  1.00  0.00    -0.178 NA 
HETATM   12  O   UNL     1      -9.345  10.934  69.049  1.00  0.00    -0.188 OA 
HETATM   13  C   UNL     1     -10.662  10.810  69.389  1.00  0.00    -0.233 A  
HETATM   14  N   UNL     1     -11.456  11.509  68.610  1.00  0.00    -0.264 NA 
BRANCH  13  15
HETATM   15  C   UNL     1     -11.009   9.936  70.500  1.00  0.00    -0.391 A  
HETATM   16  C   UNL     1     -10.053   9.026  70.986  1.00  0.00    -0.352 A  
HETATM   17  C   UNL     1     -10.343   8.185  72.064  1.00  0.00    -0.320 A  
HETATM   18  C   UNL     1     -11.594   8.242  72.675  1.00  0.00    -0.419 A  
HETATM   19  C   UNL     1     -12.551   9.138  72.205  1.00  0.00    -0.451 A  
HETATM   20  C   UNL     1     -12.255   9.974  71.128  1.00  0.00    -0.380 A  
HETATM   21  F   UNL     1     -13.208  10.825  70.719  1.00  0.00    -0.386 F  
ENDBRANCH  13  15
ENDBRANCH   8  10
TORSDOF 2
ENDMDL
MODEL       41
REMARK 921   NORMALIZED FREE ENERGY PREDICTED BY IDOCK:   -6.39 KCAL/MOL
REMARK 922        TOTAL FREE ENERGY PREDICTED BY IDOCK:   -7.51 KCAL/MOL
REMARK 923 INTER-LIGAND FREE ENERGY PREDICTED BY IDOCK:   -7.33 KCAL/MOL
REMARK 924 INTRA-LIGAND FREE ENERGY PREDICTED BY IDOCK:   -0.18 KCAL/MOL
REMARK 927      BINDING AFFINITY PREDICTED BY RF-SCORE:    0.00 PKD
ROOT
HETATM    1  O   UNL     1     -10.652   6.718  74.032  1.00  0.00    -0.343 OA 
HETATM    2  C   UNL     1     -11.029   5.866  73.056  1.00  0.00    -0.268 C  
HETATM    3  C   UNL     1     -10.916   6.432  71.691  1.00  0.00    -0.302 A  
HETATM    4  O   UNL     1     -11.388   4.722  73.267  1.00  0.00    -0.319 OA 
HETATM    5  C   UNL     1     -10.570   5.586  70.634  1.00  0.00    -0.329 A  
HETATM    6  C   UNL     1     -10.443   6.099  69.342  1.00  0.00    -0.316 A  
HETATM    7  C   UNL     1     -10.658   7.461  69.105  1.00  0.00    -0.213 A  
HETATM    8  C   UNL     1     -11.015   8.317  70.155  1.00  0.00    -0.222 A  
HETATM    9  C   UNL     1     -11.169   7.784  71.445  1.00  0.00    -0.276 A  
ENDROOT
BRANCH   8  10
HETATM   10  C   UNL     1     -11.187   9.752  69.960  1.00  0.00    -0.251 A  
HETATM   11  N   UNL     1     -10.484  10.497  69.094  1.00  0.00    -0.214 NA 
HETATM   12  O   UNL     1     -10.939  11.795  69.338  1.00  0.00    -0.211 OA 
HETATM   13  C   UNL     1     -11.873  11.707  70.330  1.00  0.00    -0.326 A  
HETATM   14  N   UNL     1     -12.070  10.473  70.735  1.00  0.00    -0.337 NA 
BRANCH  13  15
HETATM   15  C   UNL     1     -12.484  12.936  70.814  1.00  0.00    -0.370 A  
HETATM   16  C   UNL     1     -12.198  14.151  70.166  1.00  0.00    -0.415 A  
HETATM   17  C   UNL     1     -12.782  15.348  70.590  1.00  0.00    -0.490 A  
HETATM   18  C   UNL     1     -13.664  15.349  71.669  1.00  0.00    -0.606 A  
HETATM   19  C   UNL     1     -13.957  14.154  72.321  1.00  0.00    -0.646 A  
HETATM   20  C   UNL     1     -13.371  12.963  71.893  1.00  0.00    -0.435 A  
HETATM   21  F   UNL     1     -13.693  11.838  72.549  1.00  0.00    -0.435 F  
ENDBRANCH  13  15
ENDBRANCH   8  10
TORSDOF 2
ENDMDL
MODEL       42
REMARK 921   NORMALIZED FREE ENERGY PREDICTED BY IDOCK:   -6.38 KCAL/MOL
REMARK 922        TOTAL FREE ENERGY PREDICTED BY IDOCK:   -7.50 KCAL/MOL
REMARK 923 INTER-LIGAND FREE ENERGY PREDICTED BY IDOCK:   -7.11 KCAL/MOL
REMARK 924 INTRA-LIGAND FREE ENERGY PREDICTED BY IDOCK:   -0.39 KCAL/MOL
REMARK 927      BINDING AFFINITY PREDICTED BY RF-SCORE:    0.00 PKD
ROOT
HETATM    1  O   UNL     1     -12.278  16.442  73.356  1.00  0.00    -0.499 OA 
HETATM    2  C   UNL     1     -13.071  15.828  72.453  1.00  0.00    -0.465 C  
HETATM    3  C   UNL     1     -12.339  15.292  71.281  1.00  0.00    -0.424 A  
HETATM    4  O   UNL     1     -14.271  15.686  72.602  1.00  0.00    -0.546 OA 
HETATM    5  C   UNL     1     -12.792  14.112  70.683  1.00  0.00    -0.356 A  
HETATM    6  C   UNL     1     -12.110  13.580  69.586  1.00  0.00    -0.365 A  
HETATM    7  C   UNL     1     -10.972  14.224  69.089  1.00  0.00    -0.286 A  
HETATM    8  C   UNL     1     -10.516  15.412  69.674  1.00  0.00    -0.286 A  
HETATM    9  C   UNL     1     -11.226  15.955  70.757  1.00  0.00    -0.398 A  
ENDROOT
BRANCH   8  10
HETATM   10  C   UNL     1      -9.300  16.079  69.224  1.00  0.00    -0.244 A  
HETATM   11  N   UNL     1      -8.054  15.636  69.448  1.00  0.00    -0.239 NA 
HETATM   12  O   UNL     1      -7.248  16.644  68.915  1.00  0.00    -0.194 OA 
HETATM   13  C   UNL     1      -8.088  17.601  68.421  1.00  0.00    -0.285 A  
HETATM   14  N   UNL     1      -9.355  17.294  68.575  1.00  0.00    -0.270 NA 
BRANCH  13  15
HETATM   15  C   UNL     1      -7.502  18.801  67.840  1.00  0.00    -0.262 A  
HETATM   16  C   UNL     1      -7.570  18.998  66.449  1.00  0.00    -0.279 A  
HETATM   17  C   UNL     1      -7.037  20.147  65.858  1.00  0.00    -0.312 A  
HETATM   18  C   UNL     1      -6.427  21.118  66.649  1.00  0.00    -0.349 A  
HETATM   19  C   UNL     1      -6.351  20.937  68.028  1.00  0.00    -0.381 A  
HETATM   20  C   UNL     1      -6.885  19.788  68.611  1.00  0.00    -0.322 A  
HETATM   21  F   UNL     1      -6.794  19.666  69.944  1.00  0.00    -0.352 F  
ENDBRANCH  13  15
ENDBRANCH   8  10
TORSDOF 2
ENDMDL
MODEL       43
REMARK 921   NORMALIZED FREE ENERGY PREDICTED BY IDOCK:   -6.38 KCAL/MOL
REMARK 922        TOTAL FREE ENERGY PREDICTED BY IDOCK:   -7.49 KCAL/MOL
REMARK 923 INTER-LIGAND FREE ENERGY PREDICTED BY IDOCK:   -7.27 KCAL/MOL
REMARK 924 INTRA-LIGAND FREE ENERGY PREDICTED BY IDOCK:   -0.22 KCAL/MOL
REMARK 927      BINDING AFFINITY PREDICTED BY RF-SCORE:    0.00 PKD
ROOT
HETATM    1  O   UNL     1      -9.372   7.446  70.916  1.00  0.00    -0.155 OA 
HETATM    2  C   UNL     1     -10.077   7.858  71.989  1.00  0.00    -0.202 C  
HETATM    3  C   UNL     1     -11.172   8.801  71.660  1.00  0.00    -0.394 A  
HETATM    4  O   UNL     1      -9.868   7.461  73.121  1.00  0.00    -0.203 OA 
HETATM    5  C   UNL     1     -12.349   8.760  72.413  1.00  0.00    -0.414 A  
HETATM    6  C   UNL     1     -13.400   9.629  72.112  1.00  0.00    -0.545 A  
HETATM    7  C   UNL     1     -13.278  10.537  71.054  1.00  0.00    -0.324 A  
HETATM    8  C   UNL     1     -12.099  10.592  70.299  1.00  0.00    -0.423 A  
HETATM    9  C   UNL     1     -11.037   9.735  70.630  1.00  0.00    -0.398 A  
ENDROOT
BRANCH   8  10
HETATM   10  C   UNL     1     -11.957  11.481  69.152  1.00  0.00    -0.320 A  
HETATM   11  N   UNL     1     -12.131  11.116  67.873  1.00  0.00    -0.516 NA 
HETATM   12  O   UNL     1     -11.798  12.268  67.157  1.00  0.00    -0.511 OA 
HETATM   13  C   UNL     1     -11.453  13.218  68.075  1.00  0.00    -0.309 A  
HETATM   14  N   UNL     1     -11.547  12.787  69.312  1.00  0.00    -0.300 NA 
BRANCH  13  15
HETATM   15  C   UNL     1     -11.015  14.519  67.590  1.00  0.00    -0.293 A  
HETATM   16  C   UNL     1     -10.444  14.622  66.309  1.00  0.00    -0.302 A  
HETATM   17  C   UNL     1     -10.031  15.858  65.803  1.00  0.00    -0.391 A  
HETATM   18  C   UNL     1     -10.183  17.011  66.570  1.00  0.00    -0.321 A  
HETATM   19  C   UNL     1     -10.747  16.925  67.840  1.00  0.00    -0.344 A  
HETATM   20  C   UNL     1     -11.157  15.689  68.340  1.00  0.00    -0.326 A  
HETATM   21  F   UNL     1     -11.702  15.662  69.565  1.00  0.00    -0.284 F  
ENDBRANCH  13  15
ENDBRANCH   8  10
TORSDOF 2
ENDMDL
MODEL       44
REMARK 921   NORMALIZED FREE ENERGY PREDICTED BY IDOCK:   -6.37 KCAL/MOL
REMARK 922        TOTAL FREE ENERGY PREDICTED BY IDOCK:   -7.48 KCAL/MOL
REMARK 923 INTER-LIGAND FREE ENERGY PREDICTED BY IDOCK:   -7.15 KCAL/MOL
REMARK 924 INTRA-LIGAND FREE ENERGY PREDICTED BY IDOCK:   -0.34 KCAL/MOL
REMARK 927      BINDING AFFINITY PREDICTED BY RF-SCORE:    0.00 PKD
ROOT
HETATM    1  O   UNL     1      -9.762  11.815  67.945  1.00  0.00    -0.175 OA 
HETATM    2  C   UNL     1     -10.970  11.697  67.355  1.00  0.00    -0.261 C  
HETATM    3  C   UNL     1     -11.263  12.767  66.373  1.00  0.00    -0.339 A  
HETATM    4  O   UNL     1     -11.734  10.774  67.572  1.00  0.00    -0.510 OA 
HETATM    5  C   UNL     1     -12.023  12.456  65.241  1.00  0.00    -0.461 A  
HETATM    6  C   UNL     1     -12.301  13.445  64.295  1.00  0.00    -0.396 A  
HETATM    7  C   UNL     1     -11.814  14.744  64.475  1.00  0.00    -0.428 A  
HETATM    8  C   UNL     1     -11.059  15.068  65.609  1.00  0.00    -0.349 A  
HETATM    9  C   UNL     1     -10.812  14.075  66.570  1.00  0.00    -0.300 A  
ENDROOT
BRANCH   8  10
HETATM   10  C   UNL     1     -10.483  16.394  65.802  1.00  0.00    -0.354 A  
HETATM   11  N   UNL     1     -10.829  17.488  65.108  1.00  0.00    -0.636 NA 
HETATM   12  O   UNL     1      -9.951  18.466  65.583  1.00  0.00    -0.477 OA 
HETATM   13  C   UNL     1      -9.159  17.865  66.519  1.00  0.00    -0.261 A  
HETATM   14  N   UNL     1      -9.455  16.598  66.698  1.00  0.00    -0.240 NA 
BRANCH  13  15
HETATM   15  C   UNL     1      -8.113  18.657  67.149  1.00  0.00    -0.253 A  
HETATM   16  C   UNL     1      -8.022  18.689  68.553  1.00  0.00    -0.365 A  
HETATM   17  C   UNL     1      -7.019  19.422  69.193  1.00  0.00    -0.390 A  
HETATM   18  C   UNL     1      -6.089  20.134  68.439  1.00  0.00    -0.314 A  
HETATM   19  C   UNL     1      -6.165  20.113  67.049  1.00  0.00    -0.213 A  
HETATM   20  C   UNL     1      -7.169  19.380  66.416  1.00  0.00    -0.241 A  
HETATM   21  F   UNL     1      -7.194  19.384  65.075  1.00  0.00    -0.184 F  
ENDBRANCH  13  15
ENDBRANCH   8  10
TORSDOF 2
ENDMDL
MODEL       45
REMARK 921   NORMALIZED FREE ENERGY PREDICTED BY IDOCK:   -6.35 KCAL/MOL
REMARK 922        TOTAL FREE ENERGY PREDICTED BY IDOCK:   -7.46 KCAL/MOL
REMARK 923 INTER-LIGAND FREE ENERGY PREDICTED BY IDOCK:   -7.09 KCAL/MOL
REMARK 924 INTRA-LIGAND FREE ENERGY PREDICTED BY IDOCK:   -0.37 KCAL/MOL
REMARK 927      BINDING AFFINITY PREDICTED BY RF-SCORE:    0.00 PKD
ROOT
HETATM    1  O   UNL     1     -11.042  19.928  66.992  1.00  0.00    -0.303 OA 
HETATM    2  C   UNL     1      -9.714  19.780  67.181  1.00  0.00    -0.376 C  
HETATM    3  C   UNL     1      -9.244  18.380  67.047  1.00  0.00    -0.274 A  
HETATM    4  O   UNL     1      -8.960  20.710  67.399  1.00  0.00    -0.344 OA 
HETATM    5  C   UNL     1      -7.973  18.143  66.515  1.00  0.00    -0.290 A  
HETATM    6  C   UNL     1      -7.513  16.832  66.365  1.00  0.00    -0.302 A  
HETATM    7  C   UNL     1      -8.325  15.758  66.742  1.00  0.00    -0.309 A  
HETATM    8  C   UNL     1      -9.597  15.985  67.284  1.00  0.00    -0.227 A  
HETATM    9  C   UNL     1     -10.037  17.307  67.459  1.00  0.00    -0.315 A  
ENDROOT
BRANCH   8  10
HETATM   10  C   UNL     1     -10.497  14.891  67.632  1.00  0.00    -0.249 A  
HETATM   11  N   UNL     1     -11.409  14.357  66.806  1.00  0.00    -0.340 NA 
HETATM   12  O   UNL     1     -12.071  13.427  67.610  1.00  0.00    -0.342 OA 
HETATM   13  C   UNL     1     -11.494  13.490  68.846  1.00  0.00    -0.306 A  
HETATM   14  N   UNL     1     -10.515  14.364  68.905  1.00  0.00    -0.245 NA 
BRANCH  13  15
HETATM   15  C   UNL     1     -12.030  12.644  69.903  1.00  0.00    -0.365 A  
HETATM   16  C   UNL     1     -11.952  11.246  69.773  1.00  0.00    -0.431 A  
HETATM   17  C   UNL     1     -12.437  10.402  70.776  1.00  0.00    -0.461 A  
HETATM   18  C   UNL     1     -13.007  10.944  71.926  1.00  0.00    -0.502 A  
HETATM   19  C   UNL     1     -13.091  12.326  72.069  1.00  0.00    -0.461 A  
HETATM   20  C   UNL     1     -12.606  13.163  71.064  1.00  0.00    -0.312 A  
HETATM   21  F   UNL     1     -12.702  14.487  71.254  1.00  0.00    -0.336 F  
ENDBRANCH  13  15
ENDBRANCH   8  10
TORSDOF 2
ENDMDL
MODEL       46
REMARK 921   NORMALIZED FREE ENERGY PREDICTED BY IDOCK:   -6.34 KCAL/MOL
REMARK 922        TOTAL FREE ENERGY PREDICTED BY IDOCK:   -7.45 KCAL/MOL
REMARK 923 INTER-LIGAND FREE ENERGY PREDICTED BY IDOCK:   -7.08 KCAL/MOL
REMARK 924 INTRA-LIGAND FREE ENERGY PREDICTED BY IDOCK:   -0.37 KCAL/MOL
REMARK 927      BINDING AFFINITY PREDICTED BY RF-SCORE:    0.00 PKD
ROOT
HETATM    1  O   UNL     1      -6.506  21.270  67.798  1.00  0.00    -0.375 OA 
HETATM    2  C   UNL     1      -6.020  20.680  68.910  1.00  0.00    -0.355 C  
HETATM    3  C   UNL     1      -6.366  19.243  69.024  1.00  0.00    -0.306 A  
HETATM    4  O   UNL     1      -5.324  21.257  69.725  1.00  0.00    -0.456 OA 
HETATM    5  C   UNL     1      -5.448  18.372  69.620  1.00  0.00    -0.209 A  
HETATM    6  C   UNL     1      -5.746  17.012  69.726  1.00  0.00    -0.213 A  
HETATM    7  C   UNL     1      -6.958  16.519  69.232  1.00  0.00    -0.227 A  
HETATM    8  C   UNL     1      -7.888  17.384  68.641  1.00  0.00    -0.274 A  
HETATM    9  C   UNL     1      -7.592  18.755  68.568  1.00  0.00    -0.357 A  
ENDROOT
BRANCH   8  10
HETATM   10  C   UNL     1      -9.135  16.900  68.060  1.00  0.00    -0.234 A  
HETATM   11  N   UNL     1     -10.356  17.354  68.378  1.00  0.00    -0.358 NA 
HETATM   12  O   UNL     1     -11.212  16.532  67.641  1.00  0.00    -0.197 OA 
HETATM   13  C   UNL     1     -10.422  15.658  66.950  1.00  0.00    -0.307 A  
HETATM   14  N   UNL     1      -9.140  15.853  67.164  1.00  0.00    -0.204 NA 
BRANCH  13  15
HETATM   15  C   UNL     1     -11.068  14.648  66.125  1.00  0.00    -0.334 A  
HETATM   16  C   UNL     1     -11.223  13.343  66.627  1.00  0.00    -0.330 A  
HETATM   17  C   UNL     1     -11.857  12.352  65.871  1.00  0.00    -0.467 A  
HETATM   18  C   UNL     1     -12.347  12.651  64.602  1.00  0.00    -0.546 A  
HETATM   19  C   UNL     1     -12.200  13.938  64.091  1.00  0.00    -0.436 A  
HETATM   20  C   UNL     1     -11.567  14.922  64.850  1.00  0.00    -0.395 A  
HETATM   21  F   UNL     1     -11.459  16.148  64.316  1.00  0.00    -0.500 F  
ENDBRANCH  13  15
ENDBRANCH   8  10
TORSDOF 2
ENDMDL
MODEL       47
REMARK 921   NORMALIZED FREE ENERGY PREDICTED BY IDOCK:   -6.32 KCAL/MOL
REMARK 922        TOTAL FREE ENERGY PREDICTED BY IDOCK:   -7.42 KCAL/MOL
REMARK 923 INTER-LIGAND FREE ENERGY PREDICTED BY IDOCK:   -7.03 KCAL/MOL
REMARK 924 INTRA-LIGAND FREE ENERGY PREDICTED BY IDOCK:   -0.39 KCAL/MOL
REMARK 927      BINDING AFFINITY PREDICTED BY RF-SCORE:    0.00 PKD
ROOT
HETATM    1  O   UNL     1     -14.285  13.450  72.760  1.00  0.00    -0.693 OA 
HETATM    2  C   UNL     1     -13.473  14.506  72.549  1.00  0.00    -0.483 C  
HETATM    3  C   UNL     1     -12.792  14.485  71.233  1.00  0.00    -0.402 A  
HETATM    4  O   UNL     1     -13.340  15.419  73.344  1.00  0.00    -0.466 OA 
HETATM    5  C   UNL     1     -12.540  15.696  70.582  1.00  0.00    -0.461 A  
HETATM    6  C   UNL     1     -11.913  15.701  69.334  1.00  0.00    -0.349 A  
HETATM    7  C   UNL     1     -11.542  14.494  68.732  1.00  0.00    -0.343 A  
HETATM    8  C   UNL     1     -11.783  13.274  69.379  1.00  0.00    -0.383 A  
HETATM    9  C   UNL     1     -12.386  13.283  70.647  1.00  0.00    -0.416 A  
ENDROOT
BRANCH   8  10
HETATM   10  C   UNL     1     -11.467  11.994  68.758  1.00  0.00    -0.300 A  
HETATM   11  N   UNL     1     -11.851  11.623  67.528  1.00  0.00    -0.624 NA 
HETATM   12  O   UNL     1     -11.395  10.307  67.427  1.00  0.00    -0.310 OA 
HETATM   13  C   UNL     1     -10.780  10.009  68.609  1.00  0.00    -0.226 A  
HETATM   14  N   UNL     1     -10.787  11.016  69.452  1.00  0.00    -0.238 NA 
BRANCH  13  15
HETATM   15  C   UNL     1     -10.245   8.668  68.791  1.00  0.00    -0.224 A  
HETATM   16  C   UNL     1      -9.152   8.249  68.011  1.00  0.00    -0.139 A  
HETATM   17  C   UNL     1      -8.599   6.975  68.172  1.00  0.00    -0.128 A  
HETATM   18  C   UNL     1      -9.130   6.100  69.117  1.00  0.00    -0.128 A  
HETATM   19  C   UNL     1     -10.213   6.500  69.897  1.00  0.00    -0.219 A  
HETATM   20  C   UNL     1     -10.760   7.772  69.731  1.00  0.00    -0.236 A  
HETATM   21  F   UNL     1     -11.796   8.112  70.512  1.00  0.00    -0.263 F  
ENDBRANCH  13  15
ENDBRANCH   8  10
TORSDOF 2
ENDMDL
MODEL       48
REMARK 921   NORMALIZED FREE ENERGY PREDICTED BY IDOCK:   -6.32 KCAL/MOL
REMARK 922        TOTAL FREE ENERGY PREDICTED BY IDOCK:   -7.42 KCAL/MOL
REMARK 923 INTER-LIGAND FREE ENERGY PREDICTED BY IDOCK:   -7.23 KCAL/MOL
REMARK 924 INTRA-LIGAND FREE ENERGY PREDICTED BY IDOCK:   -0.19 KCAL/MOL
REMARK 927      BINDING AFFINITY PREDICTED BY RF-SCORE:    0.00 PKD
ROOT
HETATM    1  O   UNL     1     -10.615   4.858  74.453  1.00  0.00    -0.281 OA 
HETATM    2  C   UNL     1     -10.729   4.334  73.215  1.00  0.00    -0.220 C  
HETATM    3  C   UNL     1     -10.936   5.348  72.154  1.00  0.00    -0.265 A  
HETATM    4  O   UNL     1     -10.627   3.144  72.979  1.00  0.00    -0.158 OA 
HETATM    5  C   UNL     1     -10.386   5.123  70.888  1.00  0.00    -0.282 A  
HETATM    6  C   UNL     1     -10.556   6.071  69.876  1.00  0.00    -0.345 A  
HETATM    7  C   UNL     1     -11.271   7.246  70.129  1.00  0.00    -0.264 A  
HETATM    8  C   UNL     1     -11.834   7.477  71.392  1.00  0.00    -0.321 A  
HETATM    9  C   UNL     1     -11.683   6.504  72.393  1.00  0.00    -0.271 A  
ENDROOT
BRANCH   8  10
HETATM   10  C   UNL     1     -12.533   8.716  71.712  1.00  0.00    -0.346 A  
HETATM   11  N   UNL     1     -13.736   8.787  72.299  1.00  0.00    -0.434 NA 
HETATM   12  O   UNL     1     -14.015  10.156  72.307  1.00  0.00    -0.094 OA 
HETATM   13  C   UNL     1     -12.950  10.779  71.722  1.00  0.00    -0.463 A  
HETATM   14  N   UNL     1     -12.010   9.939  71.352  1.00  0.00    -0.389 NA 
BRANCH  13  15
HETATM   15  C   UNL     1     -12.999  12.225  71.561  1.00  0.00    -0.390 A  
HETATM   16  C   UNL     1     -13.786  12.991  72.440  1.00  0.00    -0.593 A  
HETATM   17  C   UNL     1     -13.842  14.383  72.328  1.00  0.00    -0.589 A  
HETATM   18  C   UNL     1     -13.110  15.032  71.335  1.00  0.00    -0.464 A  
HETATM   19  C   UNL     1     -12.327  14.287  70.457  1.00  0.00    -0.430 A  
HETATM   20  C   UNL     1     -12.276  12.898  70.574  1.00  0.00    -0.314 A  
HETATM   21  F   UNL     1     -11.500  12.228  69.709  1.00  0.00    -0.319 F  
ENDBRANCH  13  15
ENDBRANCH   8  10
TORSDOF 2
ENDMDL
MODEL       49
REMARK 921   NORMALIZED FREE ENERGY PREDICTED BY IDOCK:   -6.31 KCAL/MOL
REMARK 922        TOTAL FREE ENERGY PREDICTED BY IDOCK:   -7.42 KCAL/MOL
REMARK 923 INTER-LIGAND FREE ENERGY PREDICTED BY IDOCK:   -7.26 KCAL/MOL
REMARK 924 INTRA-LIGAND FREE ENERGY PREDICTED BY IDOCK:   -0.16 KCAL/MOL
REMARK 927      BINDING AFFINITY PREDICTED BY RF-SCORE:    0.00 PKD
ROOT
HETATM    1  O   UNL     1     -10.133  19.586  68.963  1.00  0.00    -0.442 OA 
HETATM    2  C   UNL     1      -9.525  19.062  67.879  1.00  0.00    -0.310 C  
HETATM    3  C   UNL     1     -10.017  17.714  67.510  1.00  0.00    -0.322 A  
HETATM    4  O   UNL     1      -8.681  19.655  67.231  1.00  0.00    -0.292 OA 
HETATM    5  C   UNL     1     -10.067  17.358  66.159  1.00  0.00    -0.309 A  
HETATM    6  C   UNL     1     -10.540  16.098  65.787  1.00  0.00    -0.347 A  
HETATM    7  C   UNL     1     -10.970  15.194  66.764  1.00  0.00    -0.321 A  
HETATM    8  C   UNL     1     -10.917  15.537  68.121  1.00  0.00    -0.312 A  
HETATM    9  C   UNL     1     -10.410  16.794  68.486  1.00  0.00    -0.316 A  
ENDROOT
BRANCH   8  10
HETATM   10  C   UNL     1     -11.412  14.647  69.164  1.00  0.00    -0.294 A  
HETATM   11  N   UNL     1     -11.802  15.040  70.386  1.00  0.00    -0.276 NA 
HETATM   12  O   UNL     1     -12.096  13.839  71.036  1.00  0.00    -0.340 OA 
HETATM   13  C   UNL     1     -11.854  12.835  70.142  1.00  0.00    -0.251 A  
HETATM   14  N   UNL     1     -11.445  13.282  68.976  1.00  0.00    -0.283 NA 
BRANCH  13  15
HETATM   15  C   UNL     1     -12.040  11.460  70.580  1.00  0.00    -0.469 A  
HETATM   16  C   UNL     1     -11.206  10.452  70.063  1.00  0.00    -0.385 A  
HETATM   17  C   UNL     1     -11.342   9.123  70.477  1.00  0.00    -0.300 A  
HETATM   18  C   UNL     1     -12.313   8.782  71.415  1.00  0.00    -0.353 A  
HETATM   19  C   UNL     1     -13.146   9.769  71.936  1.00  0.00    -0.544 A  
HETATM   20  C   UNL     1     -13.006  11.092  71.519  1.00  0.00    -0.437 A  
HETATM   21  F   UNL     1     -13.827  12.006  72.058  1.00  0.00    -0.357 F  
ENDBRANCH  13  15
ENDBRANCH   8  10
TORSDOF 2
ENDMDL
MODEL       50
REMARK 921   NORMALIZED FREE ENERGY PREDICTED BY IDOCK:   -6.23 KCAL/MOL
REMARK 922        TOTAL FREE ENERGY PREDICTED BY IDOCK:   -7.32 KCAL/MOL
REMARK 923 INTER-LIGAND FREE ENERGY PREDICTED BY IDOCK:   -6.97 KCAL/MOL
REMARK 924 INTRA-LIGAND FREE ENERGY PREDICTED BY IDOCK:   -0.35 KCAL/MOL
REMARK 927      BINDING AFFINITY PREDICTED BY RF-SCORE:    0.00 PKD
ROOT
HETATM    1  O   UNL     1     -14.236  13.408  72.692  1.00  0.00    -0.747 OA 
HETATM    2  C   UNL     1     -13.258  14.334  72.758  1.00  0.00    -0.522 C  
HETATM    3  C   UNL     1     -12.495  14.490  71.496  1.00  0.00    -0.424 A  
HETATM    4  O   UNL     1     -13.043  15.013  73.745  1.00  0.00    -0.478 OA 
HETATM    5  C   UNL     1     -12.013  15.755  71.150  1.00  0.00    -0.469 A  
HETATM    6  C   UNL     1     -11.304  15.930  69.959  1.00  0.00    -0.358 A  
HETATM    7  C   UNL     1     -11.082  14.841  69.110  1.00  0.00    -0.278 A  
HETATM    8  C   UNL     1     -11.554  13.567  69.451  1.00  0.00    -0.369 A  
HETATM    9  C   UNL     1     -12.238  13.396  70.665  1.00  0.00    -0.427 A  
ENDROOT
BRANCH   8  10
HETATM   10  C   UNL     1     -11.396  12.420  68.564  1.00  0.00    -0.293 A  
HETATM   11  N   UNL     1     -11.930  12.321  67.338  1.00  0.00    -0.544 NA 
HETATM   12  O   UNL     1     -11.583  11.029  66.935  1.00  0.00    -0.378 OA 
HETATM   13  C   UNL     1     -10.873  10.472  67.961  1.00  0.00    -0.263 A  
HETATM   14  N   UNL     1     -10.721  11.291  68.977  1.00  0.00    -0.214 NA 
BRANCH  13  15
HETATM   15  C   UNL     1     -10.421   9.096  67.820  1.00  0.00    -0.306 A  
HETATM   16  C   UNL     1     -10.873   8.125  68.731  1.00  0.00     0.025 A  
HETATM   17  C   UNL     1     -10.476   6.789  68.615  1.00  0.00    -0.232 A  
HETATM   18  C   UNL     1      -9.621   6.404  67.585  1.00  0.00    -0.126 A  
HETATM   19  C   UNL     1      -9.165   7.354  66.675  1.00  0.00    -0.196 A  
HETATM   20  C   UNL     1      -9.564   8.685  66.796  1.00  0.00    -0.207 A  
HETATM   21  F   UNL     1      -9.104   9.559  65.889  1.00  0.00    -0.162 F  
ENDBRANCH  13  15
ENDBRANCH   8  10
TORSDOF 2
ENDMDL
MODEL       51
REMARK 921   NORMALIZED FREE ENERGY PREDICTED BY IDOCK:   -6.22 KCAL/MOL
REMARK 922        TOTAL FREE ENERGY PREDICTED BY IDOCK:   -7.32 KCAL/MOL
REMARK 923 INTER-LIGAND FREE ENERGY PREDICTED BY IDOCK:   -6.93 KCAL/MOL
REMARK 924 INTRA-LIGAND FREE ENERGY PREDICTED BY IDOCK:   -0.39 KCAL/MOL
REMARK 927      BINDING AFFINITY PREDICTED BY RF-SCORE:    0.00 PKD
ROOT
HETATM    1  O   UNL     1     -12.115  12.486  71.071  1.00  0.00    -0.219 OA 
HETATM    2  C   UNL     1     -12.320  11.390  70.310  1.00  0.00    -0.297 C  
HETATM    3  C   UNL     1     -11.684  11.462  68.973  1.00  0.00    -0.409 A  
HETATM    4  O   UNL     1     -12.933  10.412  70.696  1.00  0.00    -0.368 OA 
HETATM    5  C   UNL     1     -11.188  10.289  68.396  1.00  0.00    -0.284 A  
HETATM    6  C   UNL     1     -10.572  10.334  67.144  1.00  0.00    -0.320 A  
HETATM    7  C   UNL     1     -10.444  11.553  66.469  1.00  0.00    -0.284 A  
HETATM    8  C   UNL     1     -10.945  12.733  67.035  1.00  0.00    -0.295 A  
HETATM    9  C   UNL     1     -11.590  12.672  68.280  1.00  0.00    -0.377 A  
ENDROOT
BRANCH   8  10
HETATM   10  C   UNL     1     -10.777  14.031  66.391  1.00  0.00    -0.278 A  
HETATM   11  N   UNL     1     -11.124  14.310  65.126  1.00  0.00    -0.333 NA 
HETATM   12  O   UNL     1     -10.688  15.626  64.951  1.00  0.00    -0.434 OA 
HETATM   13  C   UNL     1     -10.119  16.014  66.130  1.00  0.00    -0.327 A  
HETATM   14  N   UNL     1     -10.161  15.075  67.048  1.00  0.00    -0.241 NA 
BRANCH  13  15
HETATM   15  C   UNL     1      -9.536  17.345  66.210  1.00  0.00    -0.260 A  
HETATM   16  C   UNL     1     -10.381  18.469  66.211  1.00  0.00    -0.459 A  
HETATM   17  C   UNL     1      -9.859  19.762  66.307  1.00  0.00    -0.557 A  
HETATM   18  C   UNL     1      -8.482  19.951  66.405  1.00  0.00    -0.379 A  
HETATM   19  C   UNL     1      -7.632  18.848  66.406  1.00  0.00    -0.281 A  
HETATM   20  C   UNL     1      -8.160  17.561  66.309  1.00  0.00    -0.254 A  
HETATM   21  F   UNL     1      -7.300  16.532  66.324  1.00  0.00    -0.276 F  
ENDBRANCH  13  15
ENDBRANCH   8  10
TORSDOF 2
ENDMDL
MODEL       52
REMARK 921   NORMALIZED FREE ENERGY PREDICTED BY IDOCK:   -6.19 KCAL/MOL
REMARK 922        TOTAL FREE ENERGY PREDICTED BY IDOCK:   -7.28 KCAL/MOL
REMARK 923 INTER-LIGAND FREE ENERGY PREDICTED BY IDOCK:   -7.03 KCAL/MOL
REMARK 924 INTRA-LIGAND FREE ENERGY PREDICTED BY IDOCK:   -0.25 KCAL/MOL
REMARK 927      BINDING AFFINITY PREDICTED BY RF-SCORE:    0.00 PKD
ROOT
HETATM    1  O   UNL     1     -11.059   6.083  68.114  1.00  0.00    -0.306 OA 
HETATM    2  C   UNL     1     -10.425   5.716  69.246  1.00  0.00    -0.286 C  
HETATM    3  C   UNL     1     -10.819   6.507  70.436  1.00  0.00    -0.326 A  
HETATM    4  O   UNL     1      -9.634   4.791  69.302  1.00  0.00    -0.142 OA 
HETATM    5  C   UNL     1     -10.855   5.878  71.684  1.00  0.00    -0.321 A  
HETATM    6  C   UNL     1     -11.236   6.600  72.818  1.00  0.00    -0.263 A  
HETATM    7  C   UNL     1     -11.588   7.949  72.704  1.00  0.00    -0.435 A  
HETATM    8  C   UNL     1     -11.547   8.591  71.459  1.00  0.00    -0.352 A  
HETATM    9  C   UNL     1     -11.132   7.864  70.332  1.00  0.00    -0.249 A  
ENDROOT
BRANCH   8  10
HETATM   10  C   UNL     1     -11.964   9.978  71.290  1.00  0.00    -0.394 A  
HETATM   11  N   UNL     1     -13.000  10.549  71.922  1.00  0.00    -0.466 NA 
HETATM   12  O   UNL     1     -13.052  11.831  71.369  1.00  0.00    -0.364 OA 
HETATM   13  C   UNL     1     -12.041  11.908  70.454  1.00  0.00    -0.333 A  
HETATM   14  N   UNL     1     -11.338  10.801  70.380  1.00  0.00    -0.293 NA 
BRANCH  13  15
HETATM   15  C   UNL     1     -11.894  13.139  69.690  1.00  0.00    -0.390 A  
HETATM   16  C   UNL     1     -11.602  13.067  68.317  1.00  0.00    -0.375 A  
HETATM   17  C   UNL     1     -11.474  14.227  67.547  1.00  0.00    -0.368 A  
HETATM   18  C   UNL     1     -11.637  15.477  68.139  1.00  0.00    -0.313 A  
HETATM   19  C   UNL     1     -11.927  15.564  69.498  1.00  0.00    -0.372 A  
HETATM   20  C   UNL     1     -12.052  14.403  70.261  1.00  0.00    -0.331 A  
HETATM   21  F   UNL     1     -12.341  14.541  71.563  1.00  0.00    -0.354 F  
ENDBRANCH  13  15
ENDBRANCH   8  10
TORSDOF 2
ENDMDL
MODEL       53
REMARK 921   NORMALIZED FREE ENERGY PREDICTED BY IDOCK:   -6.15 KCAL/MOL
REMARK 922        TOTAL FREE ENERGY PREDICTED BY IDOCK:   -7.24 KCAL/MOL
REMARK 923 INTER-LIGAND FREE ENERGY PREDICTED BY IDOCK:   -6.87 KCAL/MOL
REMARK 924 INTRA-LIGAND FREE ENERGY PREDICTED BY IDOCK:   -0.38 KCAL/MOL
REMARK 927      BINDING AFFINITY PREDICTED BY RF-SCORE:    0.00 PKD
ROOT
HETATM    1  O   UNL     1     -13.882  14.520  72.979  1.00  0.00    -0.539 OA 
HETATM    2  C   UNL     1     -12.982  14.937  72.064  1.00  0.00    -0.333 C  
HETATM    3  C   UNL     1     -12.616  13.901  71.069  1.00  0.00    -0.444 A  
HETATM    4  O   UNL     1     -12.541  16.072  72.026  1.00  0.00    -0.453 OA 
HETATM    5  C   UNL     1     -12.328  14.294  69.759  1.00  0.00    -0.342 A  
HETATM    6  C   UNL     1     -11.994  13.334  68.801  1.00  0.00    -0.335 A  
HETATM    7  C   UNL     1     -11.954  11.980  69.149  1.00  0.00    -0.326 A  
HETATM    8  C   UNL     1     -12.232  11.577  70.462  1.00  0.00    -0.469 A  
HETATM    9  C   UNL     1     -12.536  12.552  71.425  1.00  0.00    -0.297 A  
ENDROOT
BRANCH   8  10
HETATM   10  C   UNL     1     -12.261  10.171  70.850  1.00  0.00    -0.356 A  
HETATM   11  N   UNL     1     -13.211   9.604  71.607  1.00  0.00    -0.386 NA 
HETATM   12  O   UNL     1     -12.756   8.294  71.775  1.00  0.00    -0.314 OA 
HETATM   13  C   UNL     1     -11.572   8.198  71.101  1.00  0.00    -0.279 A  
HETATM   14  N   UNL     1     -11.233   9.319  70.506  1.00  0.00    -0.255 NA 
BRANCH  13  15
HETATM   15  C   UNL     1     -10.851   6.934  71.148  1.00  0.00    -0.270 A  
HETATM   16  C   UNL     1     -10.950   6.042  70.065  1.00  0.00    -0.450 A  
HETATM   17  C   UNL     1     -10.256   4.829  70.066  1.00  0.00    -0.251 A  
HETATM   18  C   UNL     1      -9.451   4.488  71.150  1.00  0.00    -0.226 A  
HETATM   19  C   UNL     1      -9.342   5.361  72.230  1.00  0.00    -0.158 A  
HETATM   20  C   UNL     1     -10.038   6.570  72.223  1.00  0.00    -0.175 A  
HETATM   21  F   UNL     1      -9.893   7.379  73.283  1.00  0.00    -0.208 F  
ENDBRANCH  13  15
ENDBRANCH   8  10
TORSDOF 2
ENDMDL
MODEL       54
REMARK 921   NORMALIZED FREE ENERGY PREDICTED BY IDOCK:   -6.14 KCAL/MOL
REMARK 922        TOTAL FREE ENERGY PREDICTED BY IDOCK:   -7.23 KCAL/MOL
REMARK 923 INTER-LIGAND FREE ENERGY PREDICTED BY IDOCK:   -6.85 KCAL/MOL
REMARK 924 INTRA-LIGAND FREE ENERGY PREDICTED BY IDOCK:   -0.38 KCAL/MOL
REMARK 927      BINDING AFFINITY PREDICTED BY RF-SCORE:    0.00 PKD
ROOT
HETATM    1  O   UNL     1     -10.472   5.257  68.853  1.00  0.00    -0.193 OA 
HETATM    2  C   UNL     1     -10.592   5.543  70.165  1.00  0.00    -0.297 C  
HETATM    3  C   UNL     1     -11.051   6.926  70.436  1.00  0.00    -0.341 A  
HETATM    4  O   UNL     1     -10.386   4.732  71.050  1.00  0.00    -0.199 OA 
HETATM    5  C   UNL     1     -11.868   7.162  71.546  1.00  0.00    -0.348 A  
HETATM    6  C   UNL     1     -12.325   8.454  71.814  1.00  0.00    -0.375 A  
HETATM    7  C   UNL     1     -11.971   9.512  70.969  1.00  0.00    -0.407 A  
HETATM    8  C   UNL     1     -11.145   9.288  69.860  1.00  0.00    -0.200 A  
HETATM    9  C   UNL     1     -10.666   7.991  69.617  1.00  0.00    -0.207 A  
ENDROOT
BRANCH   8  10
HETATM   10  C   UNL     1     -10.804  10.352  68.923  1.00  0.00    -0.236 A  
HETATM   11  N   UNL     1      -9.787  11.212  69.077  1.00  0.00    -0.161 NA 
HETATM   12  O   UNL     1      -9.926  12.079  67.991  1.00  0.00    -0.185 OA 
HETATM   13  C   UNL     1     -11.016  11.657  67.285  1.00  0.00    -0.267 A  
HETATM   14  N   UNL     1     -11.580  10.593  67.810  1.00  0.00    -0.476 NA 
BRANCH  13  15
HETATM   15  C   UNL     1     -11.416  12.420  66.112  1.00  0.00    -0.430 A  
HETATM   16  C   UNL     1     -11.082  11.944  64.832  1.00  0.00    -0.363 A  
HETATM   17  C   UNL     1     -11.468  12.640  63.682  1.00  0.00    -0.563 A  
HETATM   18  C   UNL     1     -12.195  13.822  63.795  1.00  0.00    -0.364 A  
HETATM   19  C   UNL     1     -12.534  14.306  65.056  1.00  0.00    -0.409 A  
HETATM   20  C   UNL     1     -12.146  13.608  66.199  1.00  0.00    -0.436 A  
HETATM   21  F   UNL     1     -12.505  14.112  67.389  1.00  0.00    -0.393 F  
ENDBRANCH  13  15
ENDBRANCH   8  10
TORSDOF 2
ENDMDL
MODEL       55
REMARK 921   NORMALIZED FREE ENERGY PREDICTED BY IDOCK:   -6.13 KCAL/MOL
REMARK 922        TOTAL FREE ENERGY PREDICTED BY IDOCK:   -7.22 KCAL/MOL
REMARK 923 INTER-LIGAND FREE ENERGY PREDICTED BY IDOCK:   -6.97 KCAL/MOL
REMARK 924 INTRA-LIGAND FREE ENERGY PREDICTED BY IDOCK:   -0.24 KCAL/MOL
REMARK 927      BINDING AFFINITY PREDICTED BY RF-SCORE:    0.00 PKD
ROOT
HETATM    1  O   UNL     1      -7.022  20.278  70.972  1.00  0.00    -0.136 OA 
HETATM    2  C   UNL     1      -6.282  20.439  69.856  1.00  0.00    -0.266 C  
HETATM    3  C   UNL     1      -6.989  20.060  68.609  1.00  0.00    -0.319 A  
HETATM    4  O   UNL     1      -5.152  20.894  69.860  1.00  0.00    -0.322 OA 
HETATM    5  C   UNL     1      -6.720  20.772  67.436  1.00  0.00    -0.400 A  
HETATM    6  C   UNL     1      -7.384  20.443  66.253  1.00  0.00    -0.247 A  
HETATM    7  C   UNL     1      -8.322  19.405  66.241  1.00  0.00    -0.346 A  
HETATM    8  C   UNL     1      -8.592  18.679  67.408  1.00  0.00    -0.281 A  
HETATM    9  C   UNL     1      -7.896  18.998  68.585  1.00  0.00    -0.383 A  
ENDROOT
BRANCH   8  10
HETATM   10  C   UNL     1      -9.605  17.631  67.450  1.00  0.00    -0.267 A  
HETATM   11  N   UNL     1     -10.361  17.338  68.519  1.00  0.00    -0.349 NA 
HETATM   12  O   UNL     1     -11.096  16.225  68.104  1.00  0.00    -0.346 OA 
HETATM   13  C   UNL     1     -10.710  15.953  66.822  1.00  0.00    -0.281 A  
HETATM   14  N   UNL     1      -9.808  16.796  66.373  1.00  0.00    -0.281 NA 
BRANCH  13  15
HETATM   15  C   UNL     1     -11.297  14.800  66.155  1.00  0.00    -0.330 A  
HETATM   16  C   UNL     1     -11.715  14.916  64.817  1.00  0.00    -0.402 A  
HETATM   17  C   UNL     1     -12.264  13.824  64.138  1.00  0.00    -0.443 A  
HETATM   18  C   UNL     1     -12.402  12.599  64.786  1.00  0.00    -0.556 A  
HETATM   19  C   UNL     1     -11.992  12.468  66.110  1.00  0.00    -0.432 A  
HETATM   20  C   UNL     1     -11.446  13.561  66.782  1.00  0.00    -0.346 A  
HETATM   21  F   UNL     1     -11.059  13.381  68.054  1.00  0.00    -0.242 F  
ENDBRANCH  13  15
ENDBRANCH   8  10
TORSDOF 2
ENDMDL
MODEL       56
REMARK 921   NORMALIZED FREE ENERGY PREDICTED BY IDOCK:   -6.13 KCAL/MOL
REMARK 922        TOTAL FREE ENERGY PREDICTED BY IDOCK:   -7.22 KCAL/MOL
REMARK 923 INTER-LIGAND FREE ENERGY PREDICTED BY IDOCK:   -6.97 KCAL/MOL
REMARK 924 INTRA-LIGAND FREE ENERGY PREDICTED BY IDOCK:   -0.25 KCAL/MOL
REMARK 927      BINDING AFFINITY PREDICTED BY RF-SCORE:    0.00 PKD
ROOT
HETATM    1  O   UNL     1     -10.195   7.159  67.494  1.00  0.00    -0.175 OA 
HETATM    2  C   UNL     1      -9.615   6.479  68.504  1.00  0.00    -0.123 C  
HETATM    3  C   UNL     1     -10.320   6.618  69.801  1.00  0.00    -0.226 A  
HETATM    4  O   UNL     1      -8.630   5.779  68.362  1.00  0.00    -0.112 OA 
HETATM    5  C   UNL     1     -10.332   5.534  70.683  1.00  0.00    -0.332 A  
HETATM    6  C   UNL     1     -11.002   5.636  71.904  1.00  0.00    -0.297 A  
HETATM    7  C   UNL     1     -11.665   6.820  72.243  1.00  0.00    -0.300 A  
HETATM    8  C   UNL     1     -11.651   7.916  71.370  1.00  0.00    -0.304 A  
HETATM    9  C   UNL     1     -10.949   7.813  70.159  1.00  0.00    -0.246 A  
ENDROOT
BRANCH   8  10
HETATM   10  C   UNL     1     -12.381   9.145  71.660  1.00  0.00    -0.360 A  
HETATM   11  N   UNL     1     -13.607   9.199  72.200  1.00  0.00    -0.444 NA 
HETATM   12  O   UNL     1     -13.906  10.564  72.194  1.00  0.00    -0.094 OA 
HETATM   13  C   UNL     1     -12.829  11.202  71.648  1.00  0.00    -0.419 A  
HETATM   14  N   UNL     1     -11.863  10.375  71.317  1.00  0.00    -0.332 NA 
BRANCH  13  15
HETATM   15  C   UNL     1     -12.894  12.646  71.480  1.00  0.00    -0.368 A  
HETATM   16  C   UNL     1     -13.679  13.409  72.364  1.00  0.00    -0.698 A  
HETATM   17  C   UNL     1     -13.750  14.800  72.246  1.00  0.00    -0.560 A  
HETATM   18  C   UNL     1     -13.035  15.451  71.243  1.00  0.00    -0.541 A  
HETATM   19  C   UNL     1     -12.253  14.709  70.360  1.00  0.00    -0.391 A  
HETATM   20  C   UNL     1     -12.188  13.322  70.482  1.00  0.00    -0.340 A  
HETATM   21  F   UNL     1     -11.414  12.655  69.613  1.00  0.00    -0.308 F  
ENDBRANCH  13  15
ENDBRANCH   8  10
TORSDOF 2
ENDMDL
MODEL       57
REMARK 921   NORMALIZED FREE ENERGY PREDICTED BY IDOCK:   -6.13 KCAL/MOL
REMARK 922        TOTAL FREE ENERGY PREDICTED BY IDOCK:   -7.21 KCAL/MOL
REMARK 923 INTER-LIGAND FREE ENERGY PREDICTED BY IDOCK:   -6.83 KCAL/MOL
REMARK 924 INTRA-LIGAND FREE ENERGY PREDICTED BY IDOCK:   -0.38 KCAL/MOL
REMARK 927      BINDING AFFINITY PREDICTED BY RF-SCORE:    0.00 PKD
ROOT
HETATM    1  O   UNL     1     -10.265  11.117  64.576  1.00  0.00    -0.275 OA 
HETATM    2  C   UNL     1      -9.996  10.350  65.653  1.00  0.00    -0.272 C  
HETATM    3  C   UNL     1     -10.513  10.905  66.926  1.00  0.00    -0.299 A  
HETATM    4  O   UNL     1      -9.421   9.278  65.586  1.00  0.00    -0.242 OA 
HETATM    5  C   UNL     1     -10.958  10.024  67.916  1.00  0.00    -0.311 A  
HETATM    6  C   UNL     1     -11.463  10.523  69.119  1.00  0.00    -0.314 A  
HETATM    7  C   UNL     1     -11.528  11.904  69.332  1.00  0.00    -0.366 A  
HETATM    8  C   UNL     1     -11.076  12.796  68.350  1.00  0.00    -0.293 A  
HETATM    9  C   UNL     1     -10.542  12.282  67.157  1.00  0.00    -0.250 A  
ENDROOT
BRANCH   8  10
HETATM   10  C   UNL     1     -11.184  14.242  68.509  1.00  0.00    -0.266 A  
HETATM   11  N   UNL     1     -12.018  14.859  69.358  1.00  0.00    -0.308 NA 
HETATM   12  O   UNL     1     -11.822  16.214  69.080  1.00  0.00    -0.327 OA 
HETATM   13  C   UNL     1     -10.887  16.282  68.087  1.00  0.00    -0.342 A  
HETATM   14  N   UNL     1     -10.456  15.099  67.713  1.00  0.00    -0.244 NA 
BRANCH  13  15
HETATM   15  C   UNL     1     -10.524  17.594  67.570  1.00  0.00    -0.365 A  
HETATM   16  C   UNL     1     -10.060  18.581  68.458  1.00  0.00    -0.414 A  
HETATM   17  C   UNL     1      -9.683  19.845  67.995  1.00  0.00    -0.510 A  
HETATM   18  C   UNL     1      -9.762  20.141  66.636  1.00  0.00    -0.568 A  
HETATM   19  C   UNL     1     -10.219  19.174  65.745  1.00  0.00    -0.270 A  
HETATM   20  C   UNL     1     -10.595  17.915  66.213  1.00  0.00    -0.240 A  
HETATM   21  F   UNL     1     -11.020  17.016  65.313  1.00  0.00    -0.355 F  
ENDBRANCH  13  15
ENDBRANCH   8  10
TORSDOF 2
ENDMDL
MODEL       58
REMARK 921   NORMALIZED FREE ENERGY PREDICTED BY IDOCK:   -6.09 KCAL/MOL
REMARK 922        TOTAL FREE ENERGY PREDICTED BY IDOCK:   -7.17 KCAL/MOL
REMARK 923 INTER-LIGAND FREE ENERGY PREDICTED BY IDOCK:   -6.88 KCAL/MOL
REMARK 924 INTRA-LIGAND FREE ENERGY PREDICTED BY IDOCK:   -0.30 KCAL/MOL
REMARK 927      BINDING AFFINITY PREDICTED BY RF-SCORE:    0.00 PKD
ROOT
HETATM    1  O   UNL     1     -14.402  13.137  72.458  1.00  0.00    -0.613 OA 
HETATM    2  C   UNL     1     -13.513  14.143  72.589  1.00  0.00    -0.534 C  
HETATM    3  C   UNL     1     -12.733  14.416  71.358  1.00  0.00    -0.413 A  
HETATM    4  O   UNL     1     -13.388  14.800  73.606  1.00  0.00    -0.390 OA 
HETATM    5  C   UNL     1     -12.356  15.731  71.074  1.00  0.00    -0.465 A  
HETATM    6  C   UNL     1     -11.633  16.015  69.913  1.00  0.00    -0.301 A  
HETATM    7  C   UNL     1     -11.292  14.984  69.031  1.00  0.00    -0.306 A  
HETATM    8  C   UNL     1     -11.657  13.660  69.311  1.00  0.00    -0.363 A  
HETATM    9  C   UNL     1     -12.356  13.382  70.496  1.00  0.00    -0.401 A  
ENDROOT
BRANCH   8  10
HETATM   10  C   UNL     1     -11.372  12.568  68.388  1.00  0.00    -0.291 A  
HETATM   11  N   UNL     1     -12.083  11.434  68.300  1.00  0.00    -0.608 NA 
HETATM   12  O   UNL     1     -11.378  10.679  67.360  1.00  0.00    -0.401 OA 
HETATM   13  C   UNL     1     -10.307  11.432  66.971  1.00  0.00    -0.223 A  
HETATM   14  N   UNL     1     -10.268  12.603  67.565  1.00  0.00    -0.213 NA 
BRANCH  13  15
HETATM   15  C   UNL     1      -9.370  10.858  66.017  1.00  0.00    -0.215 A  
HETATM   16  C   UNL     1      -9.863  10.190  64.882  1.00  0.00    -0.390 A  
HETATM   17  C   UNL     1      -8.993   9.644  63.934  1.00  0.00    -0.254 A  
HETATM   18  C   UNL     1      -7.615   9.760  64.105  1.00  0.00    -0.134 A  
HETATM   19  C   UNL     1      -7.111  10.419  65.223  1.00  0.00    -0.098 A  
HETATM   20  C   UNL     1      -7.985  10.961  66.166  1.00  0.00    -0.155 A  
HETATM   21  F   UNL     1      -7.450  11.593  67.221  1.00  0.00    -0.109 F  
ENDBRANCH  13  15
ENDBRANCH   8  10
TORSDOF 2
ENDMDL
MODEL       59
REMARK 921   NORMALIZED FREE ENERGY PREDICTED BY IDOCK:   -6.08 KCAL/MOL
REMARK 922        TOTAL FREE ENERGY PREDICTED BY IDOCK:   -7.15 KCAL/MOL
REMARK 923 INTER-LIGAND FREE ENERGY PREDICTED BY IDOCK:   -6.77 KCAL/MOL
REMARK 924 INTRA-LIGAND FREE ENERGY PREDICTED BY IDOCK:   -0.39 KCAL/MOL
REMARK 927      BINDING AFFINITY PREDICTED BY RF-SCORE:    0.00 PKD
ROOT
HETATM    1  O   UNL     1      -7.976   8.537  66.349  1.00  0.00    -0.096 OA 
HETATM    2  C   UNL     1      -8.353   8.411  65.059  1.00  0.00    -0.158 C  
HETATM    3  C   UNL     1      -9.055   9.601  64.522  1.00  0.00    -0.287 A  
HETATM    4  O   UNL     1      -8.103   7.432  64.381  1.00  0.00    -0.134 OA 
HETATM    5  C   UNL     1      -8.875   9.943  63.179  1.00  0.00    -0.254 A  
HETATM    6  C   UNL     1      -9.515  11.068  62.654  1.00  0.00    -0.322 A  
HETATM    7  C   UNL     1     -10.330  11.856  63.472  1.00  0.00    -0.495 A  
HETATM    8  C   UNL     1     -10.524  11.518  64.818  1.00  0.00    -0.354 A  
HETATM    9  C   UNL     1      -9.901  10.367  65.328  1.00  0.00    -0.361 A  
ENDROOT
BRANCH   8  10
HETATM   10  C   UNL     1     -11.317  12.348  65.718  1.00  0.00    -0.352 A  
HETATM   11  N   UNL     1     -12.410  13.037  65.362  1.00  0.00    -0.469 NA 
HETATM   12  O   UNL     1     -12.750  13.733  66.524  1.00  0.00    -0.282 OA 
HETATM   13  C   UNL     1     -11.825  13.397  67.471  1.00  0.00    -0.366 A  
HETATM   14  N   UNL     1     -10.934  12.540  67.028  1.00  0.00    -0.258 NA 
BRANCH  13  15
HETATM   15  C   UNL     1     -11.920  14.023  68.782  1.00  0.00    -0.382 A  
HETATM   16  C   UNL     1     -12.243  13.235  69.901  1.00  0.00    -0.313 A  
HETATM   17  C   UNL     1     -12.323  13.798  71.178  1.00  0.00    -0.428 A  
HETATM   18  C   UNL     1     -12.080  15.158  71.356  1.00  0.00    -0.397 A  
HETATM   19  C   UNL     1     -11.758  15.951  70.257  1.00  0.00    -0.352 A  
HETATM   20  C   UNL     1     -11.681  15.383  68.986  1.00  0.00    -0.361 A  
HETATM   21  F   UNL     1     -11.360  16.188  67.962  1.00  0.00    -0.344 F  
ENDBRANCH  13  15
ENDBRANCH   8  10
TORSDOF 2
ENDMDL
MODEL       60
REMARK 921   NORMALIZED FREE ENERGY PREDICTED BY IDOCK:   -6.07 KCAL/MOL
REMARK 922        TOTAL FREE ENERGY PREDICTED BY IDOCK:   -7.15 KCAL/MOL
REMARK 923 INTER-LIGAND FREE ENERGY PREDICTED BY IDOCK:   -7.11 KCAL/MOL
REMARK 924 INTRA-LIGAND FREE ENERGY PREDICTED BY IDOCK:   -0.04 KCAL/MOL
REMARK 927      BINDING AFFINITY PREDICTED BY RF-SCORE:    0.00 PKD
ROOT
HETATM    1  O   UNL     1      -7.444   8.888  64.414  1.00  0.00    -0.100 OA 
HETATM    2  C   UNL     1      -8.417   9.163  63.522  1.00  0.00    -0.189 C  
HETATM    3  C   UNL     1      -9.409  10.153  64.005  1.00  0.00    -0.339 A  
HETATM    4  O   UNL     1      -8.459   8.680  62.405  1.00  0.00    -0.200 OA 
HETATM    5  C   UNL     1      -9.983  11.038  63.087  1.00  0.00    -0.382 A  
HETATM    6  C   UNL     1     -10.909  11.989  63.521  1.00  0.00    -0.509 A  
HETATM    7  C   UNL     1     -11.258  12.061  64.874  1.00  0.00    -0.374 A  
HETATM    8  C   UNL     1     -10.695  11.174  65.800  1.00  0.00    -0.252 A  
HETATM    9  C   UNL     1      -9.788  10.202  65.349  1.00  0.00    -0.375 A  
ENDROOT
BRANCH   8  10
HETATM   10  C   UNL     1     -10.986  11.258  67.227  1.00  0.00    -0.286 A  
HETATM   11  N   UNL     1     -10.876  10.239  68.092  1.00  0.00    -0.246 NA 
HETATM   12  O   UNL     1     -11.346  10.779  69.292  1.00  0.00    -0.242 OA 
HETATM   13  C   UNL     1     -11.695  12.074  69.033  1.00  0.00    -0.325 A  
HETATM   14  N   UNL     1     -11.481  12.417  67.783  1.00  0.00    -0.302 NA 
BRANCH  13  15
HETATM   15  C   UNL     1     -12.264  12.865  70.115  1.00  0.00    -0.336 A  
HETATM   16  C   UNL     1     -12.356  14.261  69.974  1.00  0.00    -0.403 A  
HETATM   17  C   UNL     1     -12.914  15.051  70.983  1.00  0.00    -0.466 A  
HETATM   18  C   UNL     1     -13.392  14.456  72.148  1.00  0.00    -0.486 A  
HETATM   19  C   UNL     1     -13.308  13.075  72.303  1.00  0.00    -0.606 A  
HETATM   20  C   UNL     1     -12.749  12.293  71.293  1.00  0.00    -0.251 A  
HETATM   21  F   UNL     1     -12.700  10.966  71.486  1.00  0.00    -0.441 F  
ENDBRANCH  13  15
ENDBRANCH   8  10
TORSDOF 2
ENDMDL
MODEL       61
REMARK 921   NORMALIZED FREE ENERGY PREDICTED BY IDOCK:   -6.06 KCAL/MOL
REMARK 922        TOTAL FREE ENERGY PREDICTED BY IDOCK:   -7.14 KCAL/MOL
REMARK 923 INTER-LIGAND FREE ENERGY PREDICTED BY IDOCK:   -6.81 KCAL/MOL
REMARK 924 INTRA-LIGAND FREE ENERGY PREDICTED BY IDOCK:   -0.33 KCAL/MOL
REMARK 927      BINDING AFFINITY PREDICTED BY RF-SCORE:    0.00 PKD
ROOT
HETATM    1  O   UNL     1     -12.291  14.935  69.988  1.00  0.00    -0.324 OA 
HETATM    2  C   UNL     1     -11.780  15.219  68.772  1.00  0.00    -0.353 C  
HETATM    3  C   UNL     1     -11.630  14.033  67.895  1.00  0.00    -0.377 A  
HETATM    4  O   UNL     1     -11.506  16.347  68.407  1.00  0.00    -0.338 OA 
HETATM    5  C   UNL     1     -11.817  14.183  66.518  1.00  0.00    -0.439 A  
HETATM    6  C   UNL     1     -11.695  13.078  65.673  1.00  0.00    -0.418 A  
HETATM    7  C   UNL     1     -11.391  11.820  66.204  1.00  0.00    -0.342 A  
HETATM    8  C   UNL     1     -11.193  11.660  67.582  1.00  0.00    -0.345 A  
HETATM    9  C   UNL     1     -11.288  12.784  68.419  1.00  0.00    -0.331 A  
ENDROOT
BRANCH   8  10
HETATM   10  C   UNL     1     -10.936  10.355  68.181  1.00  0.00    -0.281 A  
HETATM   11  N   UNL     1     -10.700   9.229  67.492  1.00  0.00    -0.257 NA 
HETATM   12  O   UNL     1     -10.610   8.252  68.486  1.00  0.00    -0.187 OA 
HETATM   13  C   UNL     1     -10.802   8.885  69.681  1.00  0.00    -0.178 A  
HETATM   14  N   UNL     1     -10.993  10.177  69.546  1.00  0.00    -0.242 NA 
BRANCH  13  15
HETATM   15  C   UNL     1     -10.802   8.082  70.895  1.00  0.00    -0.248 A  
HETATM   16  C   UNL     1      -9.999   8.473  71.981  1.00  0.00    -0.383 A  
HETATM   17  C   UNL     1      -9.989   7.738  73.170  1.00  0.00    -0.374 A  
HETATM   18  C   UNL     1     -10.783   6.600  73.292  1.00  0.00    -0.315 A  
HETATM   19  C   UNL     1     -11.584   6.200  72.226  1.00  0.00    -0.362 A  
HETATM   20  C   UNL     1     -11.589   6.937  71.042  1.00  0.00    -0.328 A  
HETATM   21  F   UNL     1     -12.384   6.515  70.048  1.00  0.00    -0.390 F  
ENDBRANCH  13  15
ENDBRANCH   8  10
TORSDOF 2
ENDMDL
MODEL       62
REMARK 921   NORMALIZED FREE ENERGY PREDICTED BY IDOCK:   -6.04 KCAL/MOL
REMARK 922        TOTAL FREE ENERGY PREDICTED BY IDOCK:   -7.12 KCAL/MOL
REMARK 923 INTER-LIGAND FREE ENERGY PREDICTED BY IDOCK:   -6.73 KCAL/MOL
REMARK 924 INTRA-LIGAND FREE ENERGY PREDICTED BY IDOCK:   -0.39 KCAL/MOL
REMARK 927      BINDING AFFINITY PREDICTED BY RF-SCORE:    0.00 PKD
ROOT
HETATM    1  O   UNL     1     -10.350  15.851  67.078  1.00  0.00    -0.285 OA 
HETATM    2  C   UNL     1     -10.628  15.858  65.758  1.00  0.00    -0.355 C  
HETATM    3  C   UNL     1     -10.999  14.529  65.217  1.00  0.00    -0.366 A  
HETATM    4  O   UNL     1     -10.621  16.867  65.077  1.00  0.00    -0.700 OA 
HETATM    5  C   UNL     1     -11.941  14.457  64.187  1.00  0.00    -0.373 A  
HETATM    6  C   UNL     1     -12.316  13.214  63.671  1.00  0.00    -0.482 A  
HETATM    7  C   UNL     1     -11.755  12.042  64.188  1.00  0.00    -0.457 A  
HETATM    8  C   UNL     1     -10.803  12.103  65.215  1.00  0.00    -0.336 A  
HETATM    9  C   UNL     1     -10.410  13.359  65.705  1.00  0.00    -0.295 A  
ENDROOT
BRANCH   8  10
HETATM   10  C   UNL     1     -10.241  10.902  65.821  1.00  0.00    -0.259 A  
HETATM   11  N   UNL     1      -9.235  10.182  65.305  1.00  0.00    -0.191 NA 
HETATM   12  O   UNL     1      -9.124   9.101  66.183  1.00  0.00    -0.161 OA 
HETATM   13  C   UNL     1     -10.077   9.274  67.145  1.00  0.00    -0.236 A  
HETATM   14  N   UNL     1     -10.779  10.371  66.974  1.00  0.00    -0.256 NA 
BRANCH  13  15
HETATM   15  C   UNL     1     -10.211   8.254  68.175  1.00  0.00    -0.255 A  
HETATM   16  C   UNL     1      -9.684   8.494  69.457  1.00  0.00    -0.176 A  
HETATM   17  C   UNL     1      -9.812   7.546  70.476  1.00  0.00    -0.183 A  
HETATM   18  C   UNL     1     -10.471   6.344  70.231  1.00  0.00    -0.270 A  
HETATM   19  C   UNL     1     -10.999   6.092  68.967  1.00  0.00    -0.436 A  
HETATM   20  C   UNL     1     -10.868   7.041  67.954  1.00  0.00    -0.183 A  
HETATM   21  F   UNL     1     -11.401   6.754  66.757  1.00  0.00    -0.475 F  
ENDBRANCH  13  15
ENDBRANCH   8  10
TORSDOF 2
ENDMDL
MODEL       63
REMARK 921   NORMALIZED FREE ENERGY PREDICTED BY IDOCK:   -6.04 KCAL/MOL
REMARK 922        TOTAL FREE ENERGY PREDICTED BY IDOCK:   -7.12 KCAL/MOL
REMARK 923 INTER-LIGAND FREE ENERGY PREDICTED BY IDOCK:   -6.76 KCAL/MOL
REMARK 924 INTRA-LIGAND FREE ENERGY PREDICTED BY IDOCK:   -0.35 KCAL/MOL
REMARK 927      BINDING AFFINITY PREDICTED BY RF-SCORE:    0.00 PKD
ROOT
HETATM    1  O   UNL     1     -10.579   9.009  70.264  1.00  0.00    -0.200 OA 
HETATM    2  C   UNL     1     -10.634   8.258  69.144  1.00  0.00    -0.165 C  
HETATM    3  C   UNL     1     -10.470   9.037  67.893  1.00  0.00    -0.291 A  
HETATM    4  O   UNL     1     -10.762   7.047  69.154  1.00  0.00    -0.219 OA 
HETATM    5  C   UNL     1      -9.815   8.445  66.809  1.00  0.00    -0.329 A  
HETATM    6  C   UNL     1      -9.636   9.164  65.625  1.00  0.00    -0.287 A  
HETATM    7  C   UNL     1     -10.106  10.477  65.525  1.00  0.00    -0.349 A  
HETATM    8  C   UNL     1     -10.772  11.077  66.602  1.00  0.00    -0.305 A  
HETATM    9  C   UNL     1     -10.974  10.335  67.777  1.00  0.00    -0.360 A  
ENDROOT
BRANCH   8  10
HETATM   10  C   UNL     1     -11.223  12.463  66.558  1.00  0.00    -0.319 A  
HETATM   11  N   UNL     1     -12.375  12.877  66.011  1.00  0.00    -0.534 NA 
HETATM   12  O   UNL     1     -12.311  14.268  66.131  1.00  0.00    -0.437 OA 
HETATM   13  C   UNL     1     -11.124  14.558  66.739  1.00  0.00    -0.325 A  
HETATM   14  N   UNL     1     -10.427  13.483  67.033  1.00  0.00    -0.264 NA 
BRANCH  13  15
HETATM   15  C   UNL     1     -10.779  15.957  66.949  1.00  0.00    -0.289 A  
HETATM   16  C   UNL     1     -10.562  16.425  68.258  1.00  0.00    -0.318 A  
HETATM   17  C   UNL     1     -10.210  17.756  68.496  1.00  0.00    -0.382 A  
HETATM   18  C   UNL     1     -10.068  18.641  67.429  1.00  0.00    -0.397 A  
HETATM   19  C   UNL     1     -10.279  18.192  66.128  1.00  0.00    -0.372 A  
HETATM   20  C   UNL     1     -10.631  16.863  65.897  1.00  0.00    -0.233 A  
HETATM   21  F   UNL     1     -10.815  16.478  64.625  1.00  0.00    -0.390 F  
ENDBRANCH  13  15
ENDBRANCH   8  10
TORSDOF 2
ENDMDL
MODEL       64
REMARK 921   NORMALIZED FREE ENERGY PREDICTED BY IDOCK:   -6.01 KCAL/MOL
REMARK 922        TOTAL FREE ENERGY PREDICTED BY IDOCK:   -7.08 KCAL/MOL
REMARK 923 INTER-LIGAND FREE ENERGY PREDICTED BY IDOCK:   -6.71 KCAL/MOL
REMARK 924 INTRA-LIGAND FREE ENERGY PREDICTED BY IDOCK:   -0.37 KCAL/MOL
REMARK 927      BINDING AFFINITY PREDICTED BY RF-SCORE:    0.00 PKD
ROOT
HETATM    1  O   UNL     1      -8.937   8.209  73.614  1.00  0.00    -0.264 OA 
HETATM    2  C   UNL     1      -9.971   7.381  73.357  1.00  0.00    -0.314 C  
HETATM    3  C   UNL     1     -10.333   7.304  71.922  1.00  0.00    -0.210 A  
HETATM    4  O   UNL     1     -10.529   6.720  74.214  1.00  0.00    -0.338 OA 
HETATM    5  C   UNL     1     -10.803   6.093  71.407  1.00  0.00    -0.319 A  
HETATM    6  C   UNL     1     -11.138   5.993  70.055  1.00  0.00    -0.451 A  
HETATM    7  C   UNL     1     -10.998   7.102  69.214  1.00  0.00    -0.163 A  
HETATM    8  C   UNL     1     -10.536   8.323  69.722  1.00  0.00    -0.228 A  
HETATM    9  C   UNL     1     -10.232   8.422  71.089  1.00  0.00    -0.254 A  
ENDROOT
BRANCH   8  10
HETATM   10  C   UNL     1     -10.319   9.484  68.866  1.00  0.00    -0.208 A  
HETATM   11  N   UNL     1      -9.630  10.579  69.220  1.00  0.00    -0.204 NA 
HETATM   12  O   UNL     1      -9.780  11.428  68.121  1.00  0.00    -0.179 OA 
HETATM   13  C   UNL     1     -10.548  10.762  67.209  1.00  0.00    -0.257 A  
HETATM   14  N   UNL     1     -10.892   9.561  67.615  1.00  0.00    -0.251 NA 
BRANCH  13  15
HETATM   15  C   UNL     1     -10.899  11.445  65.972  1.00  0.00    -0.306 A  
HETATM   16  C   UNL     1     -10.390  10.966  64.751  1.00  0.00    -0.391 A  
HETATM   17  C   UNL     1     -10.722  11.583  63.542  1.00  0.00    -0.483 A  
HETATM   18  C   UNL     1     -11.569  12.689  63.534  1.00  0.00    -0.584 A  
HETATM   19  C   UNL     1     -12.080  13.175  64.735  1.00  0.00    -0.459 A  
HETATM   20  C   UNL     1     -11.745  12.555  65.938  1.00  0.00    -0.426 A  
HETATM   21  F   UNL     1     -12.271  13.056  67.065  1.00  0.00    -0.418 F  
ENDBRANCH  13  15
ENDBRANCH   8  10
TORSDOF 2
ENDMDL
MODEL       65
REMARK 921   NORMALIZED FREE ENERGY PREDICTED BY IDOCK:   -5.95 KCAL/MOL
REMARK 922        TOTAL FREE ENERGY PREDICTED BY IDOCK:   -7.02 KCAL/MOL
REMARK 923 INTER-LIGAND FREE ENERGY PREDICTED BY IDOCK:   -6.88 KCAL/MOL
REMARK 924 INTRA-LIGAND FREE ENERGY PREDICTED BY IDOCK:   -0.14 KCAL/MOL
REMARK 927      BINDING AFFINITY PREDICTED BY RF-SCORE:    0.00 PKD
ROOT
HETATM    1  O   UNL     1     -10.265   5.921  66.849  1.00  0.00    -0.169 OA 
HETATM    2  C   UNL     1      -9.913   5.474  68.072  1.00  0.00    -0.149 C  
HETATM    3  C   UNL     1     -10.429   6.305  69.185  1.00  0.00    -0.291 A  
HETATM    4  O   UNL     1      -9.268   4.457  68.253  1.00  0.00    -0.121 OA 
HETATM    5  C   UNL     1     -10.784   5.683  70.385  1.00  0.00    -0.352 A  
HETATM    6  C   UNL     1     -11.287   6.443  71.443  1.00  0.00    -0.354 A  
HETATM    7  C   UNL     1     -11.440   7.826  71.301  1.00  0.00    -0.294 A  
HETATM    8  C   UNL     1     -11.079   8.461  70.105  1.00  0.00    -0.183 A  
HETATM    9  C   UNL     1     -10.547   7.692  69.059  1.00  0.00    -0.186 A  
ENDROOT
BRANCH   8  10
HETATM   10  C   UNL     1     -11.282   9.891  69.896  1.00  0.00    -0.250 A  
HETATM   11  N   UNL     1     -10.700  10.613  68.928  1.00  0.00    -0.203 NA 
HETATM   12  O   UNL     1     -11.125  11.917  69.195  1.00  0.00    -0.233 OA 
HETATM   13  C   UNL     1     -11.923  11.854  70.302  1.00  0.00    -0.330 A  
HETATM   14  N   UNL     1     -12.060  10.631  70.760  1.00  0.00    -0.341 NA 
BRANCH  13  15
HETATM   15  C   UNL     1     -12.472  13.095  70.829  1.00  0.00    -0.389 A  
HETATM   16  C   UNL     1     -12.190  14.307  70.173  1.00  0.00    -0.407 A  
HETATM   17  C   UNL     1     -12.716  15.516  70.639  1.00  0.00    -0.487 A  
HETATM   18  C   UNL     1     -13.534  15.531  71.767  1.00  0.00    -0.576 A  
HETATM   19  C   UNL     1     -13.822  14.339  72.426  1.00  0.00    -0.619 A  
HETATM   20  C   UNL     1     -13.293  13.136  71.957  1.00  0.00    -0.493 A  
HETATM   21  F   UNL     1     -13.608  12.015  72.623  1.00  0.00    -0.447 F  
ENDBRANCH  13  15
ENDBRANCH   8  10
TORSDOF 2
ENDMDL
MODEL       66
REMARK 921   NORMALIZED FREE ENERGY PREDICTED BY IDOCK:   -5.95 KCAL/MOL
REMARK 922        TOTAL FREE ENERGY PREDICTED BY IDOCK:   -7.02 KCAL/MOL
REMARK 923 INTER-LIGAND FREE ENERGY PREDICTED BY IDOCK:   -6.79 KCAL/MOL
REMARK 924 INTRA-LIGAND FREE ENERGY PREDICTED BY IDOCK:   -0.22 KCAL/MOL
REMARK 927      BINDING AFFINITY PREDICTED BY RF-SCORE:    0.00 PKD
ROOT
HETATM    1  O   UNL     1     -12.900  14.773  73.362  1.00  0.00    -0.515 OA 
HETATM    2  C   UNL     1     -13.397  13.928  72.434  1.00  0.00    -0.529 C  
HETATM    3  C   UNL     1     -12.583  13.852  71.198  1.00  0.00    -0.446 A  
HETATM    4  O   UNL     1     -14.396  13.254  72.608  1.00  0.00    -0.679 OA 
HETATM    5  C   UNL     1     -12.503  12.634  70.515  1.00  0.00    -0.273 A  
HETATM    6  C   UNL     1     -11.731  12.534  69.356  1.00  0.00    -0.383 A  
HETATM    7  C   UNL     1     -11.033  13.649  68.880  1.00  0.00    -0.281 A  
HETATM    8  C   UNL     1     -11.113  14.876  69.552  1.00  0.00    -0.301 A  
HETATM    9  C   UNL     1     -11.917  14.974  70.699  1.00  0.00    -0.370 A  
ENDROOT
BRANCH   8  10
HETATM   10  C   UNL     1     -10.352  16.044  69.123  1.00  0.00    -0.247 A  
HETATM   11  N   UNL     1     -10.655  17.313  69.435  1.00  0.00    -0.215 NA 
HETATM   12  O   UNL     1      -9.707  18.057  68.728  1.00  0.00    -0.336 OA 
HETATM   13  C   UNL     1      -8.924  17.163  68.056  1.00  0.00    -0.233 A  
HETATM   14  N   UNL     1      -9.272  15.916  68.277  1.00  0.00    -0.187 NA 
BRANCH  13  15
HETATM   15  C   UNL     1      -7.870  17.680  67.195  1.00  0.00    -0.229 A  
HETATM   16  C   UNL     1      -6.626  17.024  67.158  1.00  0.00    -0.217 A  
HETATM   17  C   UNL     1      -5.597  17.480  66.328  1.00  0.00    -0.241 A  
HETATM   18  C   UNL     1      -5.797  18.597  65.521  1.00  0.00    -0.252 A  
HETATM   19  C   UNL     1      -7.023  19.257  65.547  1.00  0.00    -0.264 A  
HETATM   20  C   UNL     1      -8.045  18.798  66.378  1.00  0.00    -0.280 A  
HETATM   21  F   UNL     1      -9.209  19.464  66.359  1.00  0.00    -0.312 F  
ENDBRANCH  13  15
ENDBRANCH   8  10
TORSDOF 2
ENDMDL
MODEL       67
REMARK 921   NORMALIZED FREE ENERGY PREDICTED BY IDOCK:   -5.94 KCAL/MOL
REMARK 922        TOTAL FREE ENERGY PREDICTED BY IDOCK:   -7.01 KCAL/MOL
REMARK 923 INTER-LIGAND FREE ENERGY PREDICTED BY IDOCK:   -6.64 KCAL/MOL
REMARK 924 INTRA-LIGAND FREE ENERGY PREDICTED BY IDOCK:   -0.37 KCAL/MOL
REMARK 927      BINDING AFFINITY PREDICTED BY RF-SCORE:    0.00 PKD
ROOT
HETATM    1  O   UNL     1     -10.670   9.789  71.263  1.00  0.00    -0.304 OA 
HETATM    2  C   UNL     1     -10.946   9.280  70.044  1.00  0.00    -0.229 C  
HETATM    3  C   UNL     1     -10.787  10.256  68.939  1.00  0.00    -0.263 A  
HETATM    4  O   UNL     1     -11.256   8.118  69.857  1.00  0.00    -0.170 OA 
HETATM    5  C   UNL     1     -10.338   9.801  67.696  1.00  0.00    -0.281 A  
HETATM    6  C   UNL     1     -10.167  10.704  66.644  1.00  0.00    -0.284 A  
HETATM    7  C   UNL     1     -10.439  12.062  66.835  1.00  0.00    -0.251 A  
HETATM    8  C   UNL     1     -10.899  12.527  68.074  1.00  0.00    -0.252 A  
HETATM    9  C   UNL     1     -11.097  11.607  69.116  1.00  0.00    -0.302 A  
ENDROOT
BRANCH   8  10
HETATM   10  C   UNL     1     -11.135  13.943  68.330  1.00  0.00    -0.255 A  
HETATM   11  N   UNL     1     -12.174  14.434  69.022  1.00  0.00    -0.253 NA 
HETATM   12  O   UNL     1     -12.013  15.817  68.914  1.00  0.00    -0.382 OA 
HETATM   13  C   UNL     1     -10.891  16.027  68.165  1.00  0.00    -0.322 A  
HETATM   14  N   UNL     1     -10.311  14.909  67.794  1.00  0.00    -0.243 NA 
BRANCH  13  15
HETATM   15  C   UNL     1     -10.513  17.399  67.858  1.00  0.00    -0.383 A  
HETATM   16  C   UNL     1     -10.028  18.227  68.886  1.00  0.00    -0.361 A  
HETATM   17  C   UNL     1      -9.636  19.544  68.625  1.00  0.00    -0.483 A  
HETATM   18  C   UNL     1      -9.721  20.052  67.330  1.00  0.00    -0.550 A  
HETATM   19  C   UNL     1     -10.200  19.244  66.302  1.00  0.00    -0.546 A  
HETATM   20  C   UNL     1     -10.590  17.932  66.569  1.00  0.00    -0.235 A  
HETATM   21  F   UNL     1     -11.035  17.192  65.543  1.00  0.00    -0.292 F  
ENDBRANCH  13  15
ENDBRANCH   8  10
TORSDOF 2
ENDMDL
MODEL       68
REMARK 921   NORMALIZED FREE ENERGY PREDICTED BY IDOCK:   -5.94 KCAL/MOL
REMARK 922        TOTAL FREE ENERGY PREDICTED BY IDOCK:   -7.01 KCAL/MOL
REMARK 923 INTER-LIGAND FREE ENERGY PREDICTED BY IDOCK:   -6.65 KCAL/MOL
REMARK 924 INTRA-LIGAND FREE ENERGY PREDICTED BY IDOCK:   -0.36 KCAL/MOL
REMARK 927      BINDING AFFINITY PREDICTED BY RF-SCORE:    0.00 PKD
ROOT
HETATM    1  O   UNL     1      -6.701  16.253  66.447  1.00  0.00    -0.143 OA 
HETATM    2  C   UNL     1      -7.593  17.242  66.237  1.00  0.00    -0.325 C  
HETATM    3  C   UNL     1      -8.896  17.026  66.910  1.00  0.00    -0.251 A  
HETATM    4  O   UNL     1      -7.344  18.244  65.591  1.00  0.00    -0.519 OA 
HETATM    5  C   UNL     1      -9.599  18.133  67.393  1.00  0.00    -0.275 A  
HETATM    6  C   UNL     1     -10.822  17.953  68.044  1.00  0.00    -0.206 A  
HETATM    7  C   UNL     1     -11.340  16.666  68.218  1.00  0.00    -0.121 A  
HETATM    8  C   UNL     1     -10.647  15.550  67.730  1.00  0.00    -0.281 A  
HETATM    9  C   UNL     1      -9.435  15.744  67.050  1.00  0.00    -0.235 A  
ENDROOT
BRANCH   8  10
HETATM   10  C   UNL     1     -11.124  14.188  67.946  1.00  0.00    -0.268 A  
HETATM   11  N   UNL     1     -11.677  13.412  67.002  1.00  0.00    -0.359 NA 
HETATM   12  O   UNL     1     -12.047  12.261  67.703  1.00  0.00    -0.502 OA 
HETATM   13  C   UNL     1     -11.682  12.457  69.004  1.00  0.00    -0.323 A  
HETATM   14  N   UNL     1     -11.100  13.618  69.200  1.00  0.00    -0.250 NA 
BRANCH  13  15
HETATM   15  C   UNL     1     -11.995  11.416  69.973  1.00  0.00    -0.442 A  
HETATM   16  C   UNL     1     -12.902  11.691  71.012  1.00  0.00    -0.339 A  
HETATM   17  C   UNL     1     -13.243  10.710  71.948  1.00  0.00    -0.528 A  
HETATM   18  C   UNL     1     -12.682   9.438  71.859  1.00  0.00    -0.484 A  
HETATM   19  C   UNL     1     -11.782   9.150  70.836  1.00  0.00    -0.341 A  
HETATM   20  C   UNL     1     -11.446  10.134  69.905  1.00  0.00    -0.254 A  
HETATM   21  F   UNL     1     -10.582   9.804  68.934  1.00  0.00    -0.199 F  
ENDBRANCH  13  15
ENDBRANCH   8  10
TORSDOF 2
ENDMDL
MODEL       69
REMARK 921   NORMALIZED FREE ENERGY PREDICTED BY IDOCK:   -5.93 KCAL/MOL
REMARK 922        TOTAL FREE ENERGY PREDICTED BY IDOCK:   -7.00 KCAL/MOL
REMARK 923 INTER-LIGAND FREE ENERGY PREDICTED BY IDOCK:   -6.70 KCAL/MOL
REMARK 924 INTRA-LIGAND FREE ENERGY PREDICTED BY IDOCK:   -0.29 KCAL/MOL
REMARK 927      BINDING AFFINITY PREDICTED BY RF-SCORE:    0.00 PKD
ROOT
HETATM    1  O   UNL     1     -11.056   7.717  73.400  1.00  0.00    -0.337 OA 
HETATM    2  C   UNL     1      -9.849   7.331  72.937  1.00  0.00    -0.196 C  
HETATM    3  C   UNL     1      -9.297   8.222  71.889  1.00  0.00    -0.282 A  
HETATM    4  O   UNL     1      -9.243   6.366  73.367  1.00  0.00    -0.131 OA 
HETATM    5  C   UNL     1      -7.914   8.418  71.827  1.00  0.00    -0.173 A  
HETATM    6  C   UNL     1      -7.372   9.264  70.858  1.00  0.00    -0.120 A  
HETATM    7  C   UNL     1      -8.212   9.920  69.952  1.00  0.00    -0.199 A  
HETATM    8  C   UNL     1      -9.599   9.724  69.999  1.00  0.00    -0.282 A  
HETATM    9  C   UNL     1     -10.130   8.848  70.958  1.00  0.00    -0.324 A  
ENDROOT
BRANCH   8  10
HETATM   10  C   UNL     1     -10.511  10.437  69.112  1.00  0.00    -0.227 A  
HETATM   11  N   UNL     1     -11.812  10.647  69.360  1.00  0.00    -0.276 NA 
HETATM   12  O   UNL     1     -12.268  11.276  68.199  1.00  0.00    -0.622 OA 
HETATM   13  C   UNL     1     -11.195  11.384  67.361  1.00  0.00    -0.305 A  
HETATM   14  N   UNL     1     -10.093  10.895  67.882  1.00  0.00    -0.173 NA 
BRANCH  13  15
HETATM   15  C   UNL     1     -11.403  11.971  66.045  1.00  0.00    -0.398 A  
HETATM   16  C   UNL     1     -10.937  11.292  64.905  1.00  0.00    -0.243 A  
HETATM   17  C   UNL     1     -11.136  11.815  63.624  1.00  0.00    -0.518 A  
HETATM   18  C   UNL     1     -11.807  13.025  63.463  1.00  0.00    -0.582 A  
HETATM   19  C   UNL     1     -12.275  13.709  64.583  1.00  0.00    -0.448 A  
HETATM   20  C   UNL     1     -12.072  13.182  65.858  1.00  0.00    -0.444 A  
HETATM   21  F   UNL     1     -12.550  13.875  66.902  1.00  0.00    -0.423 F  
ENDBRANCH  13  15
ENDBRANCH   8  10
TORSDOF 2
ENDMDL
MODEL       70
REMARK 921   NORMALIZED FREE ENERGY PREDICTED BY IDOCK:   -5.93 KCAL/MOL
REMARK 922        TOTAL FREE ENERGY PREDICTED BY IDOCK:   -6.99 KCAL/MOL
REMARK 923 INTER-LIGAND FREE ENERGY PREDICTED BY IDOCK:   -6.58 KCAL/MOL
REMARK 924 INTRA-LIGAND FREE ENERGY PREDICTED BY IDOCK:   -0.41 KCAL/MOL
REMARK 927      BINDING AFFINITY PREDICTED BY RF-SCORE:    0.00 PKD
ROOT
HETATM    1  O   UNL     1     -10.580  10.906  64.718  1.00  0.00    -0.315 OA 
HETATM    2  C   UNL     1     -11.376  11.994  64.758  1.00  0.00    -0.313 C  
HETATM    3  C   UNL     1     -11.615  12.510  66.127  1.00  0.00    -0.448 A  
HETATM    4  O   UNL     1     -11.823  12.535  63.763  1.00  0.00    -0.409 OA 
HETATM    5  C   UNL     1     -11.759  13.888  66.315  1.00  0.00    -0.402 A  
HETATM    6  C   UNL     1     -11.971  14.398  67.597  1.00  0.00    -0.378 A  
HETATM    7  C   UNL     1     -12.034  13.533  68.694  1.00  0.00    -0.378 A  
HETATM    8  C   UNL     1     -11.900  12.149  68.516  1.00  0.00    -0.365 A  
HETATM    9  C   UNL     1     -11.718  11.644  67.219  1.00  0.00    -0.255 A  
ENDROOT
BRANCH   8  10
HETATM   10  C   UNL     1     -11.899  11.221  69.641  1.00  0.00    -0.360 A  
HETATM   11  N   UNL     1     -12.421  11.479  70.848  1.00  0.00    -0.389 NA 
HETATM   12  O   UNL     1     -12.096  10.343  71.594  1.00  0.00    -0.326 OA 
HETATM   13  C   UNL     1     -11.407   9.508  70.762  1.00  0.00    -0.321 A  
HETATM   14  N   UNL     1     -11.272   9.997  69.550  1.00  0.00    -0.229 NA 
BRANCH  13  15
HETATM   15  C   UNL     1     -10.905   8.254  71.303  1.00  0.00    -0.285 A  
HETATM   16  C   UNL     1     -11.804   7.203  71.558  1.00  0.00    -0.348 A  
HETATM   17  C   UNL     1     -11.355   5.978  72.059  1.00  0.00    -0.345 A  
HETATM   18  C   UNL     1      -9.999   5.783  72.311  1.00  0.00    -0.197 A  
HETATM   19  C   UNL     1      -9.096   6.814  72.064  1.00  0.00    -0.139 A  
HETATM   20  C   UNL     1      -9.551   8.035  71.565  1.00  0.00    -0.163 A  
HETATM   21  F   UNL     1      -8.640   8.992  71.336  1.00  0.00    -0.218 F  
ENDBRANCH  13  15
ENDBRANCH   8  10
TORSDOF 2
ENDMDL
MODEL       71
REMARK 921   NORMALIZED FREE ENERGY PREDICTED BY IDOCK:   -5.90 KCAL/MOL
REMARK 922        TOTAL FREE ENERGY PREDICTED BY IDOCK:   -6.96 KCAL/MOL
REMARK 923 INTER-LIGAND FREE ENERGY PREDICTED BY IDOCK:   -6.58 KCAL/MOL
REMARK 924 INTRA-LIGAND FREE ENERGY PREDICTED BY IDOCK:   -0.38 KCAL/MOL
REMARK 927      BINDING AFFINITY PREDICTED BY RF-SCORE:    0.00 PKD
ROOT
HETATM    1  O   UNL     1     -10.128   8.968  71.850  1.00  0.00    -0.339 OA 
HETATM    2  C   UNL     1     -10.945   7.971  71.450  1.00  0.00    -0.234 C  
HETATM    3  C   UNL     1     -10.906   7.715  69.991  1.00  0.00    -0.250 A  
HETATM    4  O   UNL     1     -11.621   7.310  72.217  1.00  0.00    -0.269 OA 
HETATM    5  C   UNL     1     -11.067   6.405  69.530  1.00  0.00    -0.460 A  
HETATM    6  C   UNL     1     -11.020   6.138  68.160  1.00  0.00    -0.398 A  
HETATM    7  C   UNL     1     -10.805   7.178  67.249  1.00  0.00    -0.382 A  
HETATM    8  C   UNL     1     -10.651   8.495  67.700  1.00  0.00    -0.268 A  
HETATM    9  C   UNL     1     -10.731   8.758  69.077  1.00  0.00    -0.134 A  
ENDROOT
BRANCH   8  10
HETATM   10  C   UNL     1     -10.364   9.597  66.788  1.00  0.00    -0.222 A  
HETATM   11  N   UNL     1      -9.346   9.624  65.916  1.00  0.00    -0.199 NA 
HETATM   12  O   UNL     1      -9.436  10.898  65.350  1.00  0.00    -0.194 OA 
HETATM   13  C   UNL     1     -10.502  11.518  65.939  1.00  0.00    -0.255 A  
HETATM   14  N   UNL     1     -11.111  10.755  66.818  1.00  0.00    -0.185 NA 
BRANCH  13  15
HETATM   15  C   UNL     1     -10.798  12.891  65.559  1.00  0.00    -0.298 A  
HETATM   16  C   UNL     1      -9.874  13.906  65.864  1.00  0.00    -0.287 A  
HETATM   17  C   UNL     1     -10.115  15.233  65.497  1.00  0.00    -0.408 A  
HETATM   18  C   UNL     1     -11.285  15.566  64.817  1.00  0.00    -0.399 A  
HETATM   19  C   UNL     1     -12.210  14.572  64.508  1.00  0.00    -0.483 A  
HETATM   20  C   UNL     1     -11.963  13.250  64.878  1.00  0.00    -0.378 A  
HETATM   21  F   UNL     1     -12.882  12.329  64.549  1.00  0.00    -0.541 F  
ENDBRANCH  13  15
ENDBRANCH   8  10
TORSDOF 2
ENDMDL
MODEL       72
REMARK 921   NORMALIZED FREE ENERGY PREDICTED BY IDOCK:   -5.90 KCAL/MOL
REMARK 922        TOTAL FREE ENERGY PREDICTED BY IDOCK:   -6.96 KCAL/MOL
REMARK 923 INTER-LIGAND FREE ENERGY PREDICTED BY IDOCK:   -6.59 KCAL/MOL
REMARK 924 INTRA-LIGAND FREE ENERGY PREDICTED BY IDOCK:   -0.37 KCAL/MOL
REMARK 927      BINDING AFFINITY PREDICTED BY RF-SCORE:    0.00 PKD
ROOT
HETATM    1  O   UNL     1     -12.602   9.349  70.559  1.00  0.00    -0.026 OA 
HETATM    2  C   UNL     1     -12.654  10.062  71.704  1.00  0.00    -0.427 C  
HETATM    3  C   UNL     1     -12.774  11.524  71.493  1.00  0.00    -0.439 A  
HETATM    4  O   UNL     1     -12.648   9.555  72.810  1.00  0.00    -0.059 OA 
HETATM    5  C   UNL     1     -13.515  12.281  72.405  1.00  0.00    -0.209 A  
HETATM    6  C   UNL     1     -13.654  13.658  72.220  1.00  0.00    -0.669 A  
HETATM    7  C   UNL     1     -13.056  14.280  71.118  1.00  0.00    -0.412 A  
HETATM    8  C   UNL     1     -12.304  13.533  70.202  1.00  0.00    -0.345 A  
HETATM    9  C   UNL     1     -12.145  12.154  70.415  1.00  0.00    -0.395 A  
ENDROOT
BRANCH   8  10
HETATM   10  C   UNL     1     -11.718  14.134  69.010  1.00  0.00    -0.324 A  
HETATM   11  N   UNL     1     -11.770  13.603  67.780  1.00  0.00    -0.341 NA 
HETATM   12  O   UNL     1     -11.002  14.482  67.012  1.00  0.00    -0.298 OA 
HETATM   13  C   UNL     1     -10.559  15.460  67.857  1.00  0.00    -0.267 A  
HETATM   14  N   UNL     1     -10.982  15.296  69.090  1.00  0.00    -0.238 NA 
BRANCH  13  15
HETATM   15  C   UNL     1      -9.688  16.495  67.318  1.00  0.00    -0.247 A  
HETATM   16  C   UNL     1      -8.440  16.135  66.779  1.00  0.00    -0.289 A  
HETATM   17  C   UNL     1      -7.587  17.099  66.235  1.00  0.00    -0.352 A  
HETATM   18  C   UNL     1      -7.969  18.439  66.220  1.00  0.00    -0.264 A  
HETATM   19  C   UNL     1      -9.202  18.810  66.750  1.00  0.00    -0.321 A  
HETATM   20  C   UNL     1     -10.048  17.844  67.292  1.00  0.00    -0.343 A  
HETATM   21  F   UNL     1     -11.228  18.252  67.782  1.00  0.00    -0.324 F  
ENDBRANCH  13  15
ENDBRANCH   8  10
TORSDOF 2
ENDMDL
MODEL       73
REMARK 921   NORMALIZED FREE ENERGY PREDICTED BY IDOCK:   -5.89 KCAL/MOL
REMARK 922        TOTAL FREE ENERGY PREDICTED BY IDOCK:   -6.94 KCAL/MOL
REMARK 923 INTER-LIGAND FREE ENERGY PREDICTED BY IDOCK:   -6.61 KCAL/MOL
REMARK 924 INTRA-LIGAND FREE ENERGY PREDICTED BY IDOCK:   -0.33 KCAL/MOL
REMARK 927      BINDING AFFINITY PREDICTED BY RF-SCORE:    0.00 PKD
ROOT
HETATM    1  O   UNL     1     -12.960   9.188  72.572  1.00  0.00    -0.407 OA 
HETATM    2  C   UNL     1     -11.965   8.379  72.152  1.00  0.00    -0.374 C  
HETATM    3  C   UNL     1     -11.021   9.030  71.214  1.00  0.00    -0.384 A  
HETATM    4  O   UNL     1     -11.825   7.233  72.538  1.00  0.00    -0.247 OA 
HETATM    5  C   UNL     1      -9.672   8.665  71.251  1.00  0.00    -0.305 A  
HETATM    6  C   UNL     1      -8.760   9.275  70.386  1.00  0.00    -0.263 A  
HETATM    7  C   UNL     1      -9.195  10.255  69.488  1.00  0.00    -0.191 A  
HETATM    8  C   UNL     1     -10.546  10.623  69.437  1.00  0.00    -0.270 A  
HETATM    9  C   UNL     1     -11.459   9.981  70.289  1.00  0.00    -0.372 A  
ENDROOT
BRANCH   8  10
HETATM   10  C   UNL     1     -11.027  11.682  68.558  1.00  0.00    -0.220 A  
HETATM   11  N   UNL     1     -11.967  11.527  67.614  1.00  0.00    -0.634 NA 
HETATM   12  O   UNL     1     -12.012  12.777  66.991  1.00  0.00    -0.386 OA 
HETATM   13  C   UNL     1     -11.092  13.566  67.620  1.00  0.00    -0.269 A  
HETATM   14  N   UNL     1     -10.472  12.943  68.596  1.00  0.00    -0.238 NA 
BRANCH  13  15
HETATM   15  C   UNL     1     -10.900  14.924  67.134  1.00  0.00    -0.311 A  
HETATM   16  C   UNL     1     -10.721  15.146  65.756  1.00  0.00    -0.359 A  
HETATM   17  C   UNL     1     -10.554  16.438  65.251  1.00  0.00    -0.320 A  
HETATM   18  C   UNL     1     -10.565  17.531  66.116  1.00  0.00    -0.211 A  
HETATM   19  C   UNL     1     -10.741  17.328  67.482  1.00  0.00    -0.278 A  
HETATM   20  C   UNL     1     -10.906  16.035  67.980  1.00  0.00    -0.335 A  
HETATM   21  F   UNL     1     -11.081  15.894  69.302  1.00  0.00    -0.236 F  
ENDBRANCH  13  15
ENDBRANCH   8  10
TORSDOF 2
ENDMDL
MODEL       74
REMARK 921   NORMALIZED FREE ENERGY PREDICTED BY IDOCK:   -5.88 KCAL/MOL
REMARK 922        TOTAL FREE ENERGY PREDICTED BY IDOCK:   -6.94 KCAL/MOL
REMARK 923 INTER-LIGAND FREE ENERGY PREDICTED BY IDOCK:   -6.69 KCAL/MOL
REMARK 924 INTRA-LIGAND FREE ENERGY PREDICTED BY IDOCK:   -0.25 KCAL/MOL
REMARK 927      BINDING AFFINITY PREDICTED BY RF-SCORE:    0.00 PKD
ROOT
HETATM    1  O   UNL     1      -6.111  17.389  66.245  1.00  0.00    -0.202 OA 
HETATM    2  C   UNL     1      -6.861  18.336  65.645  1.00  0.00    -0.228 C  
HETATM    3  C   UNL     1      -8.214  18.489  66.232  1.00  0.00    -0.248 A  
HETATM    4  O   UNL     1      -6.455  19.035  64.734  1.00  0.00    -0.483 OA 
HETATM    5  C   UNL     1      -8.798  19.758  66.263  1.00  0.00    -0.417 A  
HETATM    6  C   UNL     1     -10.065  19.929  66.823  1.00  0.00    -0.586 A  
HETATM    7  C   UNL     1     -10.749  18.832  67.358  1.00  0.00    -0.487 A  
HETATM    8  C   UNL     1     -10.176  17.554  67.324  1.00  0.00    -0.335 A  
HETATM    9  C   UNL     1      -8.915  17.388  66.731  1.00  0.00    -0.272 A  
ENDROOT
BRANCH   8  10
HETATM   10  C   UNL     1     -10.830  16.397  67.925  1.00  0.00    -0.328 A  
HETATM   11  N   UNL     1     -11.741  16.457  68.908  1.00  0.00    -0.181 NA 
HETATM   12  O   UNL     1     -11.993  15.114  69.200  1.00  0.00    -0.307 OA 
HETATM   13  C   UNL     1     -11.207  14.373  68.364  1.00  0.00    -0.273 A  
HETATM   14  N   UNL     1     -10.486  15.115  67.555  1.00  0.00    -0.254 NA 
BRANCH  13  15
HETATM   15  C   UNL     1     -11.241  12.923  68.489  1.00  0.00    -0.310 A  
HETATM   16  C   UNL     1     -11.637  12.345  69.708  1.00  0.00    -0.302 A  
HETATM   17  C   UNL     1     -11.701  10.956  69.858  1.00  0.00    -0.418 A  
HETATM   18  C   UNL     1     -11.373  10.125  68.790  1.00  0.00    -0.172 A  
HETATM   19  C   UNL     1     -10.980  10.683  67.576  1.00  0.00    -0.371 A  
HETATM   20  C   UNL     1     -10.917  12.069  67.433  1.00  0.00    -0.261 A  
HETATM   21  F   UNL     1     -10.541  12.556  66.241  1.00  0.00    -0.252 F  
ENDBRANCH  13  15
ENDBRANCH   8  10
TORSDOF 2
ENDMDL
MODEL       75
REMARK 921   NORMALIZED FREE ENERGY PREDICTED BY IDOCK:   -5.85 KCAL/MOL
REMARK 922        TOTAL FREE ENERGY PREDICTED BY IDOCK:   -6.90 KCAL/MOL
REMARK 923 INTER-LIGAND FREE ENERGY PREDICTED BY IDOCK:   -6.55 KCAL/MOL
REMARK 924 INTRA-LIGAND FREE ENERGY PREDICTED BY IDOCK:   -0.35 KCAL/MOL
REMARK 927      BINDING AFFINITY PREDICTED BY RF-SCORE:    0.00 PKD
ROOT
HETATM    1  O   UNL     1     -10.230   7.711  73.371  1.00  0.00    -0.323 OA 
HETATM    2  C   UNL     1     -10.830   6.710  72.693  1.00  0.00    -0.248 C  
HETATM    3  C   UNL     1     -10.698   6.822  71.221  1.00  0.00    -0.257 A  
HETATM    4  O   UNL     1     -11.391   5.776  73.236  1.00  0.00    -0.213 OA 
HETATM    5  C   UNL     1     -10.594   5.653  70.461  1.00  0.00    -0.354 A  
HETATM    6  C   UNL     1     -10.455   5.733  69.074  1.00  0.00    -0.336 A  
HETATM    7  C   UNL     1     -10.414   6.982  68.445  1.00  0.00    -0.231 A  
HETATM    8  C   UNL     1     -10.527   8.159  69.196  1.00  0.00    -0.217 A  
HETATM    9  C   UNL     1     -10.697   8.067  70.586  1.00  0.00    -0.235 A  
ENDROOT
BRANCH   8  10
HETATM   10  C   UNL     1     -10.427   9.479  68.585  1.00  0.00    -0.211 A  
HETATM   11  N   UNL     1      -9.841  10.544  69.151  1.00  0.00    -0.215 NA 
HETATM   12  O   UNL     1     -10.080  11.573  68.237  1.00  0.00    -0.186 OA 
HETATM   13  C   UNL     1     -10.790  11.028  67.205  1.00  0.00    -0.281 A  
HETATM   14  N   UNL     1     -11.016   9.744  67.367  1.00  0.00    -0.201 NA 
BRANCH  13  15
HETATM   15  C   UNL     1     -11.215  11.902  66.121  1.00  0.00    -0.387 A  
HETATM   16  C   UNL     1     -11.965  13.054  66.418  1.00  0.00    -0.466 A  
HETATM   17  C   UNL     1     -12.372  13.927  65.405  1.00  0.00    -0.494 A  
HETATM   18  C   UNL     1     -12.035  13.662  64.080  1.00  0.00    -0.478 A  
HETATM   19  C   UNL     1     -11.293  12.525  63.770  1.00  0.00    -0.534 A  
HETATM   20  C   UNL     1     -10.890  11.658  64.785  1.00  0.00    -0.308 A  
HETATM   21  F   UNL     1     -10.169  10.582  64.436  1.00  0.00    -0.374 F  
ENDBRANCH  13  15
ENDBRANCH   8  10
TORSDOF 2
ENDMDL
MODEL       76
REMARK 921   NORMALIZED FREE ENERGY PREDICTED BY IDOCK:   -5.84 KCAL/MOL
REMARK 922        TOTAL FREE ENERGY PREDICTED BY IDOCK:   -6.90 KCAL/MOL
REMARK 923 INTER-LIGAND FREE ENERGY PREDICTED BY IDOCK:   -6.50 KCAL/MOL
REMARK 924 INTRA-LIGAND FREE ENERGY PREDICTED BY IDOCK:   -0.40 KCAL/MOL
REMARK 927      BINDING AFFINITY PREDICTED BY RF-SCORE:    0.00 PKD
ROOT
HETATM    1  O   UNL     1     -12.584  10.600  70.090  1.00  0.00    -0.318 OA 
HETATM    2  C   UNL     1     -12.885  11.090  71.310  1.00  0.00    -0.425 C  
HETATM    3  C   UNL     1     -12.946  12.570  71.361  1.00  0.00    -0.347 A  
HETATM    4  O   UNL     1     -13.129  10.387  72.274  1.00  0.00    -0.397 OA 
HETATM    5  C   UNL     1     -13.868  13.180  72.218  1.00  0.00    -0.586 A  
HETATM    6  C   UNL     1     -13.953  14.573  72.273  1.00  0.00    -0.600 A  
HETATM    7  C   UNL     1     -13.122  15.358  71.467  1.00  0.00    -0.545 A  
HETATM    8  C   UNL     1     -12.189  14.758  70.612  1.00  0.00    -0.385 A  
HETATM    9  C   UNL     1     -12.090  13.358  70.587  1.00  0.00    -0.374 A  
ENDROOT
BRANCH   8  10
HETATM   10  C   UNL     1     -11.349  15.540  69.712  1.00  0.00    -0.319 A  
HETATM   11  N   UNL     1     -11.804  16.301  68.706  1.00  0.00    -0.177 NA 
HETATM   12  O   UNL     1     -10.636  16.763  68.093  1.00  0.00    -0.319 OA 
HETATM   13  C   UNL     1      -9.588  16.233  68.790  1.00  0.00    -0.242 A  
HETATM   14  N   UNL     1      -9.974  15.487  69.800  1.00  0.00    -0.284 NA 
BRANCH  13  15
HETATM   15  C   UNL     1      -8.237  16.522  68.331  1.00  0.00    -0.194 A  
HETATM   16  C   UNL     1      -7.640  17.749  68.673  1.00  0.00    -0.276 A  
HETATM   17  C   UNL     1      -6.338  18.053  68.267  1.00  0.00    -0.189 A  
HETATM   18  C   UNL     1      -5.611  17.134  67.514  1.00  0.00    -0.154 A  
HETATM   19  C   UNL     1      -6.188  15.915  67.168  1.00  0.00    -0.014 A  
HETATM   20  C   UNL     1      -7.489  15.618  67.575  1.00  0.00    -0.179 A  
HETATM   21  F   UNL     1      -7.996  14.427  67.223  1.00  0.00    -0.176 F  
ENDBRANCH  13  15
ENDBRANCH   8  10
TORSDOF 2
ENDMDL
MODEL       77
REMARK 921   NORMALIZED FREE ENERGY PREDICTED BY IDOCK:   -5.84 KCAL/MOL
REMARK 922        TOTAL FREE ENERGY PREDICTED BY IDOCK:   -6.90 KCAL/MOL
REMARK 923 INTER-LIGAND FREE ENERGY PREDICTED BY IDOCK:   -6.54 KCAL/MOL
REMARK 924 INTRA-LIGAND FREE ENERGY PREDICTED BY IDOCK:   -0.36 KCAL/MOL
REMARK 927      BINDING AFFINITY PREDICTED BY RF-SCORE:    0.00 PKD
ROOT
HETATM    1  O   UNL     1     -10.250   6.064  69.413  1.00  0.00    -0.179 OA 
HETATM    2  C   UNL     1     -10.027   5.958  68.087  1.00  0.00    -0.145 C  
HETATM    3  C   UNL     1      -9.901   7.263  67.395  1.00  0.00    -0.206 A  
HETATM    4  O   UNL     1      -9.896   4.892  67.512  1.00  0.00    -0.158 OA 
HETATM    5  C   UNL     1      -9.025   7.371  66.311  1.00  0.00    -0.192 A  
HETATM    6  C   UNL     1      -8.878   8.594  65.653  1.00  0.00    -0.227 A  
HETATM    7  C   UNL     1      -9.602   9.712  66.081  1.00  0.00    -0.295 A  
HETATM    8  C   UNL     1     -10.490   9.611  67.160  1.00  0.00    -0.317 A  
HETATM    9  C   UNL     1     -10.653   8.370  67.795  1.00  0.00    -0.238 A  
ENDROOT
BRANCH   8  10
HETATM   10  C   UNL     1     -11.216  10.767  67.674  1.00  0.00    -0.299 A  
HETATM   11  N   UNL     1     -11.740  11.742  66.917  1.00  0.00    -0.584 NA 
HETATM   12  O   UNL     1     -12.241  12.649  67.854  1.00  0.00    -0.311 OA 
HETATM   13  C   UNL     1     -11.969  12.132  69.088  1.00  0.00    -0.255 A  
HETATM   14  N   UNL     1     -11.353  10.973  69.030  1.00  0.00    -0.251 NA 
BRANCH  13  15
HETATM   15  C   UNL     1     -12.350  12.908  70.260  1.00  0.00    -0.294 A  
HETATM   16  C   UNL     1     -12.029  14.276  70.316  1.00  0.00    -0.398 A  
HETATM   17  C   UNL     1     -12.396  15.057  71.416  1.00  0.00    -0.395 A  
HETATM   18  C   UNL     1     -13.092  14.481  72.477  1.00  0.00    -0.518 A  
HETATM   19  C   UNL     1     -13.416  13.127  72.437  1.00  0.00    -0.643 A  
HETATM   20  C   UNL     1     -13.046  12.354  71.337  1.00  0.00    -0.204 A  
HETATM   21  F   UNL     1     -13.390  11.058  71.342  1.00  0.00    -0.431 F  
ENDBRANCH  13  15
ENDBRANCH   8  10
TORSDOF 2
ENDMDL
MODEL       78
REMARK 921   NORMALIZED FREE ENERGY PREDICTED BY IDOCK:   -5.79 KCAL/MOL
REMARK 922        TOTAL FREE ENERGY PREDICTED BY IDOCK:   -6.84 KCAL/MOL
REMARK 923 INTER-LIGAND FREE ENERGY PREDICTED BY IDOCK:   -6.50 KCAL/MOL
REMARK 924 INTRA-LIGAND FREE ENERGY PREDICTED BY IDOCK:   -0.34 KCAL/MOL
REMARK 927      BINDING AFFINITY PREDICTED BY RF-SCORE:    0.00 PKD
ROOT
HETATM    1  O   UNL     1     -10.441   8.394  68.854  1.00  0.00    -0.218 OA 
HETATM    2  C   UNL     1     -10.734   8.567  70.160  1.00  0.00    -0.235 C  
HETATM    3  C   UNL     1     -11.457   9.829  70.449  1.00  0.00    -0.347 A  
HETATM    4  O   UNL     1     -10.472   7.746  71.020  1.00  0.00    -0.203 OA 
HETATM    5  C   UNL     1     -12.405   9.845  71.477  1.00  0.00    -0.504 A  
HETATM    6  C   UNL     1     -13.108  11.018  71.758  1.00  0.00    -0.554 A  
HETATM    7  C   UNL     1     -12.869  12.175  71.010  1.00  0.00    -0.258 A  
HETATM    8  C   UNL     1     -11.915  12.172  69.984  1.00  0.00    -0.391 A  
HETATM    9  C   UNL     1     -11.192  10.996  69.729  1.00  0.00    -0.339 A  
ENDROOT
BRANCH   8  10
HETATM   10  C   UNL     1     -11.681  13.340  69.142  1.00  0.00    -0.329 A  
HETATM   11  N   UNL     1     -12.095  13.464  67.872  1.00  0.00    -0.311 NA 
HETATM   12  O   UNL     1     -11.559  14.691  67.473  1.00  0.00    -0.349 OA 
HETATM   13  C   UNL     1     -10.872  15.188  68.543  1.00  0.00    -0.247 A  
HETATM   14  N   UNL     1     -10.929  14.402  69.594  1.00  0.00    -0.203 NA 
BRANCH  13  15
HETATM   15  C   UNL     1     -10.169  16.454  68.385  1.00  0.00    -0.259 A  
HETATM   16  C   UNL     1     -10.871  17.578  67.914  1.00  0.00    -0.255 A  
HETATM   17  C   UNL     1     -10.234  18.814  67.769  1.00  0.00    -0.446 A  
HETATM   18  C   UNL     1      -8.886  18.945  68.094  1.00  0.00    -0.341 A  
HETATM   19  C   UNL     1      -8.178  17.841  68.562  1.00  0.00    -0.296 A  
HETATM   20  C   UNL     1      -8.819  16.611  68.704  1.00  0.00    -0.249 A  
HETATM   21  F   UNL     1      -8.095  15.581  69.167  1.00  0.00    -0.169 F  
ENDBRANCH  13  15
ENDBRANCH   8  10
TORSDOF 2
ENDMDL
MODEL       79
REMARK 921   NORMALIZED FREE ENERGY PREDICTED BY IDOCK:   -5.77 KCAL/MOL
REMARK 922        TOTAL FREE ENERGY PREDICTED BY IDOCK:   -6.81 KCAL/MOL
REMARK 923 INTER-LIGAND FREE ENERGY PREDICTED BY IDOCK:   -6.40 KCAL/MOL
REMARK 924 INTRA-LIGAND FREE ENERGY PREDICTED BY IDOCK:   -0.41 KCAL/MOL
REMARK 927      BINDING AFFINITY PREDICTED BY RF-SCORE:    0.00 PKD
ROOT
HETATM    1  O   UNL     1     -13.321   7.654  71.216  1.00  0.00    -0.302 OA 
HETATM    2  C   UNL     1     -12.220   7.057  71.717  1.00  0.00    -0.351 C  
HETATM    3  C   UNL     1     -10.962   7.788  71.435  1.00  0.00    -0.264 A  
HETATM    4  O   UNL     1     -12.253   6.035  72.379  1.00  0.00    -0.251 OA 
HETATM    5  C   UNL     1      -9.936   7.761  72.385  1.00  0.00    -0.272 A  
HETATM    6  C   UNL     1      -8.747   8.454  72.147  1.00  0.00    -0.272 A  
HETATM    7  C   UNL     1      -8.584   9.181  70.964  1.00  0.00    -0.236 A  
HETATM    8  C   UNL     1      -9.602   9.208  70.001  1.00  0.00    -0.218 A  
HETATM    9  C   UNL     1     -10.781   8.482  70.236  1.00  0.00    -0.242 A  
ENDROOT
BRANCH   8  10
HETATM   10  C   UNL     1      -9.494  10.003  68.783  1.00  0.00    -0.162 A  
HETATM   11  N   UNL     1      -8.421  10.726  68.433  1.00  0.00    -0.130 NA 
HETATM   12  O   UNL     1      -8.829  11.368  67.261  1.00  0.00    -0.147 OA 
HETATM   13  C   UNL     1     -10.112  10.969  67.018  1.00  0.00    -0.196 A  
HETATM   14  N   UNL     1     -10.560  10.122  67.917  1.00  0.00    -0.230 NA 
BRANCH  13  15
HETATM   15  C   UNL     1     -10.803  11.529  65.865  1.00  0.00    -0.316 A  
HETATM   16  C   UNL     1     -10.453  11.096  64.574  1.00  0.00    -0.415 A  
HETATM   17  C   UNL     1     -11.108  11.596  63.445  1.00  0.00    -0.422 A  
HETATM   18  C   UNL     1     -12.126  12.536  63.590  1.00  0.00    -0.642 A  
HETATM   19  C   UNL     1     -12.484  12.975  64.863  1.00  0.00    -0.512 A  
HETATM   20  C   UNL     1     -11.826  12.472  65.985  1.00  0.00    -0.418 A  
HETATM   21  F   UNL     1     -12.214  12.920  67.188  1.00  0.00    -0.406 F  
ENDBRANCH  13  15
ENDBRANCH   8  10
TORSDOF 2
ENDMDL
MODEL       80
REMARK 921   NORMALIZED FREE ENERGY PREDICTED BY IDOCK:   -5.71 KCAL/MOL
REMARK 922        TOTAL FREE ENERGY PREDICTED BY IDOCK:   -6.74 KCAL/MOL
REMARK 923 INTER-LIGAND FREE ENERGY PREDICTED BY IDOCK:   -6.69 KCAL/MOL
REMARK 924 INTRA-LIGAND FREE ENERGY PREDICTED BY IDOCK:   -0.06 KCAL/MOL
REMARK 927      BINDING AFFINITY PREDICTED BY RF-SCORE:    0.00 PKD
ROOT
HETATM    1  O   UNL     1     -12.420  14.561  63.987  1.00  0.00    -0.778 OA 
HETATM    2  C   UNL     1     -11.635  15.542  64.477  1.00  0.00    -0.283 C  
HETATM    3  C   UNL     1     -10.686  15.085  65.520  1.00  0.00    -0.372 A  
HETATM    4  O   UNL     1     -11.667  16.691  64.073  1.00  0.00    -1.143 OA 
HETATM    5  C   UNL     1      -9.428  15.691  65.602  1.00  0.00    -0.272 A  
HETATM    6  C   UNL     1      -8.512  15.267  66.567  1.00  0.00    -0.202 A  
HETATM    7  C   UNL     1      -8.849  14.234  67.448  1.00  0.00    -0.211 A  
HETATM    8  C   UNL     1     -10.110  13.627  67.380  1.00  0.00    -0.241 A  
HETATM    9  C   UNL     1     -11.035  14.081  66.426  1.00  0.00    -0.308 A  
ENDROOT
BRANCH   8  10
HETATM   10  C   UNL     1     -10.477  12.507  68.240  1.00  0.00    -0.234 A  
HETATM   11  N   UNL     1     -11.698  12.305  68.756  1.00  0.00    -0.324 NA 
HETATM   12  O   UNL     1     -11.527  11.181  69.567  1.00  0.00    -0.249 OA 
HETATM   13  C   UNL     1     -10.216  10.813  69.462  1.00  0.00    -0.113 A  
HETATM   14  N   UNL     1      -9.534  11.588  68.649  1.00  0.00    -0.173 NA 
BRANCH  13  15
HETATM   15  C   UNL     1      -9.751   9.681  70.249  1.00  0.00    -0.314 A  
HETATM   16  C   UNL     1      -8.554   9.036  69.890  1.00  0.00    -0.143 A  
HETATM   17  C   UNL     1      -8.066   7.958  70.634  1.00  0.00    -0.102 A  
HETATM   18  C   UNL     1      -8.767   7.509  71.751  1.00  0.00    -0.128 A  
HETATM   19  C   UNL     1      -9.953   8.138  72.120  1.00  0.00    -0.315 A  
HETATM   20  C   UNL     1     -10.435   9.212  71.372  1.00  0.00    -0.344 A  
HETATM   21  F   UNL     1     -11.578   9.788  71.774  1.00  0.00    -0.435 F  
ENDBRANCH  13  15
ENDBRANCH   8  10
TORSDOF 2
ENDMDL
MODEL       81
REMARK 921   NORMALIZED FREE ENERGY PREDICTED BY IDOCK:   -5.66 KCAL/MOL
REMARK 922        TOTAL FREE ENERGY PREDICTED BY IDOCK:   -6.69 KCAL/MOL
REMARK 923 INTER-LIGAND FREE ENERGY PREDICTED BY IDOCK:   -6.36 KCAL/MOL
REMARK 924 INTRA-LIGAND FREE ENERGY PREDICTED BY IDOCK:   -0.34 KCAL/MOL
REMARK 927      BINDING AFFINITY PREDICTED BY RF-SCORE:    0.00 PKD
ROOT
HETATM    1  O   UNL     1     -11.475  16.333  69.953  1.00  0.00    -0.301 OA 
HETATM    2  C   UNL     1     -11.098  16.117  68.676  1.00  0.00    -0.356 C  
HETATM    3  C   UNL     1     -11.391  14.747  68.190  1.00  0.00    -0.324 A  
HETATM    4  O   UNL     1     -10.603  16.975  67.968  1.00  0.00    -0.346 OA 
HETATM    5  C   UNL     1     -11.739  14.565  66.848  1.00  0.00    -0.399 A  
HETATM    6  C   UNL     1     -12.033  13.286  66.371  1.00  0.00    -0.465 A  
HETATM    7  C   UNL     1     -11.985  12.188  67.235  1.00  0.00    -0.158 A  
HETATM    8  C   UNL     1     -11.629  12.357  68.580  1.00  0.00    -0.358 A  
HETATM    9  C   UNL     1     -11.305  13.643  69.042  1.00  0.00    -0.333 A  
ENDROOT
BRANCH   8  10
HETATM   10  C   UNL     1     -11.627  11.247  69.526  1.00  0.00    -0.328 A  
HETATM   11  N   UNL     1     -12.095  11.309  70.781  1.00  0.00    -0.364 NA 
HETATM   12  O   UNL     1     -11.792  10.050  71.304  1.00  0.00    -0.354 OA 
HETATM   13  C   UNL     1     -11.169   9.349  70.311  1.00  0.00    -0.246 A  
HETATM   14  N   UNL     1     -11.056  10.036  69.198  1.00  0.00    -0.215 NA 
BRANCH  13  15
HETATM   15  C   UNL     1     -10.702   8.002  70.606  1.00  0.00    -0.235 A  
HETATM   16  C   UNL     1     -11.134   6.931  69.803  1.00  0.00    -0.316 A  
HETATM   17  C   UNL     1     -10.690   5.627  70.043  1.00  0.00    -0.390 A  
HETATM   18  C   UNL     1      -9.806   5.374  71.090  1.00  0.00    -0.243 A  
HETATM   19  C   UNL     1      -9.370   6.424  71.894  1.00  0.00    -0.154 A  
HETATM   20  C   UNL     1      -9.817   7.723  71.649  1.00  0.00    -0.163 A  
HETATM   21  F   UNL     1      -9.360   8.700  72.446  1.00  0.00    -0.309 F  
ENDBRANCH  13  15
ENDBRANCH   8  10
TORSDOF 2
ENDMDL
MODEL       82
REMARK 921   NORMALIZED FREE ENERGY PREDICTED BY IDOCK:   -5.64 KCAL/MOL
REMARK 922        TOTAL FREE ENERGY PREDICTED BY IDOCK:   -6.66 KCAL/MOL
REMARK 923 INTER-LIGAND FREE ENERGY PREDICTED BY IDOCK:   -6.29 KCAL/MOL
REMARK 924 INTRA-LIGAND FREE ENERGY PREDICTED BY IDOCK:   -0.38 KCAL/MOL
REMARK 927      BINDING AFFINITY PREDICTED BY RF-SCORE:    0.00 PKD
ROOT
HETATM    1  O   UNL     1     -10.915  19.032  65.000  1.00  0.00    -0.440 OA 
HETATM    2  C   UNL     1     -10.348  19.492  66.134  1.00  0.00    -0.520 C  
HETATM    3  C   UNL     1      -9.834  18.422  67.023  1.00  0.00    -0.335 A  
HETATM    4  O   UNL     1     -10.226  20.676  66.390  1.00  0.00    -0.198 OA 
HETATM    5  C   UNL     1      -8.684  18.666  67.779  1.00  0.00    -0.298 A  
HETATM    6  C   UNL     1      -8.173  17.668  68.613  1.00  0.00    -0.264 A  
HETATM    7  C   UNL     1      -8.809  16.424  68.688  1.00  0.00    -0.234 A  
HETATM    8  C   UNL     1      -9.968  16.173  67.941  1.00  0.00    -0.239 A  
HETATM    9  C   UNL     1     -10.490  17.193  67.130  1.00  0.00    -0.291 A  
ENDROOT
BRANCH   8  10
HETATM   10  C   UNL     1     -10.623  14.870  67.946  1.00  0.00    -0.254 A  
HETATM   11  N   UNL     1     -11.767  14.586  67.306  1.00  0.00    -0.396 NA 
HETATM   12  O   UNL     1     -12.032  13.267  67.682  1.00  0.00    -0.355 OA 
HETATM   13  C   UNL     1     -11.019  12.883  68.514  1.00  0.00    -0.259 A  
HETATM   14  N   UNL     1     -10.125  13.828  68.696  1.00  0.00    -0.222 NA 
BRANCH  13  15
HETATM   15  C   UNL     1     -11.071  11.549  69.094  1.00  0.00    -0.316 A  
HETATM   16  C   UNL     1     -11.932  11.300  70.178  1.00  0.00    -0.452 A  
HETATM   17  C   UNL     1     -12.023  10.026  70.747  1.00  0.00    -0.426 A  
HETATM   18  C   UNL     1     -11.255   8.980  70.239  1.00  0.00    -0.232 A  
HETATM   19  C   UNL     1     -10.398   9.211  69.166  1.00  0.00    -0.223 A  
HETATM   20  C   UNL     1     -10.312  10.484  68.604  1.00  0.00    -0.185 A  
HETATM   21  F   UNL     1      -9.478  10.652  67.566  1.00  0.00    -0.152 F  
ENDBRANCH  13  15
ENDBRANCH   8  10
TORSDOF 2
ENDMDL
MODEL       83
REMARK 921   NORMALIZED FREE ENERGY PREDICTED BY IDOCK:   -5.59 KCAL/MOL
REMARK 922        TOTAL FREE ENERGY PREDICTED BY IDOCK:   -6.62 KCAL/MOL
REMARK 923 INTER-LIGAND FREE ENERGY PREDICTED BY IDOCK:   -6.24 KCAL/MOL
REMARK 924 INTRA-LIGAND FREE ENERGY PREDICTED BY IDOCK:   -0.37 KCAL/MOL
REMARK 927      BINDING AFFINITY PREDICTED BY RF-SCORE:    0.00 PKD
ROOT
HETATM    1  O   UNL     1     -10.693   8.687  70.091  1.00  0.00    -0.228 OA 
HETATM    2  C   UNL     1     -10.560   7.942  68.974  1.00  0.00    -0.162 C  
HETATM    3  C   UNL     1     -10.278   8.736  67.755  1.00  0.00    -0.285 A  
HETATM    4  O   UNL     1     -10.622   6.725  68.969  1.00  0.00    -0.203 OA 
HETATM    5  C   UNL     1      -9.455   8.188  66.767  1.00  0.00    -0.256 A  
HETATM    6  C   UNL     1      -9.163   8.923  65.616  1.00  0.00    -0.268 A  
HETATM    7  C   UNL     1      -9.688  10.209  65.454  1.00  0.00    -0.355 A  
HETATM    8  C   UNL     1     -10.521  10.765  66.434  1.00  0.00    -0.293 A  
HETATM    9  C   UNL     1     -10.833  10.005  67.573  1.00  0.00    -0.326 A  
ENDROOT
BRANCH   8  10
HETATM   10  C   UNL     1     -11.037  12.124  66.331  1.00  0.00    -0.314 A  
HETATM   11  N   UNL     1     -12.077  12.493  65.568  1.00  0.00    -0.534 NA 
HETATM   12  O   UNL     1     -12.124  13.880  65.730  1.00  0.00    -0.378 OA 
HETATM   13  C   UNL     1     -11.106  14.214  66.576  1.00  0.00    -0.318 A  
HETATM   14  N   UNL     1     -10.419  13.170  66.982  1.00  0.00    -0.247 NA 
BRANCH  13  15
HETATM   15  C   UNL     1     -10.898  15.621  66.885  1.00  0.00    -0.282 A  
HETATM   16  C   UNL     1     -10.703  16.537  65.835  1.00  0.00    -0.194 A  
HETATM   17  C   UNL     1     -10.521  17.898  66.093  1.00  0.00    -0.321 A  
HETATM   18  C   UNL     1     -10.532  18.367  67.405  1.00  0.00    -0.443 A  
HETATM   19  C   UNL     1     -10.724  17.473  68.455  1.00  0.00    -0.280 A  
HETATM   20  C   UNL     1     -10.905  16.115  68.192  1.00  0.00    -0.329 A  
HETATM   21  F   UNL     1     -11.094  15.297  69.237  1.00  0.00    -0.226 F  
ENDBRANCH  13  15
ENDBRANCH   8  10
TORSDOF 2
ENDMDL
MODEL       84
REMARK 921   NORMALIZED FREE ENERGY PREDICTED BY IDOCK:   -5.58 KCAL/MOL
REMARK 922        TOTAL FREE ENERGY PREDICTED BY IDOCK:   -6.61 KCAL/MOL
REMARK 923 INTER-LIGAND FREE ENERGY PREDICTED BY IDOCK:   -6.30 KCAL/MOL
REMARK 924 INTRA-LIGAND FREE ENERGY PREDICTED BY IDOCK:   -0.30 KCAL/MOL
REMARK 927      BINDING AFFINITY PREDICTED BY RF-SCORE:    0.00 PKD
ROOT
HETATM    1  O   UNL     1      -6.412  14.743  68.088  1.00  0.00    -0.110 OA 
HETATM    2  C   UNL     1      -7.169  15.558  67.325  1.00  0.00    -0.207 C  
HETATM    3  C   UNL     1      -8.627  15.381  67.525  1.00  0.00    -0.187 A  
HETATM    4  O   UNL     1      -6.704  16.395  66.572  1.00  0.00    -0.238 OA 
HETATM    5  C   UNL     1      -9.464  16.496  67.421  1.00  0.00    -0.228 A  
HETATM    6  C   UNL     1     -10.839  16.356  67.619  1.00  0.00    -0.280 A  
HETATM    7  C   UNL     1     -11.379  15.103  67.927  1.00  0.00    -0.346 A  
HETATM    8  C   UNL     1     -10.550  13.978  68.025  1.00  0.00    -0.250 A  
HETATM    9  C   UNL     1      -9.173  14.124  67.794  1.00  0.00    -0.193 A  
ENDROOT
BRANCH   8  10
HETATM   10  C   UNL     1     -11.066  12.668  68.405  1.00  0.00    -0.265 A  
HETATM   11  N   UNL     1     -12.027  12.003  67.747  1.00  0.00    -0.553 NA 
HETATM   12  O   UNL     1     -12.234  10.867  68.533  1.00  0.00    -0.535 OA 
HETATM   13  C   UNL     1     -11.377  10.958  69.593  1.00  0.00    -0.292 A  
HETATM   14  N   UNL     1     -10.631  12.039  69.551  1.00  0.00     0.162 NA 
BRANCH  13  15
HETATM   15  C   UNL     1     -11.417   9.912  70.604  1.00  0.00    -0.411 A  
HETATM   16  C   UNL     1     -10.216   9.308  71.019  1.00  0.00    -0.384 A  
HETATM   17  C   UNL     1     -10.213   8.314  72.003  1.00  0.00    -0.339 A  
HETATM   18  C   UNL     1     -11.411   7.911  72.588  1.00  0.00    -0.468 A  
HETATM   19  C   UNL     1     -12.608   8.500  72.188  1.00  0.00    -0.431 A  
HETATM   20  C   UNL     1     -12.604   9.490  71.206  1.00  0.00    -0.339 A  
HETATM   21  F   UNL     1     -13.782  10.031  70.862  1.00  0.00    -0.409 F  
ENDBRANCH  13  15
ENDBRANCH   8  10
TORSDOF 2
ENDMDL
MODEL       85
REMARK 921   NORMALIZED FREE ENERGY PREDICTED BY IDOCK:   -5.56 KCAL/MOL
REMARK 922        TOTAL FREE ENERGY PREDICTED BY IDOCK:   -6.58 KCAL/MOL
REMARK 923 INTER-LIGAND FREE ENERGY PREDICTED BY IDOCK:   -6.21 KCAL/MOL
REMARK 924 INTRA-LIGAND FREE ENERGY PREDICTED BY IDOCK:   -0.37 KCAL/MOL
REMARK 927      BINDING AFFINITY PREDICTED BY RF-SCORE:    0.00 PKD
ROOT
HETATM    1  O   UNL     1      -8.806  10.820  68.859  1.00  0.00    -0.154 OA 
HETATM    2  C   UNL     1      -9.560  10.170  67.948  1.00  0.00    -0.148 C  
HETATM    3  C   UNL     1      -9.791  10.941  66.704  1.00  0.00    -0.237 A  
HETATM    4  O   UNL     1      -9.978   9.038  68.109  1.00  0.00    -0.161 OA 
HETATM    5  C   UNL     1      -9.884  10.254  65.490  1.00  0.00    -0.347 A  
HETATM    6  C   UNL     1     -10.087  10.960  64.302  1.00  0.00    -0.413 A  
HETATM    7  C   UNL     1     -10.193  12.355  64.326  1.00  0.00    -0.358 A  
HETATM    8  C   UNL     1     -10.111  13.053  65.538  1.00  0.00    -0.270 A  
HETATM    9  C   UNL     1      -9.937  12.331  66.729  1.00  0.00    -0.217 A  
ENDROOT
BRANCH   8  10
HETATM   10  C   UNL     1     -10.154  14.509  65.596  1.00  0.00    -0.359 A  
HETATM   11  N   UNL     1     -11.096  15.271  65.020  1.00  0.00    -0.408 NA 
HETATM   12  O   UNL     1     -10.660  16.574  65.273  1.00  0.00    -0.575 OA 
HETATM   13  C   UNL     1      -9.495  16.471  65.978  1.00  0.00    -0.282 A  
HETATM   14  N   UNL     1      -9.151  15.225  66.212  1.00  0.00    -0.305 NA 
BRANCH  13  15
HETATM   15  C   UNL     1      -8.796  17.696  66.339  1.00  0.00    -0.263 A  
HETATM   16  C   UNL     1      -7.523  17.950  65.797  1.00  0.00    -0.105 A  
HETATM   17  C   UNL     1      -6.832  19.125  66.105  1.00  0.00    -0.254 A  
HETATM   18  C   UNL     1      -7.402  20.066  66.959  1.00  0.00    -0.288 A  
HETATM   19  C   UNL     1      -8.662  19.829  67.504  1.00  0.00    -0.388 A  
HETATM   20  C   UNL     1      -9.347  18.654  67.193  1.00  0.00    -0.290 A  
HETATM   21  F   UNL     1     -10.560  18.478  67.737  1.00  0.00    -0.383 F  
ENDBRANCH  13  15
ENDBRANCH   8  10
TORSDOF 2
ENDMDL
MODEL       86
REMARK 921   NORMALIZED FREE ENERGY PREDICTED BY IDOCK:   -5.54 KCAL/MOL
REMARK 922        TOTAL FREE ENERGY PREDICTED BY IDOCK:   -6.56 KCAL/MOL
REMARK 923 INTER-LIGAND FREE ENERGY PREDICTED BY IDOCK:   -6.27 KCAL/MOL
REMARK 924 INTRA-LIGAND FREE ENERGY PREDICTED BY IDOCK:   -0.29 KCAL/MOL
REMARK 927      BINDING AFFINITY PREDICTED BY RF-SCORE:    0.00 PKD
ROOT
HETATM    1  O   UNL     1      -9.913  11.995  67.432  1.00  0.00    -0.190 OA 
HETATM    2  C   UNL     1     -11.113  12.273  66.880  1.00  0.00    -0.290 C  
HETATM    3  C   UNL     1     -11.161  13.577  66.179  1.00  0.00    -0.299 A  
HETATM    4  O   UNL     1     -12.059  11.507  66.913  1.00  0.00    -0.393 OA 
HETATM    5  C   UNL     1     -11.959  13.703  65.038  1.00  0.00    -0.401 A  
HETATM    6  C   UNL     1     -12.010  14.918  64.352  1.00  0.00    -0.408 A  
HETATM    7  C   UNL     1     -11.258  16.008  64.802  1.00  0.00    -0.348 A  
HETATM    8  C   UNL     1     -10.462  15.896  65.949  1.00  0.00    -0.373 A  
HETATM    9  C   UNL     1     -10.442  14.679  66.649  1.00  0.00    -0.278 A  
ENDROOT
BRANCH   8  10
HETATM   10  C   UNL     1      -9.617  16.991  66.414  1.00  0.00    -0.282 A  
HETATM   11  N   UNL     1      -9.396  18.128  65.740  1.00  0.00    -0.384 NA 
HETATM   12  O   UNL     1      -8.467  18.804  66.535  1.00  0.00    -0.285 OA 
HETATM   13  C   UNL     1      -8.216  18.005  67.614  1.00  0.00    -0.241 A  
HETATM   14  N   UNL     1      -8.907  16.888  67.591  1.00  0.00    -0.212 NA 
BRANCH  13  15
HETATM   15  C   UNL     1      -7.237  18.455  68.593  1.00  0.00    -0.301 A  
HETATM   16  C   UNL     1      -7.134  19.827  68.885  1.00  0.00    -0.358 A  
HETATM   17  C   UNL     1      -6.219  20.294  69.834  1.00  0.00    -0.354 A  
HETATM   18  C   UNL     1      -5.396  19.395  70.508  1.00  0.00    -0.244 A  
HETATM   19  C   UNL     1      -5.487  18.033  70.230  1.00  0.00    -0.253 A  
HETATM   20  C   UNL     1      -6.400  17.574  69.282  1.00  0.00    -0.244 A  
HETATM   21  F   UNL     1      -6.455  16.253  69.057  1.00  0.00    -0.130 F  
ENDBRANCH  13  15
ENDBRANCH   8  10
TORSDOF 2
ENDMDL
MODEL       87
REMARK 921   NORMALIZED FREE ENERGY PREDICTED BY IDOCK:   -5.52 KCAL/MOL
REMARK 922        TOTAL FREE ENERGY PREDICTED BY IDOCK:   -6.53 KCAL/MOL
REMARK 923 INTER-LIGAND FREE ENERGY PREDICTED BY IDOCK:   -6.17 KCAL/MOL
REMARK 924 INTRA-LIGAND FREE ENERGY PREDICTED BY IDOCK:   -0.36 KCAL/MOL
REMARK 927      BINDING AFFINITY PREDICTED BY RF-SCORE:    0.00 PKD
ROOT
HETATM    1  O   UNL     1     -13.659   7.480  71.306  1.00  0.00    -0.331 OA 
HETATM    2  C   UNL     1     -12.440   7.053  71.692  1.00  0.00    -0.374 C  
HETATM    3  C   UNL     1     -11.326   7.898  71.200  1.00  0.00    -0.289 A  
HETATM    4  O   UNL     1     -12.265   6.088  72.415  1.00  0.00    -0.251 OA 
HETATM    5  C   UNL     1     -10.194   8.061  72.004  1.00  0.00    -0.288 A  
HETATM    6  C   UNL     1      -9.138   8.864  71.568  1.00  0.00    -0.299 A  
HETATM    7  C   UNL     1      -9.215   9.510  70.329  1.00  0.00    -0.303 A  
HETATM    8  C   UNL     1     -10.341   9.347  69.512  1.00  0.00    -0.223 A  
HETATM    9  C   UNL     1     -11.383   8.513  69.946  1.00  0.00     0.051 A  
ENDROOT
BRANCH   8  10
HETATM   10  C   UNL     1     -10.485  10.052  68.243  1.00  0.00    -0.213 A  
HETATM   11  N   UNL     1     -10.410   9.477  67.034  1.00  0.00    -0.250 NA 
HETATM   12  O   UNL     1     -10.515  10.556  66.153  1.00  0.00    -0.230 OA 
HETATM   13  C   UNL     1     -10.641  11.680  66.918  1.00  0.00    -0.241 A  
HETATM   14  N   UNL     1     -10.641  11.421  68.206  1.00  0.00    -0.185 NA 
BRANCH  13  15
HETATM   15  C   UNL     1     -10.725  12.968  66.244  1.00  0.00    -0.290 A  
HETATM   16  C   UNL     1      -9.680  13.896  66.397  1.00  0.00    -0.309 A  
HETATM   17  C   UNL     1      -9.717  15.134  65.749  1.00  0.00    -0.379 A  
HETATM   18  C   UNL     1     -10.799  15.463  64.936  1.00  0.00    -0.445 A  
HETATM   19  C   UNL     1     -11.842  14.554  64.775  1.00  0.00    -0.446 A  
HETATM   20  C   UNL     1     -11.800  13.321  65.425  1.00  0.00    -0.359 A  
HETATM   21  F   UNL     1     -12.825  12.478  65.230  1.00  0.00    -0.518 F  
ENDBRANCH  13  15
ENDBRANCH   8  10
TORSDOF 2
ENDMDL
MODEL       88
REMARK 921   NORMALIZED FREE ENERGY PREDICTED BY IDOCK:   -5.50 KCAL/MOL
REMARK 922        TOTAL FREE ENERGY PREDICTED BY IDOCK:   -6.52 KCAL/MOL
REMARK 923 INTER-LIGAND FREE ENERGY PREDICTED BY IDOCK:   -6.15 KCAL/MOL
REMARK 924 INTRA-LIGAND FREE ENERGY PREDICTED BY IDOCK:   -0.37 KCAL/MOL
REMARK 927      BINDING AFFINITY PREDICTED BY RF-SCORE:    0.00 PKD
ROOT
HETATM    1  O   UNL     1      -7.808   8.407  67.117  1.00  0.00    -0.098 OA 
HETATM    2  C   UNL     1      -8.289   7.986  65.930  1.00  0.00    -0.134 C  
HETATM    3  C   UNL     1      -8.889   9.066  65.110  1.00  0.00    -0.224 A  
HETATM    4  O   UNL     1      -8.203   6.835  65.541  1.00  0.00    -0.122 OA 
HETATM    5  C   UNL     1      -8.771   9.004  63.719  1.00  0.00    -0.100 A  
HETATM    6  C   UNL     1      -9.315  10.017  62.927  1.00  0.00    -0.290 A  
HETATM    7  C   UNL     1      -9.973  11.097  63.525  1.00  0.00    -0.425 A  
HETATM    8  C   UNL     1     -10.105  11.164  64.918  1.00  0.00    -0.345 A  
HETATM    9  C   UNL     1      -9.581  10.125  65.703  1.00  0.00    -0.302 A  
ENDROOT
BRANCH   8  10
HETATM   10  C   UNL     1     -10.730  12.303  65.582  1.00  0.00    -0.267 A  
HETATM   11  N   UNL     1     -12.051  12.461  65.750  1.00  0.00    -0.610 NA 
HETATM   12  O   UNL     1     -12.156  13.722  66.341  1.00  0.00    -0.406 OA 
HETATM   13  C   UNL     1     -10.884  14.204  66.472  1.00  0.00    -0.298 A  
HETATM   14  N   UNL     1      -9.975  13.364  66.032  1.00  0.00    -0.296 NA 
BRANCH  13  15
HETATM   15  C   UNL     1     -10.705  15.537  67.028  1.00  0.00    -0.321 A  
HETATM   16  C   UNL     1     -10.365  16.601  66.173  1.00  0.00    -0.340 A  
HETATM   17  C   UNL     1     -10.205  17.899  66.667  1.00  0.00    -0.371 A  
HETATM   18  C   UNL     1     -10.383  18.153  68.025  1.00  0.00    -0.405 A  
HETATM   19  C   UNL     1     -10.720  17.110  68.885  1.00  0.00    -0.257 A  
HETATM   20  C   UNL     1     -10.878  15.818  68.385  1.00  0.00    -0.297 A  
HETATM   21  F   UNL     1     -11.211  14.850  69.252  1.00  0.00    -0.236 F  
ENDBRANCH  13  15
ENDBRANCH   8  10
TORSDOF 2
ENDMDL
MODEL       89
REMARK 921   NORMALIZED FREE ENERGY PREDICTED BY IDOCK:   -5.48 KCAL/MOL
REMARK 922        TOTAL FREE ENERGY PREDICTED BY IDOCK:   -6.49 KCAL/MOL
REMARK 923 INTER-LIGAND FREE ENERGY PREDICTED BY IDOCK:   -6.12 KCAL/MOL
REMARK 924 INTRA-LIGAND FREE ENERGY PREDICTED BY IDOCK:   -0.37 KCAL/MOL
REMARK 927      BINDING AFFINITY PREDICTED BY RF-SCORE:    0.00 PKD
ROOT
HETATM    1  O   UNL     1     -10.837  18.738  65.165  1.00  0.00    -0.523 OA 
HETATM    2  C   UNL     1     -10.693  18.971  66.486  1.00  0.00    -0.326 C  
HETATM    3  C   UNL     1     -10.295  17.774  67.265  1.00  0.00    -0.364 A  
HETATM    4  O   UNL     1     -10.832  20.069  66.992  1.00  0.00    -0.352 OA 
HETATM    5  C   UNL     1      -9.458  17.935  68.373  1.00  0.00    -0.304 A  
HETATM    6  C   UNL     1      -9.058  16.821  69.113  1.00  0.00    -0.120 A  
HETATM    7  C   UNL     1      -9.489  15.543  68.743  1.00  0.00    -0.210 A  
HETATM    8  C   UNL     1     -10.335  15.370  67.640  1.00  0.00    -0.262 A  
HETATM    9  C   UNL     1     -10.756  16.500  66.921  1.00  0.00    -0.175 A  
ENDROOT
BRANCH   8  10
HETATM   10  C   UNL     1     -10.756  14.050  67.187  1.00  0.00    -0.283 A  
HETATM   11  N   UNL     1     -12.005  13.728  66.818  1.00  0.00    -0.413 NA 
HETATM   12  O   UNL     1     -11.926  12.357  66.563  1.00  0.00    -0.564 OA 
HETATM   13  C   UNL     1     -10.635  11.983  66.805  1.00  0.00    -0.227 A  
HETATM   14  N   UNL     1      -9.877  12.989  67.177  1.00  0.00    -0.226 NA 
BRANCH  13  15
HETATM   15  C   UNL     1     -10.284  10.578  66.657  1.00  0.00    -0.289 A  
HETATM   16  C   UNL     1     -10.740   9.649  67.609  1.00  0.00    -0.324 A  
HETATM   17  C   UNL     1     -10.440   8.289  67.489  1.00  0.00    -0.325 A  
HETATM   18  C   UNL     1      -9.680   7.837  66.413  1.00  0.00    -0.219 A  
HETATM   19  C   UNL     1      -9.221   8.744  65.461  1.00  0.00    -0.202 A  
HETATM   20  C   UNL     1      -9.524  10.100  65.588  1.00  0.00    -0.220 A  
HETATM   21  F   UNL     1      -9.066  10.932  64.641  1.00  0.00    -0.197 F  
ENDBRANCH  13  15
ENDBRANCH   8  10
TORSDOF 2
ENDMDL
MODEL       90
REMARK 921   NORMALIZED FREE ENERGY PREDICTED BY IDOCK:   -5.46 KCAL/MOL
REMARK 922        TOTAL FREE ENERGY PREDICTED BY IDOCK:   -6.47 KCAL/MOL
REMARK 923 INTER-LIGAND FREE ENERGY PREDICTED BY IDOCK:   -6.48 KCAL/MOL
REMARK 924 INTRA-LIGAND FREE ENERGY PREDICTED BY IDOCK:    0.01 KCAL/MOL
REMARK 927      BINDING AFFINITY PREDICTED BY RF-SCORE:    0.00 PKD
ROOT
HETATM    1  O   UNL     1     -11.262  18.039  64.950  1.00  0.00    -0.618 OA 
HETATM    2  C   UNL     1     -10.474  18.866  65.667  1.00  0.00    -0.140 C  
HETATM    3  C   UNL     1      -9.973  18.271  66.929  1.00  0.00    -0.356 A  
HETATM    4  O   UNL     1     -10.163  19.984  65.297  1.00  0.00    -0.259 OA 
HETATM    5  C   UNL     1      -8.699  18.623  67.383  1.00  0.00    -0.281 A  
HETATM    6  C   UNL     1      -8.199  18.064  68.562  1.00  0.00    -0.311 A  
HETATM    7  C   UNL     1      -8.971  17.148  69.284  1.00  0.00     0.129 A  
HETATM    8  C   UNL     1     -10.253  16.795  68.843  1.00  0.00    -0.304 A  
HETATM    9  C   UNL     1     -10.757  17.386  67.673  1.00  0.00    -0.310 A  
ENDROOT
BRANCH   8  10
HETATM   10  C   UNL     1     -11.062  15.799  69.534  1.00  0.00    -0.306 A  
HETATM   11  N   UNL     1     -11.928  16.067  70.523  1.00  0.00    -0.314 NA 
HETATM   12  O   UNL     1     -12.377  14.803  70.914  1.00  0.00    -0.277 OA 
HETATM   13  C   UNL     1     -11.737  13.893  70.122  1.00  0.00    -0.244 A  
HETATM   14  N   UNL     1     -10.930  14.456  69.252  1.00  0.00    -0.258 NA 
BRANCH  13  15
HETATM   15  C   UNL     1     -11.993  12.478  70.351  1.00  0.00    -0.335 A  
HETATM   16  C   UNL     1     -11.317  11.521  69.573  1.00  0.00    -0.342 A  
HETATM   17  C   UNL     1     -11.522  10.153  69.778  1.00  0.00    -0.288 A  
HETATM   18  C   UNL     1     -12.405   9.722  70.765  1.00  0.00    -0.321 A  
HETATM   19  C   UNL     1     -13.081  10.658  71.544  1.00  0.00    -0.527 A  
HETATM   20  C   UNL     1     -12.872  12.021  71.334  1.00  0.00    -0.288 A  
HETATM   21  F   UNL     1     -13.541  12.881  72.116  1.00  0.00    -0.536 F  
ENDBRANCH  13  15
ENDBRANCH   8  10
TORSDOF 2
ENDMDL
MODEL       91
REMARK 921   NORMALIZED FREE ENERGY PREDICTED BY IDOCK:   -5.44 KCAL/MOL
REMARK 922        TOTAL FREE ENERGY PREDICTED BY IDOCK:   -6.45 KCAL/MOL
REMARK 923 INTER-LIGAND FREE ENERGY PREDICTED BY IDOCK:   -6.09 KCAL/MOL
REMARK 924 INTRA-LIGAND FREE ENERGY PREDICTED BY IDOCK:   -0.36 KCAL/MOL
REMARK 927      BINDING AFFINITY PREDICTED BY RF-SCORE:    0.00 PKD
ROOT
HETATM    1  O   UNL     1     -10.720  16.080  67.642  1.00  0.00    -0.310 OA 
HETATM    2  C   UNL     1     -10.645  16.006  66.297  1.00  0.00    -0.285 C  
HETATM    3  C   UNL     1     -11.057  14.692  65.747  1.00  0.00    -0.331 A  
HETATM    4  O   UNL     1     -10.312  16.940  65.591  1.00  0.00    -0.523 OA 
HETATM    5  C   UNL     1     -11.701  14.651  64.507  1.00  0.00    -0.410 A  
HETATM    6  C   UNL     1     -12.112  13.427  63.975  1.00  0.00    -0.506 A  
HETATM    7  C   UNL     1     -11.884  12.243  64.684  1.00  0.00    -0.435 A  
HETATM    8  C   UNL     1     -11.231  12.272  65.923  1.00  0.00    -0.381 A  
HETATM    9  C   UNL     1     -10.795  13.505  66.434  1.00  0.00    -0.291 A  
ENDROOT
BRANCH   8  10
HETATM   10  C   UNL     1     -11.029  11.067  66.720  1.00  0.00    -0.217 A  
HETATM   11  N   UNL     1     -11.578  10.843  67.923  1.00  0.00    -0.549 NA 
HETATM   12  O   UNL     1     -11.023   9.622  68.312  1.00  0.00    -0.206 OA 
HETATM   13  C   UNL     1     -10.190   9.228  67.305  1.00  0.00    -0.252 A  
HETATM   14  N   UNL     1     -10.170  10.075  66.301  1.00  0.00    -0.235 NA 
BRANCH  13  15
HETATM   15  C   UNL     1      -9.439   7.992  67.474  1.00  0.00    -0.177 A  
HETATM   16  C   UNL     1      -8.037   8.045  67.577  1.00  0.00    -0.123 A  
HETATM   17  C   UNL     1      -7.285   6.881  67.760  1.00  0.00    -0.091 A  
HETATM   18  C   UNL     1      -7.923   5.646  67.845  1.00  0.00    -0.097 A  
HETATM   19  C   UNL     1      -9.311   5.577  67.745  1.00  0.00    -0.119 A  
HETATM   20  C   UNL     1     -10.055   6.742  67.561  1.00  0.00    -0.170 A  
HETATM   21  F   UNL     1     -11.389   6.623  67.480  1.00  0.00    -0.382 F  
ENDBRANCH  13  15
ENDBRANCH   8  10
TORSDOF 2
ENDMDL
MODEL       92
REMARK 921   NORMALIZED FREE ENERGY PREDICTED BY IDOCK:   -5.36 KCAL/MOL
REMARK 922        TOTAL FREE ENERGY PREDICTED BY IDOCK:   -6.35 KCAL/MOL
REMARK 923 INTER-LIGAND FREE ENERGY PREDICTED BY IDOCK:   -5.95 KCAL/MOL
REMARK 924 INTRA-LIGAND FREE ENERGY PREDICTED BY IDOCK:   -0.40 KCAL/MOL
REMARK 927      BINDING AFFINITY PREDICTED BY RF-SCORE:    0.00 PKD
ROOT
HETATM    1  O   UNL     1      -7.206   6.557  70.353  1.00  0.00    -0.075 OA 
HETATM    2  C   UNL     1      -7.606   5.876  71.446  1.00  0.00    -0.098 C  
HETATM    3  C   UNL     1      -9.050   6.021  71.746  1.00  0.00    -0.148 A  
HETATM    4  O   UNL     1      -6.864   5.170  72.105  1.00  0.00    -0.060 OA 
HETATM    5  C   UNL     1      -9.737   4.938  72.303  1.00  0.00    -0.207 A  
HETATM    6  C   UNL     1     -11.102   5.046  72.581  1.00  0.00    -0.265 A  
HETATM    7  C   UNL     1     -11.783   6.235  72.297  1.00  0.00    -0.344 A  
HETATM    8  C   UNL     1     -11.102   7.329  71.747  1.00  0.00    -0.265 A  
HETATM    9  C   UNL     1      -9.724   7.220  71.501  1.00  0.00    -0.168 A  
ENDROOT
BRANCH   8  10
HETATM   10  C   UNL     1     -11.788   8.562  71.381  1.00  0.00    -0.296 A  
HETATM   11  N   UNL     1     -13.084   8.816  71.613  1.00  0.00    -0.341 NA 
HETATM   12  O   UNL     1     -13.287  10.059  71.008  1.00  0.00    -0.385 OA 
HETATM   13  C   UNL     1     -12.090  10.434  70.467  1.00  0.00    -0.332 A  
HETATM   14  N   UNL     1     -11.138   9.555  70.681  1.00  0.00    -0.275 NA 
BRANCH  13  15
HETATM   15  C   UNL     1     -12.029  11.688  69.730  1.00  0.00    -0.402 A  
HETATM   16  C   UNL     1     -12.241  12.900  70.410  1.00  0.00    -0.381 A  
HETATM   17  C   UNL     1     -12.170  14.124  69.739  1.00  0.00    -0.397 A  
HETATM   18  C   UNL     1     -11.885  14.155  68.376  1.00  0.00    -0.388 A  
HETATM   19  C   UNL     1     -11.673  12.963  67.688  1.00  0.00    -0.422 A  
HETATM   20  C   UNL     1     -11.745  11.745  68.363  1.00  0.00    -0.325 A  
HETATM   21  F   UNL     1     -11.524  10.627  67.657  1.00  0.00    -0.375 F  
ENDBRANCH  13  15
ENDBRANCH   8  10
TORSDOF 2
ENDMDL
MODEL       93
REMARK 921   NORMALIZED FREE ENERGY PREDICTED BY IDOCK:   -5.34 KCAL/MOL
REMARK 922        TOTAL FREE ENERGY PREDICTED BY IDOCK:   -6.34 KCAL/MOL
REMARK 923 INTER-LIGAND FREE ENERGY PREDICTED BY IDOCK:   -6.06 KCAL/MOL
REMARK 924 INTRA-LIGAND FREE ENERGY PREDICTED BY IDOCK:   -0.28 KCAL/MOL
REMARK 927      BINDING AFFINITY PREDICTED BY RF-SCORE:    0.00 PKD
ROOT
HETATM    1  O   UNL     1     -10.862   5.495  70.447  1.00  0.00    -0.277 OA 
HETATM    2  C   UNL     1      -9.531   5.696  70.367  1.00  0.00    -0.166 C  
HETATM    3  C   UNL     1      -9.148   7.120  70.226  1.00  0.00    -0.156 A  
HETATM    4  O   UNL     1      -8.711   4.798  70.448  1.00  0.00    -0.095 OA 
HETATM    5  C   UNL     1      -7.961   7.564  70.817  1.00  0.00    -0.103 A  
HETATM    6  C   UNL     1      -7.587   8.905  70.709  1.00  0.00    -0.110 A  
HETATM    7  C   UNL     1      -8.401   9.806  70.015  1.00  0.00    -0.211 A  
HETATM    8  C   UNL     1      -9.588   9.370  69.411  1.00  0.00    -0.177 A  
HETATM    9  C   UNL     1      -9.939   8.014  69.499  1.00  0.00    -0.186 A  
ENDROOT
BRANCH   8  10
HETATM   10  C   UNL     1     -10.493  10.290  68.731  1.00  0.00    -0.203 A  
HETATM   11  N   UNL     1     -11.691  10.671  69.198  1.00  0.00    -0.275 NA 
HETATM   12  O   UNL     1     -12.204  11.464  68.169  1.00  0.00    -0.602 OA 
HETATM   13  C   UNL     1     -11.264  11.484  67.179  1.00  0.00    -0.301 A  
HETATM   14  N   UNL     1     -10.191  10.789  67.482  1.00  0.00    -0.188 NA 
BRANCH  13  15
HETATM   15  C   UNL     1     -11.565  12.213  65.955  1.00  0.00    -0.420 A  
HETATM   16  C   UNL     1     -12.216  13.458  66.036  1.00  0.00    -0.491 A  
HETATM   17  C   UNL     1     -12.503  14.195  64.883  1.00  0.00    -0.419 A  
HETATM   18  C   UNL     1     -12.143  13.700  63.632  1.00  0.00    -0.397 A  
HETATM   19  C   UNL     1     -11.498  12.469  63.536  1.00  0.00    -0.570 A  
HETATM   20  C   UNL     1     -11.215  11.738  64.689  1.00  0.00    -0.286 A  
HETATM   21  F   UNL     1     -10.585  10.563  64.544  1.00  0.00    -0.426 F  
ENDBRANCH  13  15
ENDBRANCH   8  10
TORSDOF 2
ENDMDL
MODEL       94
REMARK 921   NORMALIZED FREE ENERGY PREDICTED BY IDOCK:   -5.33 KCAL/MOL
REMARK 922        TOTAL FREE ENERGY PREDICTED BY IDOCK:   -6.33 KCAL/MOL
REMARK 923 INTER-LIGAND FREE ENERGY PREDICTED BY IDOCK:   -5.93 KCAL/MOL
REMARK 924 INTRA-LIGAND FREE ENERGY PREDICTED BY IDOCK:   -0.39 KCAL/MOL
REMARK 927      BINDING AFFINITY PREDICTED BY RF-SCORE:    0.00 PKD
ROOT
HETATM    1  O   UNL     1      -6.325  16.189  66.877  1.00  0.00    -0.301 OA 
HETATM    2  C   UNL     1      -7.183  17.229  66.827  1.00  0.00    -0.214 C  
HETATM    3  C   UNL     1      -8.547  16.903  67.305  1.00  0.00    -0.212 A  
HETATM    4  O   UNL     1      -6.862  18.346  66.464  1.00  0.00    -0.188 OA 
HETATM    5  C   UNL     1      -9.284  17.887  67.971  1.00  0.00    -0.267 A  
HETATM    6  C   UNL     1     -10.566  17.599  68.444  1.00  0.00    -0.318 A  
HETATM    7  C   UNL     1     -11.112  16.325  68.257  1.00  0.00    -0.346 A  
HETATM    8  C   UNL     1     -10.386  15.333  67.583  1.00  0.00    -0.250 A  
HETATM    9  C   UNL     1      -9.110  15.643  67.085  1.00  0.00    -0.227 A  
ENDROOT
BRANCH   8  10
HETATM   10  C   UNL     1     -10.895  13.976  67.422  1.00  0.00    -0.282 A  
HETATM   11  N   UNL     1     -12.144  13.666  67.046  1.00  0.00    -0.397 NA 
HETATM   12  O   UNL     1     -12.172  12.272  67.127  1.00  0.00    -0.506 OA 
HETATM   13  C   UNL     1     -10.935  11.875  67.546  1.00  0.00    -0.247 A  
HETATM   14  N   UNL     1     -10.113  12.884  67.728  1.00  0.00    -0.223 NA 
BRANCH  13  15
HETATM   15  C   UNL     1     -10.700  10.455  67.759  1.00  0.00    -0.327 A  
HETATM   16  C   UNL     1     -10.395   9.633  66.659  1.00  0.00    -0.279 A  
HETATM   17  C   UNL     1     -10.144   8.269  66.828  1.00  0.00    -0.373 A  
HETATM   18  C   UNL     1     -10.192   7.704  68.100  1.00  0.00    -0.236 A  
HETATM   19  C   UNL     1     -10.493   8.504  69.200  1.00  0.00    -0.217 A  
HETATM   20  C   UNL     1     -10.744   9.865  69.024  1.00  0.00    -0.222 A  
HETATM   21  F   UNL     1     -11.020  10.594  70.116  1.00  0.00    -0.302 F  
ENDBRANCH  13  15
ENDBRANCH   8  10
TORSDOF 2
ENDMDL
MODEL       95
REMARK 921   NORMALIZED FREE ENERGY PREDICTED BY IDOCK:   -5.28 KCAL/MOL
REMARK 922        TOTAL FREE ENERGY PREDICTED BY IDOCK:   -6.27 KCAL/MOL
REMARK 923 INTER-LIGAND FREE ENERGY PREDICTED BY IDOCK:   -5.90 KCAL/MOL
REMARK 924 INTRA-LIGAND FREE ENERGY PREDICTED BY IDOCK:   -0.37 KCAL/MOL
REMARK 927      BINDING AFFINITY PREDICTED BY RF-SCORE:    0.00 PKD
ROOT
HETATM    1  O   UNL     1     -10.785   8.554  66.951  1.00  0.00    -0.265 OA 
HETATM    2  C   UNL     1      -9.551   8.636  66.412  1.00  0.00    -0.247 C  
HETATM    3  C   UNL     1      -8.886   9.942  66.634  1.00  0.00    -0.149 A  
HETATM    4  O   UNL     1      -9.010   7.712  65.833  1.00  0.00    -0.166 OA 
HETATM    5  C   UNL     1      -7.499   9.974  66.806  1.00  0.00    -0.096 A  
HETATM    6  C   UNL     1      -6.852  11.191  67.031  1.00  0.00    -0.119 A  
HETATM    7  C   UNL     1      -7.592  12.377  67.091  1.00  0.00    -0.104 A  
HETATM    8  C   UNL     1      -8.981  12.357  66.912  1.00  0.00    -0.212 A  
HETATM    9  C   UNL     1      -9.618  11.132  66.656  1.00  0.00    -0.215 A  
ENDROOT
BRANCH   8  10
HETATM   10  C   UNL     1      -9.793  13.563  67.028  1.00  0.00    -0.251 A  
HETATM   11  N   UNL     1     -11.121  13.613  66.845  1.00  0.00    -0.299 NA 
HETATM   12  O   UNL     1     -11.416  14.973  66.970  1.00  0.00    -0.344 OA 
HETATM   13  C   UNL     1     -10.235  15.613  67.216  1.00  0.00    -0.266 A  
HETATM   14  N   UNL     1      -9.213  14.789  67.274  1.00  0.00    -0.195 NA 
BRANCH  13  15
HETATM   15  C   UNL     1     -10.249  17.062  67.347  1.00  0.00    -0.314 A  
HETATM   16  C   UNL     1      -9.942  17.646  68.589  1.00  0.00    -0.367 A  
HETATM   17  C   UNL     1      -9.926  19.035  68.747  1.00  0.00    -0.475 A  
HETATM   18  C   UNL     1     -10.215  19.862  67.665  1.00  0.00    -0.564 A  
HETATM   19  C   UNL     1     -10.520  19.299  66.428  1.00  0.00    -0.563 A  
HETATM   20  C   UNL     1     -10.536  17.913  66.277  1.00  0.00    -0.320 A  
HETATM   21  F   UNL     1     -10.827  17.421  65.064  1.00  0.00    -0.366 F  
ENDBRANCH  13  15
ENDBRANCH   8  10
TORSDOF 2
ENDMDL
MODEL       96
REMARK 921   NORMALIZED FREE ENERGY PREDICTED BY IDOCK:   -5.28 KCAL/MOL
REMARK 922        TOTAL FREE ENERGY PREDICTED BY IDOCK:   -6.26 KCAL/MOL
REMARK 923 INTER-LIGAND FREE ENERGY PREDICTED BY IDOCK:   -5.86 KCAL/MOL
REMARK 924 INTRA-LIGAND FREE ENERGY PREDICTED BY IDOCK:   -0.40 KCAL/MOL
REMARK 927      BINDING AFFINITY PREDICTED BY RF-SCORE:    0.00 PKD
ROOT
HETATM    1  O   UNL     1      -5.913  10.872  66.295  1.00  0.00    -0.110 OA 
HETATM    2  C   UNL     1      -6.369   9.990  65.382  1.00  0.00    -0.101 C  
HETATM    3  C   UNL     1      -7.704  10.333  64.835  1.00  0.00    -0.124 A  
HETATM    4  O   UNL     1      -5.731   9.024  65.006  1.00  0.00    -0.056 OA 
HETATM    5  C   UNL     1      -7.988  10.020  63.502  1.00  0.00    -0.157 A  
HETATM    6  C   UNL     1      -9.233  10.346  62.960  1.00  0.00    -0.312 A  
HETATM    7  C   UNL     1     -10.193  10.990  63.747  1.00  0.00    -0.425 A  
HETATM    8  C   UNL     1      -9.922  11.299  65.086  1.00  0.00    -0.312 A  
HETATM    9  C   UNL     1      -8.679  10.940  65.630  1.00  0.00    -0.190 A  
ENDROOT
BRANCH   8  10
HETATM   10  C   UNL     1     -10.874  12.023  65.921  1.00  0.00    -0.288 A  
HETATM   11  N   UNL     1     -11.987  12.621  65.472  1.00  0.00    -0.437 NA 
HETATM   12  O   UNL     1     -12.503  13.245  66.610  1.00  0.00    -0.278 OA 
HETATM   13  C   UNL     1     -11.649  12.964  67.637  1.00  0.00    -0.355 A  
HETATM   14  N   UNL     1     -10.641  12.207  67.267  1.00  0.00    -0.223 NA 
BRANCH  13  15
HETATM   15  C   UNL     1     -11.930  13.536  68.946  1.00  0.00    -0.378 A  
HETATM   16  C   UNL     1     -12.001  14.933  69.087  1.00  0.00    -0.313 A  
HETATM   17  C   UNL     1     -12.289  15.518  70.324  1.00  0.00    -0.431 A  
HETATM   18  C   UNL     1     -12.513  14.713  71.439  1.00  0.00    -0.410 A  
HETATM   19  C   UNL     1     -12.447  13.328  71.315  1.00  0.00    -0.351 A  
HETATM   20  C   UNL     1     -12.158  12.751  70.078  1.00  0.00    -0.285 A  
HETATM   21  F   UNL     1     -12.114  11.412  70.010  1.00  0.00    -0.326 F  
ENDBRANCH  13  15
ENDBRANCH   8  10
TORSDOF 2
ENDMDL
MODEL       97
REMARK 921   NORMALIZED FREE ENERGY PREDICTED BY IDOCK:   -5.25 KCAL/MOL
REMARK 922        TOTAL FREE ENERGY PREDICTED BY IDOCK:   -6.24 KCAL/MOL
REMARK 923 INTER-LIGAND FREE ENERGY PREDICTED BY IDOCK:   -5.90 KCAL/MOL
REMARK 924 INTRA-LIGAND FREE ENERGY PREDICTED BY IDOCK:   -0.34 KCAL/MOL
REMARK 927      BINDING AFFINITY PREDICTED BY RF-SCORE:    0.00 PKD
ROOT
HETATM    1  O   UNL     1     -12.142  12.741  68.261  1.00  0.00    -0.282 OA 
HETATM    2  C   UNL     1     -11.056  12.909  67.479  1.00  0.00    -0.269 C  
HETATM    3  C   UNL     1     -10.565  11.655  66.860  1.00  0.00    -0.276 A  
HETATM    4  O   UNL     1     -10.548  13.994  67.261  1.00  0.00    -0.270 OA 
HETATM    5  C   UNL     1     -10.000  11.708  65.582  1.00  0.00    -0.274 A  
HETATM    6  C   UNL     1      -9.543  10.538  64.973  1.00  0.00    -0.331 A  
HETATM    7  C   UNL     1      -9.654   9.312  65.637  1.00  0.00    -0.324 A  
HETATM    8  C   UNL     1     -10.210   9.249  66.922  1.00  0.00    -0.327 A  
HETATM    9  C   UNL     1     -10.639  10.436  67.538  1.00  0.00    -0.312 A  
ENDROOT
BRANCH   8  10
HETATM   10  C   UNL     1     -10.400   7.984  67.622  1.00  0.00    -0.246 A  
HETATM   11  N   UNL     1     -10.678   6.814  67.028  1.00  0.00    -0.342 NA 
HETATM   12  O   UNL     1     -10.856   5.938  68.102  1.00  0.00    -0.271 OA 
HETATM   13  C   UNL     1     -10.669   6.667  69.242  1.00  0.00    -0.265 A  
HETATM   14  N   UNL     1     -10.374   7.923  68.998  1.00  0.00    -0.213 NA 
BRANCH  13  15
HETATM   15  C   UNL     1     -10.841   5.999  70.524  1.00  0.00    -0.382 A  
HETATM   16  C   UNL     1     -10.224   4.754  70.742  1.00  0.00    -0.246 A  
HETATM   17  C   UNL     1     -10.351   4.094  71.968  1.00  0.00    -0.145 A  
HETATM   18  C   UNL     1     -11.095   4.669  72.995  1.00  0.00    -0.327 A  
HETATM   19  C   UNL     1     -11.712   5.901  72.794  1.00  0.00    -0.183 A  
HETATM   20  C   UNL     1     -11.583   6.555  71.569  1.00  0.00    -0.315 A  
HETATM   21  F   UNL     1     -12.189   7.743  71.429  1.00  0.00    -0.296 F  
ENDBRANCH  13  15
ENDBRANCH   8  10
TORSDOF 2
ENDMDL
MODEL       98
REMARK 921   NORMALIZED FREE ENERGY PREDICTED BY IDOCK:   -5.24 KCAL/MOL
REMARK 922        TOTAL FREE ENERGY PREDICTED BY IDOCK:   -6.23 KCAL/MOL
REMARK 923 INTER-LIGAND FREE ENERGY PREDICTED BY IDOCK:   -6.07 KCAL/MOL
REMARK 924 INTRA-LIGAND FREE ENERGY PREDICTED BY IDOCK:   -0.15 KCAL/MOL
REMARK 927      BINDING AFFINITY PREDICTED BY RF-SCORE:    0.00 PKD
ROOT
HETATM    1  O   UNL     1      -7.882   6.206  69.410  1.00  0.00    -0.097 OA 
HETATM    2  C   UNL     1      -8.372   5.717  70.568  1.00  0.00    -0.119 C  
HETATM    3  C   UNL     1      -9.666   6.318  70.971  1.00  0.00    -0.196 A  
HETATM    4  O   UNL     1      -7.829   4.833  71.206  1.00  0.00    -0.083 OA 
HETATM    5  C   UNL     1     -10.601   5.523  71.641  1.00  0.00    -0.294 A  
HETATM    6  C   UNL     1     -11.833   6.063  72.018  1.00  0.00    -0.284 A  
HETATM    7  C   UNL     1     -12.133   7.397  71.721  1.00  0.00    -0.345 A  
HETATM    8  C   UNL     1     -11.200   8.205  71.058  1.00  0.00    -0.284 A  
HETATM    9  C   UNL     1      -9.953   7.661  70.711  1.00  0.00    -0.181 A  
ENDROOT
BRANCH   8  10
HETATM   10  C   UNL     1     -11.499   9.580  70.677  1.00  0.00    -0.297 A  
HETATM   11  N   UNL     1     -12.144  10.466  71.450  1.00  0.00    -0.355 NA 
HETATM   12  O   UNL     1     -12.268  11.588  70.626  1.00  0.00    -0.364 OA 
HETATM   13  C   UNL     1     -11.686  11.268  69.433  1.00  0.00    -0.339 A  
HETATM   14  N   UNL     1     -11.189  10.052  69.420  1.00  0.00    -0.217 NA 
BRANCH  13  15
HETATM   15  C   UNL     1     -11.715  12.255  68.364  1.00  0.00    -0.390 A  
HETATM   16  C   UNL     1     -11.754  11.823  67.026  1.00  0.00    -0.247 A  
HETATM   17  C   UNL     1     -11.803  12.743  65.974  1.00  0.00    -0.495 A  
HETATM   18  C   UNL     1     -11.815  14.109  66.244  1.00  0.00    -0.427 A  
HETATM   19  C   UNL     1     -11.777  14.553  67.564  1.00  0.00    -0.413 A  
HETATM   20  C   UNL     1     -11.728  13.630  68.609  1.00  0.00    -0.354 A  
HETATM   21  F   UNL     1     -11.701  14.108  69.862  1.00  0.00    -0.292 F  
ENDBRANCH  13  15
ENDBRANCH   8  10
TORSDOF 2
ENDMDL
MODEL       99
REMARK 921   NORMALIZED FREE ENERGY PREDICTED BY IDOCK:   -5.24 KCAL/MOL
REMARK 922        TOTAL FREE ENERGY PREDICTED BY IDOCK:   -6.22 KCAL/MOL
REMARK 923 INTER-LIGAND FREE ENERGY PREDICTED BY IDOCK:   -5.89 KCAL/MOL
REMARK 924 INTRA-LIGAND FREE ENERGY PREDICTED BY IDOCK:   -0.32 KCAL/MOL
REMARK 927      BINDING AFFINITY PREDICTED BY RF-SCORE:    0.00 PKD
ROOT
HETATM    1  O   UNL     1      -8.787  19.600  65.713  1.00  0.00    -0.393 OA 
HETATM    2  C   UNL     1      -7.772  19.594  66.602  1.00  0.00    -0.276 C  
HETATM    3  C   UNL     1      -7.755  18.401  67.482  1.00  0.00    -0.231 A  
HETATM    4  O   UNL     1      -6.920  20.462  66.653  1.00  0.00    -0.239 OA 
HETATM    5  C   UNL     1      -6.524  17.884  67.897  1.00  0.00    -0.183 A  
HETATM    6  C   UNL     1      -6.483  16.753  68.715  1.00  0.00    -0.170 A  
HETATM    7  C   UNL     1      -7.672  16.132  69.113  1.00  0.00    -0.230 A  
HETATM    8  C   UNL     1      -8.911  16.647  68.710  1.00  0.00    -0.264 A  
HETATM    9  C   UNL     1      -8.942  17.803  67.914  1.00  0.00    -0.255 A  
ENDROOT
BRANCH   8  10
HETATM   10  C   UNL     1     -10.169  15.994  69.053  1.00  0.00    -0.236 A  
HETATM   11  N   UNL     1     -11.386  16.520  68.852  1.00  0.00    -0.262 NA 
HETATM   12  O   UNL     1     -12.246  15.577  69.419  1.00  0.00    -0.312 OA 
HETATM   13  C   UNL     1     -11.463  14.572  69.910  1.00  0.00    -0.270 A  
HETATM   14  N   UNL     1     -10.183  14.776  69.699  1.00  0.00    -0.095 NA 
BRANCH  13  15
HETATM   15  C   UNL     1     -12.111  13.467  70.602  1.00  0.00    -0.386 A  
HETATM   16  C   UNL     1     -13.116  13.739  71.547  1.00  0.00    -0.435 A  
HETATM   17  C   UNL     1     -13.775  12.703  72.216  1.00  0.00    -0.429 A  
HETATM   18  C   UNL     1     -13.439  11.378  71.948  1.00  0.00    -0.280 A  
HETATM   19  C   UNL     1     -12.447  11.092  71.014  1.00  0.00    -0.506 A  
HETATM   20  C   UNL     1     -11.793  12.131  70.351  1.00  0.00    -0.187 A  
HETATM   21  F   UNL     1     -10.851  11.803  69.455  1.00  0.00    -0.254 F  
ENDBRANCH  13  15
ENDBRANCH   8  10
TORSDOF 2
ENDMDL
MODEL      100
REMARK 921   NORMALIZED FREE ENERGY PREDICTED BY IDOCK:   -5.21 KCAL/MOL
REMARK 922        TOTAL FREE ENERGY PREDICTED BY IDOCK:   -6.19 KCAL/MOL
REMARK 923 INTER-LIGAND FREE ENERGY PREDICTED BY IDOCK:   -5.81 KCAL/MOL
REMARK 924 INTRA-LIGAND FREE ENERGY PREDICTED BY IDOCK:   -0.38 KCAL/MOL
REMARK 927      BINDING AFFINITY PREDICTED BY RF-SCORE:    0.00 PKD
ROOT
HETATM    1  O   UNL     1     -10.844  18.413  65.159  1.00  0.00    -0.630 OA 
HETATM    2  C   UNL     1     -10.582  18.528  66.478  1.00  0.00    -0.334 C  
HETATM    3  C   UNL     1      -9.978  17.313  67.075  1.00  0.00    -0.289 A  
HETATM    4  O   UNL     1     -10.779  19.547  67.114  1.00  0.00    -0.468 OA 
HETATM    5  C   UNL     1      -9.046  17.458  68.107  1.00  0.00    -0.267 A  
HETATM    6  C   UNL     1      -8.454  16.329  68.676  1.00  0.00    -0.221 A  
HETATM    7  C   UNL     1      -8.787  15.053  68.210  1.00  0.00    -0.172 A  
HETATM    8  C   UNL     1      -9.726  14.895  67.182  1.00  0.00    -0.229 A  
HETATM    9  C   UNL     1     -10.339  16.035  66.639  1.00  0.00    -0.299 A  
ENDROOT
BRANCH   8  10
HETATM   10  C   UNL     1     -10.054  13.587  66.628  1.00  0.00    -0.277 A  
HETATM   11  N   UNL     1     -10.926  13.373  65.631  1.00  0.00    -0.280 NA 
HETATM   12  O   UNL     1     -10.965  11.981  65.526  1.00  0.00    -0.282 OA 
HETATM   13  C   UNL     1     -10.113  11.488  66.472  1.00  0.00    -0.213 A  
HETATM   14  N   UNL     1      -9.521  12.435  67.165  1.00  0.00    -0.193 NA 
BRANCH  13  15
HETATM   15  C   UNL     1      -9.995  10.044  66.610  1.00  0.00    -0.274 A  
HETATM   16  C   UNL     1      -9.350   9.305  65.603  1.00  0.00    -0.308 A  
HETATM   17  C   UNL     1      -9.200   7.919  65.711  1.00  0.00    -0.033 A  
HETATM   18  C   UNL     1      -9.692   7.251  66.830  1.00  0.00    -0.260 A  
HETATM   19  C   UNL     1     -10.334   7.969  67.836  1.00  0.00    -0.282 A  
HETATM   20  C   UNL     1     -10.480   9.351  67.721  1.00  0.00    -0.254 A  
HETATM   21  F   UNL     1     -11.098   9.997  68.722  1.00  0.00    -0.242 F  
ENDBRANCH  13  15
ENDBRANCH   8  10
TORSDOF 2
ENDMDL
MODEL      101
REMARK 921   NORMALIZED FREE ENERGY PREDICTED BY IDOCK:   -5.20 KCAL/MOL
REMARK 922        TOTAL FREE ENERGY PREDICTED BY IDOCK:   -6.18 KCAL/MOL
REMARK 923 INTER-LIGAND FREE ENERGY PREDICTED BY IDOCK:   -5.89 KCAL/MOL
REMARK 924 INTRA-LIGAND FREE ENERGY PREDICTED BY IDOCK:   -0.29 KCAL/MOL
REMARK 927      BINDING AFFINITY PREDICTED BY RF-SCORE:    0.00 PKD
ROOT
HETATM    1  O   UNL     1      -6.221   8.577  70.101  1.00  0.00    -0.033 OA 
HETATM    2  C   UNL     1      -6.827   8.397  71.293  1.00  0.00    -0.065 C  
HETATM    3  C   UNL     1      -8.302   8.532  71.240  1.00  0.00    -0.193 A  
HETATM    4  O   UNL     1      -6.227   8.108  72.312  1.00  0.00    -0.047 OA 
HETATM    5  C   UNL     1      -9.084   7.737  72.084  1.00  0.00    -0.192 A  
HETATM    6  C   UNL     1     -10.476   7.836  72.043  1.00  0.00    -0.277 A  
HETATM    7  C   UNL     1     -11.089   8.725  71.154  1.00  0.00    -0.340 A  
HETATM    8  C   UNL     1     -10.315   9.533  70.310  1.00  0.00    -0.321 A  
HETATM    9  C   UNL     1      -8.916   9.448  70.382  1.00  0.00    -0.294 A  
ENDROOT
BRANCH   8  10
HETATM   10  C   UNL     1     -10.917  10.427  69.328  1.00  0.00    -0.242 A  
HETATM   11  N   UNL     1     -12.055  11.112  69.512  1.00  0.00    -0.333 NA 
HETATM   12  O   UNL     1     -12.262  11.737  68.280  1.00  0.00    -0.486 OA 
HETATM   13  C   UNL     1     -11.228  11.366  67.470  1.00  0.00    -0.292 A  
HETATM   14  N   UNL     1     -10.370  10.573  68.072  1.00  0.00    -0.172 NA 
BRANCH  13  15
HETATM   15  C   UNL     1     -11.220  11.847  66.096  1.00  0.00    -0.387 A  
HETATM   16  C   UNL     1     -11.665  13.151  65.819  1.00  0.00    -0.415 A  
HETATM   17  C   UNL     1     -11.653  13.654  64.514  1.00  0.00    -0.415 A  
HETATM   18  C   UNL     1     -11.193  12.860  63.467  1.00  0.00    -0.350 A  
HETATM   19  C   UNL     1     -10.748  11.566  63.725  1.00  0.00    -0.474 A  
HETATM   20  C   UNL     1     -10.764  11.070  65.028  1.00  0.00    -0.194 A  
HETATM   21  F   UNL     1     -10.316   9.821  65.226  1.00  0.00    -0.364 F  
ENDBRANCH  13  15
ENDBRANCH   8  10
TORSDOF 2
ENDMDL
MODEL      102
REMARK 921   NORMALIZED FREE ENERGY PREDICTED BY IDOCK:   -5.19 KCAL/MOL
REMARK 922        TOTAL FREE ENERGY PREDICTED BY IDOCK:   -6.17 KCAL/MOL
REMARK 923 INTER-LIGAND FREE ENERGY PREDICTED BY IDOCK:   -5.77 KCAL/MOL
REMARK 924 INTRA-LIGAND FREE ENERGY PREDICTED BY IDOCK:   -0.39 KCAL/MOL
REMARK 927      BINDING AFFINITY PREDICTED BY RF-SCORE:    0.00 PKD
ROOT
HETATM    1  O   UNL     1     -10.630   5.341  65.878  1.00  0.00    -0.152 OA 
HETATM    2  C   UNL     1     -10.096   4.943  67.052  1.00  0.00    -0.205 C  
HETATM    3  C   UNL     1     -10.302   5.906  68.159  1.00  0.00    -0.259 A  
HETATM    4  O   UNL     1      -9.535   3.874  67.204  1.00  0.00    -0.179 OA 
HETATM    5  C   UNL     1     -10.480   5.417  69.457  1.00  0.00    -0.343 A  
HETATM    6  C   UNL     1     -10.689   6.304  70.514  1.00  0.00    -0.327 A  
HETATM    7  C   UNL     1     -10.727   7.682  70.276  1.00  0.00    -0.244 A  
HETATM    8  C   UNL     1     -10.540   8.184  68.981  1.00  0.00    -0.167 A  
HETATM    9  C   UNL     1     -10.299   7.285  67.930  1.00  0.00    -0.253 A  
ENDROOT
BRANCH   8  10
HETATM   10  C   UNL     1     -10.632   9.608  68.683  1.00  0.00    -0.217 A  
HETATM   11  N   UNL     1     -10.762  10.577  69.601  1.00  0.00    -0.251 NA 
HETATM   12  O   UNL     1     -10.901  11.737  68.835  1.00  0.00    -0.216 OA 
HETATM   13  C   UNL     1     -10.842  11.354  67.525  1.00  0.00    -0.244 A  
HETATM   14  N   UNL     1     -10.666  10.060  67.381  1.00  0.00    -0.280 NA 
BRANCH  13  15
HETATM   15  C   UNL     1     -11.006  12.374  66.500  1.00  0.00    -0.312 A  
HETATM   16  C   UNL     1     -12.148  12.351  65.680  1.00  0.00    -0.396 A  
HETATM   17  C   UNL     1     -12.349  13.326  64.699  1.00  0.00    -0.447 A  
HETATM   18  C   UNL     1     -11.411  14.341  64.523  1.00  0.00    -0.363 A  
HETATM   19  C   UNL     1     -10.275  14.377  65.327  1.00  0.00    -0.416 A  
HETATM   20  C   UNL     1     -10.080  13.401  66.304  1.00  0.00    -0.299 A  
HETATM   21  F   UNL     1      -8.974  13.486  67.058  1.00  0.00    -0.203 F  
ENDBRANCH  13  15
ENDBRANCH   8  10
TORSDOF 2
ENDMDL
MODEL      103
REMARK 921   NORMALIZED FREE ENERGY PREDICTED BY IDOCK:   -5.19 KCAL/MOL
REMARK 922        TOTAL FREE ENERGY PREDICTED BY IDOCK:   -6.16 KCAL/MOL
REMARK 923 INTER-LIGAND FREE ENERGY PREDICTED BY IDOCK:   -5.77 KCAL/MOL
REMARK 924 INTRA-LIGAND FREE ENERGY PREDICTED BY IDOCK:   -0.39 KCAL/MOL
REMARK 927      BINDING AFFINITY PREDICTED BY RF-SCORE:    0.00 PKD
ROOT
HETATM    1  O   UNL     1     -10.184   6.677  71.786  1.00  0.00    -0.188 OA 
HETATM    2  C   UNL     1     -10.847   7.501  72.624  1.00  0.00    -0.315 C  
HETATM    3  C   UNL     1     -11.454   8.674  71.953  1.00  0.00    -0.419 A  
HETATM    4  O   UNL     1     -10.976   7.283  73.815  1.00  0.00    -0.255 OA 
HETATM    5  C   UNL     1     -12.666   9.177  72.435  1.00  0.00    -0.410 A  
HETATM    6  C   UNL     1     -13.264  10.274  71.810  1.00  0.00    -0.534 A  
HETATM    7  C   UNL     1     -12.655  10.865  70.699  1.00  0.00    -0.435 A  
HETATM    8  C   UNL     1     -11.436  10.375  70.212  1.00  0.00    -0.406 A  
HETATM    9  C   UNL     1     -10.828   9.292  70.867  1.00  0.00    -0.365 A  
ENDROOT
BRANCH   8  10
HETATM   10  C   UNL     1     -10.801  10.925  69.020  1.00  0.00    -0.230 A  
HETATM   11  N   UNL     1     -10.785  12.225  68.691  1.00  0.00    -0.231 NA 
HETATM   12  O   UNL     1     -10.154  12.237  67.445  1.00  0.00    -0.199 OA 
HETATM   13  C   UNL     1      -9.851  10.941  67.142  1.00  0.00    -0.184 A  
HETATM   14  N   UNL     1     -10.217  10.100  68.083  1.00  0.00    -0.163 NA 
BRANCH  13  15
HETATM   15  C   UNL     1      -9.219  10.661  65.861  1.00  0.00    -0.209 A  
HETATM   16  C   UNL     1     -10.014  10.566  64.705  1.00  0.00    -0.415 A  
HETATM   17  C   UNL     1      -9.439  10.318  63.455  1.00  0.00    -0.340 A  
HETATM   18  C   UNL     1      -8.060  10.163  63.341  1.00  0.00    -0.161 A  
HETATM   19  C   UNL     1      -7.259  10.255  64.477  1.00  0.00    -0.073 A  
HETATM   20  C   UNL     1      -7.838  10.501  65.721  1.00  0.00    -0.154 A  
HETATM   21  F   UNL     1      -7.022  10.589  66.782  1.00  0.00    -0.085 F  
ENDBRANCH  13  15
ENDBRANCH   8  10
TORSDOF 2
ENDMDL
MODEL      104
REMARK 921   NORMALIZED FREE ENERGY PREDICTED BY IDOCK:   -5.18 KCAL/MOL
REMARK 922        TOTAL FREE ENERGY PREDICTED BY IDOCK:   -6.16 KCAL/MOL
REMARK 923 INTER-LIGAND FREE ENERGY PREDICTED BY IDOCK:   -5.97 KCAL/MOL
REMARK 924 INTRA-LIGAND FREE ENERGY PREDICTED BY IDOCK:   -0.19 KCAL/MOL
REMARK 927      BINDING AFFINITY PREDICTED BY RF-SCORE:    0.00 PKD
ROOT
HETATM    1  O   UNL     1     -13.377  12.413  72.232  1.00  0.00    -0.522 OA 
HETATM    2  C   UNL     1     -12.727  13.299  71.450  1.00  0.00    -0.309 C  
HETATM    3  C   UNL     1     -12.180  12.711  70.205  1.00  0.00    -0.310 A  
HETATM    4  O   UNL     1     -12.633  14.484  71.715  1.00  0.00    -0.321 OA 
HETATM    5  C   UNL     1     -12.144  13.492  69.046  1.00  0.00    -0.330 A  
HETATM    6  C   UNL     1     -11.646  12.955  67.857  1.00  0.00    -0.391 A  
HETATM    7  C   UNL     1     -11.189  11.634  67.823  1.00  0.00    -0.333 A  
HETATM    8  C   UNL     1     -11.211  10.844  68.981  1.00  0.00    -0.327 A  
HETATM    9  C   UNL     1     -11.685  11.404  70.178  1.00  0.00    -0.414 A  
ENDROOT
BRANCH   8  10
HETATM   10  C   UNL     1     -10.800   9.445  68.971  1.00  0.00    -0.136 A  
HETATM   11  N   UNL     1     -10.530   8.733  67.868  1.00  0.00    -0.231 NA 
HETATM   12  O   UNL     1     -10.279   7.450  68.360  1.00  0.00    -0.173 OA 
HETATM   13  C   UNL     1     -10.423   7.513  69.717  1.00  0.00    -0.230 A  
HETATM   14  N   UNL     1     -10.729   8.718  70.140  1.00  0.00    -0.222 NA 
BRANCH  13  15
HETATM   15  C   UNL     1     -10.257   6.288  70.486  1.00  0.00    -0.240 A  
HETATM   16  C   UNL     1      -9.961   5.088  69.817  1.00  0.00    -0.319 A  
HETATM   17  C   UNL     1      -9.775   3.896  70.524  1.00  0.00    -0.247 A  
HETATM   18  C   UNL     1      -9.881   3.887  71.913  1.00  0.00    -0.248 A  
HETATM   19  C   UNL     1     -10.174   5.068  72.590  1.00  0.00    -0.236 A  
HETATM   20  C   UNL     1     -10.359   6.253  71.879  1.00  0.00    -0.204 A  
HETATM   21  F   UNL     1     -10.631   7.365  72.579  1.00  0.00    -0.226 F  
ENDBRANCH  13  15
ENDBRANCH   8  10
TORSDOF 2
ENDMDL
MODEL      105
REMARK 921   NORMALIZED FREE ENERGY PREDICTED BY IDOCK:   -5.17 KCAL/MOL
REMARK 922        TOTAL FREE ENERGY PREDICTED BY IDOCK:   -6.14 KCAL/MOL
REMARK 923 INTER-LIGAND FREE ENERGY PREDICTED BY IDOCK:   -6.11 KCAL/MOL
REMARK 924 INTRA-LIGAND FREE ENERGY PREDICTED BY IDOCK:   -0.03 KCAL/MOL
REMARK 927      BINDING AFFINITY PREDICTED BY RF-SCORE:    0.00 PKD
ROOT
HETATM    1  O   UNL     1     -10.849   4.744  65.678  1.00  0.00    -0.274 OA 
HETATM    2  C   UNL     1      -9.809   4.077  66.220  1.00  0.00    -0.159 C  
HETATM    3  C   UNL     1      -9.814   4.062  67.702  1.00  0.00    -0.102 A  
HETATM    4  O   UNL     1      -8.964   3.502  65.558  1.00  0.00    -0.129 OA 
HETATM    5  C   UNL     1      -9.324   2.935  68.368  1.00  0.00    -0.252 A  
HETATM    6  C   UNL     1      -9.332   2.892  69.764  1.00  0.00    -0.207 A  
HETATM    7  C   UNL     1      -9.835   3.973  70.496  1.00  0.00    -0.214 A  
HETATM    8  C   UNL     1     -10.321   5.111  69.838  1.00  0.00    -0.347 A  
HETATM    9  C   UNL     1     -10.279   5.157  68.435  1.00  0.00    -0.175 A  
ENDROOT
BRANCH   8  10
HETATM   10  C   UNL     1     -10.909   6.232  70.563  1.00  0.00    -0.288 A  
HETATM   11  N   UNL     1     -11.598   6.126  71.708  1.00  0.00    -0.295 NA 
HETATM   12  O   UNL     1     -12.026   7.434  71.952  1.00  0.00    -0.285 OA 
HETATM   13  C   UNL     1     -11.553   8.202  70.927  1.00  0.00    -0.267 A  
HETATM   14  N   UNL     1     -10.851   7.512  70.057  1.00  0.00    -0.250 NA 
BRANCH  13  15
HETATM   15  C   UNL     1     -11.895   9.617  70.911  1.00  0.00    -0.403 A  
HETATM   16  C   UNL     1     -11.286  10.463  69.967  1.00  0.00    -0.385 A  
HETATM   17  C   UNL     1     -11.605  11.823  69.908  1.00  0.00    -0.351 A  
HETATM   18  C   UNL     1     -12.540  12.358  70.791  1.00  0.00    -0.298 A  
HETATM   19  C   UNL     1     -13.152  11.533  71.731  1.00  0.00    -0.503 A  
HETATM   20  C   UNL     1     -12.829  10.177  71.785  1.00  0.00    -0.452 A  
HETATM   21  F   UNL     1     -13.453   9.424  72.703  1.00  0.00    -0.474 F  
ENDBRANCH  13  15
ENDBRANCH   8  10
TORSDOF 2
ENDMDL
MODEL      106
REMARK 921   NORMALIZED FREE ENERGY PREDICTED BY IDOCK:   -5.15 KCAL/MOL
REMARK 922        TOTAL FREE ENERGY PREDICTED BY IDOCK:   -6.12 KCAL/MOL
REMARK 923 INTER-LIGAND FREE ENERGY PREDICTED BY IDOCK:   -5.71 KCAL/MOL
REMARK 924 INTRA-LIGAND FREE ENERGY PREDICTED BY IDOCK:   -0.41 KCAL/MOL
REMARK 927      BINDING AFFINITY PREDICTED BY RF-SCORE:    0.00 PKD
ROOT
HETATM    1  O   UNL     1     -13.264   8.353  70.852  1.00  0.00     0.046 OA 
HETATM    2  C   UNL     1     -13.228   9.273  71.838  1.00  0.00    -0.423 C  
HETATM    3  C   UNL     1     -12.880  10.636  71.372  1.00  0.00    -0.556 A  
HETATM    4  O   UNL     1     -13.497   9.022  72.999  1.00  0.00    -0.300 OA 
HETATM    5  C   UNL     1     -13.458  11.737  72.011  1.00  0.00    -0.319 A  
HETATM    6  C   UNL     1     -13.157  13.031  71.581  1.00  0.00    -0.440 A  
HETATM    7  C   UNL     1     -12.282  13.227  70.507  1.00  0.00    -0.416 A  
HETATM    8  C   UNL     1     -11.691  12.131  69.865  1.00  0.00    -0.361 A  
HETATM    9  C   UNL     1     -11.976  10.836  70.326  1.00  0.00    -0.438 A  
ENDROOT
BRANCH   8  10
HETATM   10  C   UNL     1     -10.822  12.291  68.704  1.00  0.00    -0.236 A  
HETATM   11  N   UNL     1     -10.483  13.467  68.157  1.00  0.00    -0.238 NA 
HETATM   12  O   UNL     1      -9.731  13.101  67.038  1.00  0.00    -0.228 OA 
HETATM   13  C   UNL     1      -9.690  11.736  67.018  1.00  0.00    -0.185 A  
HETATM   14  N   UNL     1     -10.334  11.194  68.027  1.00  0.00    -0.179 NA 
BRANCH  13  15
HETATM   15  C   UNL     1      -8.998  11.082  65.918  1.00  0.00    -0.208 A  
HETATM   16  C   UNL     1      -7.603  10.911  65.985  1.00  0.00    -0.094 A  
HETATM   17  C   UNL     1      -6.907  10.269  64.956  1.00  0.00    -0.111 A  
HETATM   18  C   UNL     1      -7.595   9.788  63.844  1.00  0.00    -0.133 A  
HETATM   19  C   UNL     1      -8.976   9.950  63.764  1.00  0.00    -0.279 A  
HETATM   20  C   UNL     1      -9.664  10.592  64.793  1.00  0.00    -0.305 A  
HETATM   21  F   UNL     1     -10.994  10.715  64.671  1.00  0.00    -0.307 F  
ENDBRANCH  13  15
ENDBRANCH   8  10
TORSDOF 2
ENDMDL
MODEL      107
REMARK 921   NORMALIZED FREE ENERGY PREDICTED BY IDOCK:   -5.15 KCAL/MOL
REMARK 922        TOTAL FREE ENERGY PREDICTED BY IDOCK:   -6.12 KCAL/MOL
REMARK 923 INTER-LIGAND FREE ENERGY PREDICTED BY IDOCK:   -5.94 KCAL/MOL
REMARK 924 INTRA-LIGAND FREE ENERGY PREDICTED BY IDOCK:   -0.17 KCAL/MOL
REMARK 927      BINDING AFFINITY PREDICTED BY RF-SCORE:    0.00 PKD
ROOT
HETATM    1  O   UNL     1     -12.118  15.175  70.188  1.00  0.00    -0.301 OA 
HETATM    2  C   UNL     1     -11.707  15.437  68.930  1.00  0.00    -0.359 C  
HETATM    3  C   UNL     1     -11.710  14.252  68.040  1.00  0.00    -0.386 A  
HETATM    4  O   UNL     1     -11.403  16.551  68.542  1.00  0.00    -0.356 OA 
HETATM    5  C   UNL     1     -12.015  14.422  66.687  1.00  0.00    -0.414 A  
HETATM    6  C   UNL     1     -12.037  13.318  65.832  1.00  0.00    -0.493 A  
HETATM    7  C   UNL     1     -11.760  12.041  66.331  1.00  0.00    -0.326 A  
HETATM    8  C   UNL     1     -11.445  11.859  67.684  1.00  0.00    -0.387 A  
HETATM    9  C   UNL     1     -11.395  12.980  68.527  1.00  0.00    -0.323 A  
ENDROOT
BRANCH   8  10
HETATM   10  C   UNL     1     -11.211  10.537  68.253  1.00  0.00    -0.291 A  
HETATM   11  N   UNL     1     -11.241  10.251  69.563  1.00  0.00    -0.253 NA 
HETATM   12  O   UNL     1     -10.870   8.905  69.611  1.00  0.00    -0.233 OA 
HETATM   13  C   UNL     1     -10.650   8.510  68.322  1.00  0.00    -0.119 A  
HETATM   14  N   UNL     1     -10.858   9.472  67.453  1.00  0.00    -0.225 NA 
BRANCH  13  15
HETATM   15  C   UNL     1     -10.203   7.145  68.086  1.00  0.00    -0.220 A  
HETATM   16  C   UNL     1      -9.295   6.887  67.043  1.00  0.00    -0.170 A  
HETATM   17  C   UNL     1      -8.828   5.592  66.799  1.00  0.00    -0.114 A  
HETATM   18  C   UNL     1      -9.261   4.534  67.596  1.00  0.00    -0.160 A  
HETATM   19  C   UNL     1     -10.160   4.774  68.632  1.00  0.00    -0.114 A  
HETATM   20  C   UNL     1     -10.622   6.068  68.870  1.00  0.00    -0.290 A  
HETATM   21  F   UNL     1     -11.480   6.247  69.886  1.00  0.00    -0.411 F  
ENDBRANCH  13  15
ENDBRANCH   8  10
TORSDOF 2
ENDMDL
MODEL      108
REMARK 921   NORMALIZED FREE ENERGY PREDICTED BY IDOCK:   -5.12 KCAL/MOL
REMARK 922        TOTAL FREE ENERGY PREDICTED BY IDOCK:   -6.09 KCAL/MOL
REMARK 923 INTER-LIGAND FREE ENERGY PREDICTED BY IDOCK:   -5.73 KCAL/MOL
REMARK 924 INTRA-LIGAND FREE ENERGY PREDICTED BY IDOCK:   -0.37 KCAL/MOL
REMARK 927      BINDING AFFINITY PREDICTED BY RF-SCORE:    0.00 PKD
ROOT
HETATM    1  O   UNL     1     -11.113  19.362  67.056  1.00  0.00    -0.420 OA 
HETATM    2  C   UNL     1      -9.921  19.992  67.098  1.00  0.00    -0.441 C  
HETATM    3  C   UNL     1      -8.771  19.121  66.760  1.00  0.00    -0.322 A  
HETATM    4  O   UNL     1      -9.798  21.178  67.348  1.00  0.00    -0.312 OA 
HETATM    5  C   UNL     1      -7.679  19.674  66.085  1.00  0.00    -0.331 A  
HETATM    6  C   UNL     1      -6.590  18.869  65.742  1.00  0.00    -0.287 A  
HETATM    7  C   UNL     1      -6.593  17.509  66.069  1.00  0.00    -0.241 A  
HETATM    8  C   UNL     1      -7.679  16.946  66.754  1.00  0.00    -0.283 A  
HETATM    9  C   UNL     1      -8.754  17.771  67.121  1.00  0.00    -0.252 A  
ENDROOT
BRANCH   8  10
HETATM   10  C   UNL     1      -7.747  15.522  67.059  1.00  0.00    -0.210 A  
HETATM   11  N   UNL     1      -6.683  14.720  67.215  1.00  0.00    -0.265 NA 
HETATM   12  O   UNL     1      -7.252  13.457  67.396  1.00  0.00    -0.163 OA 
HETATM   13  C   UNL     1      -8.606  13.619  67.330  1.00  0.00    -0.214 A  
HETATM   14  N   UNL     1      -8.959  14.870  67.137  1.00  0.00    -0.201 NA 
BRANCH  13  15
HETATM   15  C   UNL     1      -9.449  12.439  67.444  1.00  0.00    -0.186 A  
HETATM   16  C   UNL     1      -9.188  11.322  66.630  1.00  0.00    -0.191 A  
HETATM   17  C   UNL     1      -9.964  10.164  66.727  1.00  0.00    -0.266 A  
HETATM   18  C   UNL     1     -11.014  10.103  67.641  1.00  0.00    -0.331 A  
HETATM   19  C   UNL     1     -11.285  11.200  68.455  1.00  0.00    -0.325 A  
HETATM   20  C   UNL     1     -10.507  12.353  68.353  1.00  0.00    -0.235 A  
HETATM   21  F   UNL     1     -10.803  13.379  69.165  1.00  0.00    -0.250 F  
ENDBRANCH  13  15
ENDBRANCH   8  10
TORSDOF 2
ENDMDL
MODEL      109
REMARK 921   NORMALIZED FREE ENERGY PREDICTED BY IDOCK:   -5.12 KCAL/MOL
REMARK 922        TOTAL FREE ENERGY PREDICTED BY IDOCK:   -6.09 KCAL/MOL
REMARK 923 INTER-LIGAND FREE ENERGY PREDICTED BY IDOCK:   -5.72 KCAL/MOL
REMARK 924 INTRA-LIGAND FREE ENERGY PREDICTED BY IDOCK:   -0.36 KCAL/MOL
REMARK 927      BINDING AFFINITY PREDICTED BY RF-SCORE:    0.00 PKD
ROOT
HETATM    1  O   UNL     1     -10.703   5.017  66.086  1.00  0.00    -0.315 OA 
HETATM    2  C   UNL     1     -10.299   5.128  67.368  1.00  0.00    -0.149 C  
HETATM    3  C   UNL     1     -10.375   6.509  67.901  1.00  0.00    -0.229 A  
HETATM    4  O   UNL     1      -9.946   4.180  68.045  1.00  0.00    -0.074 OA 
HETATM    5  C   UNL     1     -10.692   6.697  69.249  1.00  0.00    -0.307 A  
HETATM    6  C   UNL     1     -10.783   7.990  69.771  1.00  0.00    -0.231 A  
HETATM    7  C   UNL     1     -10.563   9.096  68.944  1.00  0.00    -0.214 A  
HETATM    8  C   UNL     1     -10.235   8.919  67.593  1.00  0.00    -0.296 A  
HETATM    9  C   UNL     1     -10.116   7.615  67.086  1.00  0.00    -0.323 A  
ENDROOT
BRANCH   8  10
HETATM   10  C   UNL     1     -10.058  10.047  66.685  1.00  0.00    -0.227 A  
HETATM   11  N   UNL     1      -9.040  10.185  65.824  1.00  0.00    -0.163 NA 
HETATM   12  O   UNL     1      -9.259  11.443  65.259  1.00  0.00    -0.205 OA 
HETATM   13  C   UNL     1     -10.391  11.944  65.836  1.00  0.00    -0.242 A  
HETATM   14  N   UNL     1     -10.925  11.118  66.708  1.00  0.00    -0.271 NA 
BRANCH  13  15
HETATM   15  C   UNL     1     -10.828  13.279  65.455  1.00  0.00    -0.304 A  
HETATM   16  C   UNL     1      -9.954  14.367  65.630  1.00  0.00    -0.365 A  
HETATM   17  C   UNL     1     -10.332  15.660  65.256  1.00  0.00    -0.405 A  
HETATM   18  C   UNL     1     -11.589  15.885  64.700  1.00  0.00    -0.200 A  
HETATM   19  C   UNL     1     -12.465  14.818  64.520  1.00  0.00    -0.272 A  
HETATM   20  C   UNL     1     -12.083  13.530  64.895  1.00  0.00    -0.397 A  
HETATM   21  F   UNL     1     -12.960  12.535  64.693  1.00  0.00    -0.535 F  
ENDBRANCH  13  15
ENDBRANCH   8  10
TORSDOF 2
ENDMDL
MODEL      110
REMARK 921   NORMALIZED FREE ENERGY PREDICTED BY IDOCK:   -5.12 KCAL/MOL
REMARK 922        TOTAL FREE ENERGY PREDICTED BY IDOCK:   -6.09 KCAL/MOL
REMARK 923 INTER-LIGAND FREE ENERGY PREDICTED BY IDOCK:   -5.72 KCAL/MOL
REMARK 924 INTRA-LIGAND FREE ENERGY PREDICTED BY IDOCK:   -0.36 KCAL/MOL
REMARK 927      BINDING AFFINITY PREDICTED BY RF-SCORE:    0.00 PKD
ROOT
HETATM    1  O   UNL     1     -12.942  12.217  63.760  1.00  0.00    -0.766 OA 
HETATM    2  C   UNL     1     -12.369  13.323  64.279  1.00  0.00    -0.340 C  
HETATM    3  C   UNL     1     -11.360  13.038  65.327  1.00  0.00    -0.325 A  
HETATM    4  O   UNL     1     -12.621  14.451  63.896  1.00  0.00    -0.814 OA 
HETATM    5  C   UNL     1     -10.246  13.876  65.438  1.00  0.00    -0.356 A  
HETATM    6  C   UNL     1      -9.274  13.620  66.408  1.00  0.00    -0.142 A  
HETATM    7  C   UNL     1      -9.412  12.522  67.264  1.00  0.00    -0.193 A  
HETATM    8  C   UNL     1     -10.528  11.681  67.167  1.00  0.00    -0.252 A  
HETATM    9  C   UNL     1     -11.514  11.966  66.209  1.00  0.00    -0.367 A  
ENDROOT
BRANCH   8  10
HETATM   10  C   UNL     1     -10.677  10.493  68.000  1.00  0.00    -0.245 A  
HETATM   11  N   UNL     1     -11.504  10.393  69.051  1.00  0.00    -0.226 NA 
HETATM   12  O   UNL     1     -11.224   9.125  69.566  1.00  0.00    -0.118 OA 
HETATM   13  C   UNL     1     -10.251   8.584  68.776  1.00  0.00    -0.200 A  
HETATM   14  N   UNL     1      -9.892   9.379  67.794  1.00  0.00    -0.162 NA 
BRANCH  13  15
HETATM   15  C   UNL     1      -9.735   7.267  69.121  1.00  0.00    -0.160 A  
HETATM   16  C   UNL     1     -10.601   6.159  69.099  1.00  0.00    -0.345 A  
HETATM   17  C   UNL     1     -10.136   4.876  69.404  1.00  0.00    -0.270 A  
HETATM   18  C   UNL     1      -8.797   4.681  69.735  1.00  0.00    -0.128 A  
HETATM   19  C   UNL     1      -7.927   5.769  69.761  1.00  0.00    -0.100 A  
HETATM   20  C   UNL     1      -8.397   7.046  69.456  1.00  0.00    -0.133 A  
HETATM   21  F   UNL     1      -7.517   8.058  69.486  1.00  0.00    -0.081 F  
ENDBRANCH  13  15
ENDBRANCH   8  10
TORSDOF 2
ENDMDL
MODEL      111
REMARK 921   NORMALIZED FREE ENERGY PREDICTED BY IDOCK:   -5.10 KCAL/MOL
REMARK 922        TOTAL FREE ENERGY PREDICTED BY IDOCK:   -6.07 KCAL/MOL
REMARK 923 INTER-LIGAND FREE ENERGY PREDICTED BY IDOCK:   -5.78 KCAL/MOL
REMARK 924 INTRA-LIGAND FREE ENERGY PREDICTED BY IDOCK:   -0.29 KCAL/MOL
REMARK 927      BINDING AFFINITY PREDICTED BY RF-SCORE:    0.00 PKD
ROOT
HETATM    1  O   UNL     1     -10.297   4.397  65.739  1.00  0.00    -0.257 OA 
HETATM    2  C   UNL     1      -9.354   3.599  66.282  1.00  0.00    -0.178 C  
HETATM    3  C   UNL     1      -9.402   3.538  67.762  1.00  0.00    -0.246 A  
HETATM    4  O   UNL     1      -8.561   2.953  65.622  1.00  0.00    -0.106 OA 
HETATM    5  C   UNL     1      -9.062   2.342  68.400  1.00  0.00    -0.215 A  
HETATM    6  C   UNL     1      -9.114   2.255  69.793  1.00  0.00    -0.177 A  
HETATM    7  C   UNL     1      -9.513   3.362  70.550  1.00  0.00    -0.247 A  
HETATM    8  C   UNL     1      -9.848   4.569  69.920  1.00  0.00    -0.298 A  
HETATM    9  C   UNL     1      -9.762   4.654  68.522  1.00  0.00    -0.208 A  
ENDROOT
BRANCH   8  10
HETATM   10  C   UNL     1     -10.326   5.725  70.669  1.00  0.00    -0.245 A  
HETATM   11  N   UNL     1     -10.607   5.726  71.980  1.00  0.00    -0.218 NA 
HETATM   12  O   UNL     1     -11.108   7.010  72.205  1.00  0.00    -0.236 OA 
HETATM   13  C   UNL     1     -11.082   7.661  71.004  1.00  0.00    -0.257 A  
HETATM   14  N   UNL     1     -10.599   6.918  70.035  1.00  0.00    -0.217 NA 
BRANCH  13  15
HETATM   15  C   UNL     1     -11.597   9.021  70.944  1.00  0.00    -0.344 A  
HETATM   16  C   UNL     1     -12.651   9.398  71.797  1.00  0.00    -0.470 A  
HETATM   17  C   UNL     1     -13.157  10.701  71.781  1.00  0.00    -0.571 A  
HETATM   18  C   UNL     1     -12.617  11.648  70.914  1.00  0.00    -0.409 A  
HETATM   19  C   UNL     1     -11.573  11.290  70.064  1.00  0.00    -0.404 A  
HETATM   20  C   UNL     1     -11.073   9.988  70.084  1.00  0.00    -0.310 A  
HETATM   21  F   UNL     1     -10.062   9.696  69.253  1.00  0.00    -0.165 F  
ENDBRANCH  13  15
ENDBRANCH   8  10
TORSDOF 2
ENDMDL
MODEL      112
REMARK 921   NORMALIZED FREE ENERGY PREDICTED BY IDOCK:   -5.08 KCAL/MOL
REMARK 922        TOTAL FREE ENERGY PREDICTED BY IDOCK:   -6.04 KCAL/MOL
REMARK 923 INTER-LIGAND FREE ENERGY PREDICTED BY IDOCK:   -5.70 KCAL/MOL
REMARK 924 INTRA-LIGAND FREE ENERGY PREDICTED BY IDOCK:   -0.34 KCAL/MOL
REMARK 927      BINDING AFFINITY PREDICTED BY RF-SCORE:    0.00 PKD
ROOT
HETATM    1  O   UNL     1      -8.440   9.871  69.752  1.00  0.00    -0.169 OA 
HETATM    2  C   UNL     1      -9.559   9.690  69.021  1.00  0.00    -0.168 C  
HETATM    3  C   UNL     1      -9.705  10.651  67.902  1.00  0.00    -0.177 A  
HETATM    4  O   UNL     1     -10.357   8.794  69.228  1.00  0.00    -0.207 OA 
HETATM    5  C   UNL     1     -10.310  10.223  66.717  1.00  0.00    -0.288 A  
HETATM    6  C   UNL     1     -10.446  11.107  65.645  1.00  0.00    -0.308 A  
HETATM    7  C   UNL     1      -9.971  12.418  65.752  1.00  0.00    -0.270 A  
HETATM    8  C   UNL     1      -9.371  12.860  66.939  1.00  0.00    -0.240 A  
HETATM    9  C   UNL     1      -9.267  11.973  68.022  1.00  0.00    -0.192 A  
ENDROOT
BRANCH   8  10
HETATM   10  C   UNL     1      -8.809  14.200  67.069  1.00  0.00    -0.221 A  
HETATM   11  N   UNL     1      -7.554  14.470  67.456  1.00  0.00    -0.179 NA 
HETATM   12  O   UNL     1      -7.524  15.865  67.514  1.00  0.00    -0.138 OA 
HETATM   13  C   UNL     1      -8.768  16.302  67.157  1.00  0.00    -0.191 A  
HETATM   14  N   UNL     1      -9.587  15.318  66.862  1.00  0.00    -0.225 NA 
BRANCH  13  15
HETATM   15  C   UNL     1      -9.028  17.734  67.176  1.00  0.00    -0.249 A  
HETATM   16  C   UNL     1     -10.054  18.238  67.996  1.00  0.00    -0.381 A  
HETATM   17  C   UNL     1     -10.320  19.609  68.055  1.00  0.00    -0.579 A  
HETATM   18  C   UNL     1      -9.562  20.499  67.297  1.00  0.00    -0.580 A  
HETATM   19  C   UNL     1      -8.542  20.015  66.481  1.00  0.00    -0.366 A  
HETATM   20  C   UNL     1      -8.283  18.646  66.425  1.00  0.00    -0.277 A  
HETATM   21  F   UNL     1      -7.285  18.232  65.631  1.00  0.00    -0.295 F  
ENDBRANCH  13  15
ENDBRANCH   8  10
TORSDOF 2
ENDMDL
MODEL      113
REMARK 921   NORMALIZED FREE ENERGY PREDICTED BY IDOCK:   -5.06 KCAL/MOL
REMARK 922        TOTAL FREE ENERGY PREDICTED BY IDOCK:   -6.02 KCAL/MOL
REMARK 923 INTER-LIGAND FREE ENERGY PREDICTED BY IDOCK:   -5.63 KCAL/MOL
REMARK 924 INTRA-LIGAND FREE ENERGY PREDICTED BY IDOCK:   -0.39 KCAL/MOL
REMARK 927      BINDING AFFINITY PREDICTED BY RF-SCORE:    0.00 PKD
ROOT
HETATM    1  O   UNL     1      -9.526   3.857  69.420  1.00  0.00    -0.166 OA 
HETATM    2  C   UNL     1      -9.671   4.174  70.723  1.00  0.00    -0.196 C  
HETATM    3  C   UNL     1     -10.182   5.547  70.951  1.00  0.00    -0.293 A  
HETATM    4  O   UNL     1      -9.447   3.395  71.631  1.00  0.00    -0.125 OA 
HETATM    5  C   UNL     1     -11.021   5.783  72.045  1.00  0.00    -0.317 A  
HETATM    6  C   UNL     1     -11.526   7.065  72.272  1.00  0.00    -0.308 A  
HETATM    7  C   UNL     1     -11.199   8.111  71.403  1.00  0.00    -0.297 A  
HETATM    8  C   UNL     1     -10.353   7.887  70.309  1.00  0.00    -0.212 A  
HETATM    9  C   UNL     1      -9.825   6.602  70.108  1.00  0.00    -0.180 A  
ENDROOT
BRANCH   8  10
HETATM   10  C   UNL     1     -10.038   8.937  69.347  1.00  0.00    -0.202 A  
HETATM   11  N   UNL     1      -9.090   9.871  69.515  1.00  0.00    -0.209 NA 
HETATM   12  O   UNL     1      -9.233  10.686  68.389  1.00  0.00    -0.146 OA 
HETATM   13  C   UNL     1     -10.256  10.164  67.650  1.00  0.00    -0.203 A  
HETATM   14  N   UNL     1     -10.772   9.083  68.190  1.00  0.00    -0.160 NA 
BRANCH  13  15
HETATM   15  C   UNL     1     -10.648  10.854  66.430  1.00  0.00    -0.289 A  
HETATM   16  C   UNL     1     -11.461  11.998  66.516  1.00  0.00    -0.413 A  
HETATM   17  C   UNL     1     -11.841  12.698  65.367  1.00  0.00    -0.473 A  
HETATM   18  C   UNL     1     -11.413  12.265  64.114  1.00  0.00    -0.453 A  
HETATM   19  C   UNL     1     -10.608  11.133  64.013  1.00  0.00    -0.436 A  
HETATM   20  C   UNL     1     -10.233  10.439  65.163  1.00  0.00    -0.256 A  
HETATM   21  F   UNL     1      -9.449   9.361  65.013  1.00  0.00    -0.300 F  
ENDBRANCH  13  15
ENDBRANCH   8  10
TORSDOF 2
ENDMDL
MODEL      114
REMARK 921   NORMALIZED FREE ENERGY PREDICTED BY IDOCK:   -4.99 KCAL/MOL
REMARK 922        TOTAL FREE ENERGY PREDICTED BY IDOCK:   -5.94 KCAL/MOL
REMARK 923 INTER-LIGAND FREE ENERGY PREDICTED BY IDOCK:   -5.56 KCAL/MOL
REMARK 924 INTRA-LIGAND FREE ENERGY PREDICTED BY IDOCK:   -0.38 KCAL/MOL
REMARK 927      BINDING AFFINITY PREDICTED BY RF-SCORE:    0.00 PKD
ROOT
HETATM    1  O   UNL     1     -10.709  17.007  69.264  1.00  0.00    -0.323 OA 
HETATM    2  C   UNL     1     -10.233  17.247  68.024  1.00  0.00    -0.332 C  
HETATM    3  C   UNL     1     -10.509  16.158  67.057  1.00  0.00    -0.306 A  
HETATM    4  O   UNL     1      -9.669  18.279  67.711  1.00  0.00    -0.282 OA 
HETATM    5  C   UNL     1     -10.750  16.486  65.720  1.00  0.00    -0.232 A  
HETATM    6  C   UNL     1     -11.026  15.478  64.793  1.00  0.00    -0.416 A  
HETATM    7  C   UNL     1     -11.066  14.142  65.203  1.00  0.00    -0.349 A  
HETATM    8  C   UNL     1     -10.817  13.801  66.539  1.00  0.00    -0.287 A  
HETATM    9  C   UNL     1     -10.511  14.818  67.456  1.00  0.00    -0.245 A  
ENDROOT
BRANCH   8  10
HETATM   10  C   UNL     1     -10.910  12.426  67.017  1.00  0.00    -0.246 A  
HETATM   11  N   UNL     1     -12.031  11.689  67.017  1.00  0.00    -0.539 NA 
HETATM   12  O   UNL     1     -11.641  10.503  67.645  1.00  0.00    -0.447 OA 
HETATM   13  C   UNL     1     -10.320  10.641  67.963  1.00  0.00    -0.178 A  
HETATM   14  N   UNL     1      -9.824  11.798  67.587  1.00  0.00    -0.182 NA 
BRANCH  13  15
HETATM   15  C   UNL     1      -9.665   9.553  68.674  1.00  0.00    -0.163 A  
HETATM   16  C   UNL     1      -9.529   9.624  70.072  1.00  0.00    -0.277 A  
HETATM   17  C   UNL     1      -8.924   8.589  70.790  1.00  0.00    -0.193 A  
HETATM   18  C   UNL     1      -8.445   7.465  70.122  1.00  0.00    -0.137 A  
HETATM   19  C   UNL     1      -8.572   7.379  68.738  1.00  0.00    -0.129 A  
HETATM   20  C   UNL     1      -9.177   8.415  68.027  1.00  0.00    -0.136 A  
HETATM   21  F   UNL     1      -9.283   8.280  66.696  1.00  0.00    -0.158 F  
ENDBRANCH  13  15
ENDBRANCH   8  10
TORSDOF 2
ENDMDL
MODEL      115
REMARK 921   NORMALIZED FREE ENERGY PREDICTED BY IDOCK:   -4.96 KCAL/MOL
REMARK 922        TOTAL FREE ENERGY PREDICTED BY IDOCK:   -5.90 KCAL/MOL
REMARK 923 INTER-LIGAND FREE ENERGY PREDICTED BY IDOCK:   -5.51 KCAL/MOL
REMARK 924 INTRA-LIGAND FREE ENERGY PREDICTED BY IDOCK:   -0.39 KCAL/MOL
REMARK 927      BINDING AFFINITY PREDICTED BY RF-SCORE:    0.00 PKD
ROOT
HETATM    1  O   UNL     1      -7.030  13.286  69.148  1.00  0.00    -0.098 OA 
HETATM    2  C   UNL     1      -7.677  13.498  67.983  1.00  0.00    -0.143 C  
HETATM    3  C   UNL     1      -9.128  13.202  68.042  1.00  0.00    -0.207 A  
HETATM    4  O   UNL     1      -7.133  13.933  66.984  1.00  0.00    -0.001 OA 
HETATM    5  C   UNL     1     -10.007  13.975  67.278  1.00  0.00    -0.242 A  
HETATM    6  C   UNL     1     -11.380  13.724  67.328  1.00  0.00    -0.343 A  
HETATM    7  C   UNL     1     -11.877  12.704  68.146  1.00  0.00    -0.366 A  
HETATM    8  C   UNL     1     -11.003  11.917  68.909  1.00  0.00    -0.285 A  
HETATM    9  C   UNL     1      -9.623  12.158  68.828  1.00  0.00     0.027 A  
ENDROOT
BRANCH   8  10
HETATM   10  C   UNL     1     -11.487  10.886  69.820  1.00  0.00    -0.313 A  
HETATM   11  N   UNL     1     -12.621  10.962  70.531  1.00  0.00    -0.333 NA 
HETATM   12  O   UNL     1     -12.599   9.799  71.305  1.00  0.00    -0.320 OA 
HETATM   13  C   UNL     1     -11.450   9.133  70.985  1.00  0.00    -0.306 A  
HETATM   14  N   UNL     1     -10.741   9.754  70.069  1.00  0.00    -0.261 NA 
BRANCH  13  15
HETATM   15  C   UNL     1     -11.152   7.893  71.688  1.00  0.00    -0.285 A  
HETATM   16  C   UNL     1     -10.544   7.947  72.954  1.00  0.00    -0.434 A  
HETATM   17  C   UNL     1     -10.261   6.778  73.667  1.00  0.00    -0.354 A  
HETATM   18  C   UNL     1     -10.585   5.537  73.124  1.00  0.00    -0.281 A  
HETATM   19  C   UNL     1     -11.188   5.467  71.871  1.00  0.00    -0.188 A  
HETATM   20  C   UNL     1     -11.466   6.637  71.165  1.00  0.00    -0.320 A  
HETATM   21  F   UNL     1     -12.056   6.517  69.966  1.00  0.00    -0.463 F  
ENDBRANCH  13  15
ENDBRANCH   8  10
TORSDOF 2
ENDMDL
MODEL      116
REMARK 921   NORMALIZED FREE ENERGY PREDICTED BY IDOCK:   -4.95 KCAL/MOL
REMARK 922        TOTAL FREE ENERGY PREDICTED BY IDOCK:   -5.90 KCAL/MOL
REMARK 923 INTER-LIGAND FREE ENERGY PREDICTED BY IDOCK:   -5.49 KCAL/MOL
REMARK 924 INTRA-LIGAND FREE ENERGY PREDICTED BY IDOCK:   -0.41 KCAL/MOL
REMARK 927      BINDING AFFINITY PREDICTED BY RF-SCORE:    0.00 PKD
ROOT
HETATM    1  O   UNL     1     -12.242  12.575  70.629  1.00  0.00    -0.369 OA 
HETATM    2  C   UNL     1     -12.021  13.671  69.873  1.00  0.00    -0.348 C  
HETATM    3  C   UNL     1     -11.808  13.373  68.436  1.00  0.00    -0.401 A  
HETATM    4  O   UNL     1     -12.039  14.805  70.315  1.00  0.00    -0.283 OA 
HETATM    5  C   UNL     1     -12.265  14.287  67.482  1.00  0.00    -0.237 A  
HETATM    6  C   UNL     1     -12.088  14.022  66.122  1.00  0.00    -0.471 A  
HETATM    7  C   UNL     1     -11.459  12.840  65.715  1.00  0.00    -0.388 A  
HETATM    8  C   UNL     1     -10.990  11.922  66.663  1.00  0.00    -0.336 A  
HETATM    9  C   UNL     1     -11.145  12.213  68.028  1.00  0.00    -0.292 A  
ENDROOT
BRANCH   8  10
HETATM   10  C   UNL     1     -10.385  10.652  66.278  1.00  0.00    -0.234 A  
HETATM   11  N   UNL     1     -10.113  10.285  65.017  1.00  0.00    -0.323 NA 
HETATM   12  O   UNL     1      -9.639   8.978  65.154  1.00  0.00    -0.081 OA 
HETATM   13  C   UNL     1      -9.673   8.683  66.487  1.00  0.00    -0.255 A  
HETATM   14  N   UNL     1     -10.111   9.683  67.218  1.00  0.00    -0.197 NA 
BRANCH  13  15
HETATM   15  C   UNL     1      -9.267   7.350  66.909  1.00  0.00    -0.183 A  
HETATM   16  C   UNL     1      -7.922   7.110  67.241  1.00  0.00    -0.111 A  
HETATM   17  C   UNL     1      -7.500   5.848  67.670  1.00  0.00    -0.078 A  
HETATM   18  C   UNL     1      -8.418   4.806  67.776  1.00  0.00    -0.103 A  
HETATM   19  C   UNL     1      -9.755   5.028  67.452  1.00  0.00    -0.183 A  
HETATM   20  C   UNL     1     -10.169   6.289  67.023  1.00  0.00    -0.201 A  
HETATM   21  F   UNL     1     -11.467   6.453  66.731  1.00  0.00    -0.419 F  
ENDBRANCH  13  15
ENDBRANCH   8  10
TORSDOF 2
ENDMDL
MODEL      117
REMARK 921   NORMALIZED FREE ENERGY PREDICTED BY IDOCK:   -4.92 KCAL/MOL
REMARK 922        TOTAL FREE ENERGY PREDICTED BY IDOCK:   -5.86 KCAL/MOL
REMARK 923 INTER-LIGAND FREE ENERGY PREDICTED BY IDOCK:   -5.48 KCAL/MOL
REMARK 924 INTRA-LIGAND FREE ENERGY PREDICTED BY IDOCK:   -0.38 KCAL/MOL
REMARK 927      BINDING AFFINITY PREDICTED BY RF-SCORE:    0.00 PKD
ROOT
HETATM    1  O   UNL     1     -12.787  14.145  66.156  1.00  0.00    -0.377 OA 
HETATM    2  C   UNL     1     -11.758  14.290  65.296  1.00  0.00    -0.357 C  
HETATM    3  C   UNL     1     -10.984  13.045  65.074  1.00  0.00    -0.320 A  
HETATM    4  O   UNL     1     -11.508  15.332  64.719  1.00  0.00    -0.401 OA 
HETATM    5  C   UNL     1     -10.429  12.810  63.812  1.00  0.00    -0.335 A  
HETATM    6  C   UNL     1      -9.708  11.638  63.574  1.00  0.00    -0.342 A  
HETATM    7  C   UNL     1      -9.547  10.696  64.595  1.00  0.00    -0.334 A  
HETATM    8  C   UNL     1     -10.091  10.925  65.866  1.00  0.00    -0.307 A  
HETATM    9  C   UNL     1     -10.787  12.121  66.103  1.00  0.00    -0.317 A  
ENDROOT
BRANCH   8  10
HETATM   10  C   UNL     1      -9.996   9.940  66.937  1.00  0.00    -0.212 A  
HETATM   11  N   UNL     1     -10.417   8.670  66.850  1.00  0.00    -0.287 NA 
HETATM   12  O   UNL     1     -10.201   8.166  68.135  1.00  0.00    -0.196 OA 
HETATM   13  C   UNL     1      -9.671   9.184  68.875  1.00  0.00    -0.162 A  
HETATM   14  N   UNL     1      -9.515  10.289  68.181  1.00  0.00    -0.145 NA 
BRANCH  13  15
HETATM   15  C   UNL     1      -9.387   8.940  70.281  1.00  0.00    -0.208 A  
HETATM   16  C   UNL     1     -10.452   8.711  71.171  1.00  0.00    -0.291 A  
HETATM   17  C   UNL     1     -10.217   8.453  72.524  1.00  0.00    -0.369 A  
HETATM   18  C   UNL     1      -8.912   8.419  73.010  1.00  0.00    -0.242 A  
HETATM   19  C   UNL     1      -7.846   8.643  72.141  1.00  0.00    -0.081 A  
HETATM   20  C   UNL     1      -8.088   8.901  70.792  1.00  0.00    -0.156 A  
HETATM   21  F   UNL     1      -7.027   9.101  69.996  1.00  0.00    -0.042 F  
ENDBRANCH  13  15
ENDBRANCH   8  10
TORSDOF 2
ENDMDL
MODEL      118
REMARK 921   NORMALIZED FREE ENERGY PREDICTED BY IDOCK:   -4.90 KCAL/MOL
REMARK 922        TOTAL FREE ENERGY PREDICTED BY IDOCK:   -5.85 KCAL/MOL
REMARK 923 INTER-LIGAND FREE ENERGY PREDICTED BY IDOCK:   -5.50 KCAL/MOL
REMARK 924 INTRA-LIGAND FREE ENERGY PREDICTED BY IDOCK:   -0.35 KCAL/MOL
REMARK 927      BINDING AFFINITY PREDICTED BY RF-SCORE:    0.00 PKD
ROOT
HETATM    1  O   UNL     1     -11.366  15.685  71.781  1.00  0.00    -0.397 OA 
HETATM    2  C   UNL     1     -12.581  15.139  71.994  1.00  0.00    -0.343 C  
HETATM    3  C   UNL     1     -12.684  13.722  71.571  1.00  0.00    -0.432 A  
HETATM    4  O   UNL     1     -13.501  15.736  72.525  1.00  0.00    -0.482 OA 
HETATM    5  C   UNL     1     -13.501  12.856  72.302  1.00  0.00    -0.631 A  
HETATM    6  C   UNL     1     -13.603  11.513  71.931  1.00  0.00    -0.097 A  
HETATM    7  C   UNL     1     -12.883  11.034  70.832  1.00  0.00    -0.393 A  
HETATM    8  C   UNL     1     -12.067  11.896  70.087  1.00  0.00    -0.382 A  
HETATM    9  C   UNL     1     -11.997  13.250  70.450  1.00  0.00    -0.350 A  
ENDROOT
BRANCH   8  10
HETATM   10  C   UNL     1     -11.255  11.421  68.973  1.00  0.00    -0.256 A  
HETATM   11  N   UNL     1     -11.307  11.907  67.724  1.00  0.00    -0.269 NA 
HETATM   12  O   UNL     1     -10.429  11.083  67.016  1.00  0.00    -0.217 OA 
HETATM   13  C   UNL     1      -9.931  10.178  67.908  1.00  0.00    -0.162 A  
HETATM   14  N   UNL     1     -10.398  10.353  69.124  1.00  0.00    -0.209 NA 
BRANCH  13  15
HETATM   15  C   UNL     1      -9.013   9.160  67.419  1.00  0.00    -0.128 A  
HETATM   16  C   UNL     1      -9.390   8.358  66.327  1.00  0.00    -0.283 A  
HETATM   17  C   UNL     1      -8.525   7.384  65.817  1.00  0.00    -0.149 A  
HETATM   18  C   UNL     1      -7.270   7.198  66.391  1.00  0.00    -0.078 A  
HETATM   19  C   UNL     1      -6.882   7.985  67.473  1.00  0.00    -0.070 A  
HETATM   20  C   UNL     1      -7.749   8.954  67.977  1.00  0.00    -0.101 A  
HETATM   21  F   UNL     1      -7.325   9.691  69.015  1.00  0.00    -0.066 F  
ENDBRANCH  13  15
ENDBRANCH   8  10
TORSDOF 2
ENDMDL
MODEL      119
REMARK 921   NORMALIZED FREE ENERGY PREDICTED BY IDOCK:   -4.89 KCAL/MOL
REMARK 922        TOTAL FREE ENERGY PREDICTED BY IDOCK:   -5.83 KCAL/MOL
REMARK 923 INTER-LIGAND FREE ENERGY PREDICTED BY IDOCK:   -5.68 KCAL/MOL
REMARK 924 INTRA-LIGAND FREE ENERGY PREDICTED BY IDOCK:   -0.15 KCAL/MOL
REMARK 927      BINDING AFFINITY PREDICTED BY RF-SCORE:    0.00 PKD
ROOT
HETATM    1  O   UNL     1     -10.587   7.774  69.918  1.00  0.00    -0.231 OA 
HETATM    2  C   UNL     1     -10.635   7.356  68.637  1.00  0.00    -0.154 C  
HETATM    3  C   UNL     1     -10.355   8.424  67.648  1.00  0.00    -0.317 A  
HETATM    4  O   UNL     1     -10.846   6.200  68.316  1.00  0.00    -0.267 OA 
HETATM    5  C   UNL     1      -9.687   8.092  66.466  1.00  0.00    -0.297 A  
HETATM    6  C   UNL     1      -9.398   9.083  65.525  1.00  0.00    -0.255 A  
HETATM    7  C   UNL     1      -9.772  10.409  65.768  1.00  0.00    -0.285 A  
HETATM    8  C   UNL     1     -10.450  10.751  66.946  1.00  0.00    -0.304 A  
HETATM    9  C   UNL     1     -10.762   9.742  67.870  1.00  0.00    -0.312 A  
ENDROOT
BRANCH   8  10
HETATM   10  C   UNL     1     -10.802  12.131  67.263  1.00  0.00    -0.244 A  
HETATM   11  N   UNL     1     -12.039  12.642  67.191  1.00  0.00    -0.470 NA 
HETATM   12  O   UNL     1     -11.852  13.993  67.494  1.00  0.00    -0.365 OA 
HETATM   13  C   UNL     1     -10.516  14.166  67.720  1.00  0.00    -0.246 A  
HETATM   14  N   UNL     1      -9.833  13.050  67.603  1.00  0.00    -0.207 NA 
BRANCH  13  15
HETATM   15  C   UNL     1     -10.034  15.507  68.018  1.00  0.00    -0.214 A  
HETATM   16  C   UNL     1     -10.942  16.581  68.018  1.00  0.00    -0.320 A  
HETATM   17  C   UNL     1     -10.519  17.879  68.320  1.00  0.00    -0.362 A  
HETATM   18  C   UNL     1      -9.182  18.123  68.626  1.00  0.00    -0.295 A  
HETATM   19  C   UNL     1      -8.272  17.069  68.630  1.00  0.00    -0.261 A  
HETATM   20  C   UNL     1      -8.700  15.776  68.328  1.00  0.00    -0.172 A  
HETATM   21  F   UNL     1      -7.786  14.795  68.353  1.00  0.00    -0.104 F  
ENDBRANCH  13  15
ENDBRANCH   8  10
TORSDOF 2
ENDMDL
MODEL      120
REMARK 921   NORMALIZED FREE ENERGY PREDICTED BY IDOCK:   -4.87 KCAL/MOL
REMARK 922        TOTAL FREE ENERGY PREDICTED BY IDOCK:   -5.81 KCAL/MOL
REMARK 923 INTER-LIGAND FREE ENERGY PREDICTED BY IDOCK:   -5.48 KCAL/MOL
REMARK 924 INTRA-LIGAND FREE ENERGY PREDICTED BY IDOCK:   -0.33 KCAL/MOL
REMARK 927      BINDING AFFINITY PREDICTED BY RF-SCORE:    0.00 PKD
ROOT
HETATM    1  O   UNL     1      -7.313  20.025  71.668  1.00  0.00     0.657 OA 
HETATM    2  C   UNL     1      -6.125  20.305  71.093  1.00  0.00    -0.207 C  
HETATM    3  C   UNL     1      -6.111  20.109  69.623  1.00  0.00    -0.389 A  
HETATM    4  O   UNL     1      -5.163  20.722  71.711  1.00  0.00    -0.527 OA 
HETATM    5  C   UNL     1      -5.327  20.957  68.836  1.00  0.00    -0.390 A  
HETATM    6  C   UNL     1      -5.308  20.801  67.448  1.00  0.00    -0.238 A  
HETATM    7  C   UNL     1      -6.078  19.801  66.845  1.00  0.00    -0.182 A  
HETATM    8  C   UNL     1      -6.861  18.940  67.626  1.00  0.00    -0.225 A  
HETATM    9  C   UNL     1      -6.848  19.086  69.022  1.00  0.00    -0.352 A  
ENDROOT
BRANCH   8  10
HETATM   10  C   UNL     1      -7.723  17.926  67.031  1.00  0.00    -0.211 A  
HETATM   11  N   UNL     1      -8.193  17.960  65.775  1.00  0.00    -0.506 NA 
HETATM   12  O   UNL     1      -9.029  16.843  65.710  1.00  0.00    -0.524 OA 
HETATM   13  C   UNL     1      -8.982  16.241  66.935  1.00  0.00    -0.217 A  
HETATM   14  N   UNL     1      -8.185  16.861  67.775  1.00  0.00    -0.187 NA 
BRANCH  13  15
HETATM   15  C   UNL     1      -9.806  15.062  67.157  1.00  0.00    -0.233 A  
HETATM   16  C   UNL     1     -11.119  15.033  66.653  1.00  0.00    -0.326 A  
HETATM   17  C   UNL     1     -11.932  13.910  66.830  1.00  0.00    -0.472 A  
HETATM   18  C   UNL     1     -11.445  12.797  67.512  1.00  0.00    -0.390 A  
HETATM   19  C   UNL     1     -10.147  12.812  68.018  1.00  0.00    -0.230 A  
HETATM   20  C   UNL     1      -9.341  13.936  67.839  1.00  0.00    -0.208 A  
HETATM   21  F   UNL     1      -8.096  13.895  68.337  1.00  0.00    -0.123 F  
ENDBRANCH  13  15
ENDBRANCH   8  10
TORSDOF 2
ENDMDL
MODEL      121
REMARK 921   NORMALIZED FREE ENERGY PREDICTED BY IDOCK:   -4.87 KCAL/MOL
REMARK 922        TOTAL FREE ENERGY PREDICTED BY IDOCK:   -5.81 KCAL/MOL
REMARK 923 INTER-LIGAND FREE ENERGY PREDICTED BY IDOCK:   -5.53 KCAL/MOL
REMARK 924 INTRA-LIGAND FREE ENERGY PREDICTED BY IDOCK:   -0.28 KCAL/MOL
REMARK 927      BINDING AFFINITY PREDICTED BY RF-SCORE:    0.00 PKD
ROOT
HETATM    1  O   UNL     1      -8.299  15.982  67.668  1.00  0.00    -0.148 OA 
HETATM    2  C   UNL     1      -9.118  15.627  66.657  1.00  0.00    -0.282 C  
HETATM    3  C   UNL     1      -9.937  14.426  66.944  1.00  0.00    -0.261 A  
HETATM    4  O   UNL     1      -9.214  16.257  65.619  1.00  0.00    -0.444 OA 
HETATM    5  C   UNL     1     -11.228  14.345  66.415  1.00  0.00    -0.345 A  
HETATM    6  C   UNL     1     -12.024  13.229  66.684  1.00  0.00    -0.446 A  
HETATM    7  C   UNL     1     -11.532  12.195  67.487  1.00  0.00    -0.410 A  
HETATM    8  C   UNL     1     -10.235  12.261  68.014  1.00  0.00    -0.206 A  
HETATM    9  C   UNL     1      -9.433  13.373  67.713  1.00  0.00    -0.210 A  
ENDROOT
BRANCH   8  10
HETATM   10  C   UNL     1      -9.709  11.233  68.904  1.00  0.00    -0.127 A  
HETATM   11  N   UNL     1      -8.410  10.925  69.036  1.00  0.00    -0.142 NA 
HETATM   12  O   UNL     1      -8.420   9.838  69.914  1.00  0.00    -0.172 OA 
HETATM   13  C   UNL     1      -9.727   9.595  70.227  1.00  0.00    -0.259 A  
HETATM   14  N   UNL     1     -10.554  10.432  69.643  1.00  0.00    -0.243 NA 
BRANCH  13  15
HETATM   15  C   UNL     1     -10.030   8.473  71.104  1.00  0.00    -0.265 A  
HETATM   16  C   UNL     1     -10.922   8.656  72.176  1.00  0.00    -0.434 A  
HETATM   17  C   UNL     1     -11.252   7.597  73.026  1.00  0.00    -0.388 A  
HETATM   18  C   UNL     1     -10.696   6.337  72.816  1.00  0.00    -0.269 A  
HETATM   19  C   UNL     1      -9.812   6.140  71.759  1.00  0.00    -0.185 A  
HETATM   20  C   UNL     1      -9.486   7.201  70.915  1.00  0.00    -0.160 A  
HETATM   21  F   UNL     1      -8.636   6.957  69.907  1.00  0.00    -0.133 F  
ENDBRANCH  13  15
ENDBRANCH   8  10
TORSDOF 2
ENDMDL
MODEL      122
REMARK 921   NORMALIZED FREE ENERGY PREDICTED BY IDOCK:   -4.85 KCAL/MOL
REMARK 922        TOTAL FREE ENERGY PREDICTED BY IDOCK:   -5.79 KCAL/MOL
REMARK 923 INTER-LIGAND FREE ENERGY PREDICTED BY IDOCK:   -5.40 KCAL/MOL
REMARK 924 INTRA-LIGAND FREE ENERGY PREDICTED BY IDOCK:   -0.39 KCAL/MOL
REMARK 927      BINDING AFFINITY PREDICTED BY RF-SCORE:    0.00 PKD
ROOT
HETATM    1  O   UNL     1     -11.975  14.189  69.583  1.00  0.00    -0.295 OA 
HETATM    2  C   UNL     1     -11.622  14.820  68.444  1.00  0.00    -0.324 C  
HETATM    3  C   UNL     1     -11.398  13.907  67.299  1.00  0.00    -0.344 A  
HETATM    4  O   UNL     1     -11.535  16.031  68.348  1.00  0.00    -0.369 OA 
HETATM    5  C   UNL     1     -11.730  14.341  66.012  1.00  0.00    -0.384 A  
HETATM    6  C   UNL     1     -11.542  13.493  64.919  1.00  0.00    -0.355 A  
HETATM    7  C   UNL     1     -11.026  12.207  65.111  1.00  0.00    -0.355 A  
HETATM    8  C   UNL     1     -10.682  11.764  66.395  1.00  0.00    -0.306 A  
HETATM    9  C   UNL     1     -10.846  12.636  67.483  1.00  0.00    -0.267 A  
ENDROOT
BRANCH   8  10
HETATM   10  C   UNL     1     -10.200  10.411  66.643  1.00  0.00    -0.234 A  
HETATM   11  N   UNL     1      -9.728   9.581  65.701  1.00  0.00    -0.289 NA 
HETATM   12  O   UNL     1      -9.486   8.397  66.402  1.00  0.00    -0.196 OA 
HETATM   13  C   UNL     1      -9.837   8.628  67.701  1.00  0.00    -0.180 A  
HETATM   14  N   UNL     1     -10.268   9.852  67.901  1.00  0.00    -0.181 NA 
BRANCH  13  15
HETATM   15  C   UNL     1      -9.724   7.531  68.652  1.00  0.00    -0.154 A  
HETATM   16  C   UNL     1     -10.423   6.335  68.412  1.00  0.00    -0.273 A  
HETATM   17  C   UNL     1     -10.323   5.253  69.292  1.00  0.00    -0.286 A  
HETATM   18  C   UNL     1      -9.521   5.351  70.427  1.00  0.00    -0.215 A  
HETATM   19  C   UNL     1      -8.822   6.530  70.678  1.00  0.00    -0.144 A  
HETATM   20  C   UNL     1      -8.927   7.605  69.796  1.00  0.00    -0.140 A  
HETATM   21  F   UNL     1      -8.228   8.714  70.080  1.00  0.00    -0.105 F  
ENDBRANCH  13  15
ENDBRANCH   8  10
TORSDOF 2
ENDMDL
MODEL      123
REMARK 921   NORMALIZED FREE ENERGY PREDICTED BY IDOCK:   -4.84 KCAL/MOL
REMARK 922        TOTAL FREE ENERGY PREDICTED BY IDOCK:   -5.78 KCAL/MOL
REMARK 923 INTER-LIGAND FREE ENERGY PREDICTED BY IDOCK:   -5.40 KCAL/MOL
REMARK 924 INTRA-LIGAND FREE ENERGY PREDICTED BY IDOCK:   -0.38 KCAL/MOL
REMARK 927      BINDING AFFINITY PREDICTED BY RF-SCORE:    0.00 PKD
ROOT
HETATM    1  O   UNL     1      -7.990  15.490  67.473  1.00  0.00    -0.142 OA 
HETATM    2  C   UNL     1      -8.849  15.689  66.452  1.00  0.00    -0.330 C  
HETATM    3  C   UNL     1      -9.948  14.696  66.391  1.00  0.00    -0.296 A  
HETATM    4  O   UNL     1      -8.761  16.622  65.674  1.00  0.00    -0.428 OA 
HETATM    5  C   UNL     1     -11.206  15.107  65.941  1.00  0.00    -0.280 A  
HETATM    6  C   UNL     1     -12.261  14.193  65.889  1.00  0.00    -0.458 A  
HETATM    7  C   UNL     1     -12.060  12.868  66.292  1.00  0.00    -0.433 A  
HETATM    8  C   UNL     1     -10.801  12.444  66.736  1.00  0.00    -0.283 A  
HETATM    9  C   UNL     1      -9.740  13.363  66.755  1.00  0.00    -0.262 A  
ENDROOT
BRANCH   8  10
HETATM   10  C   UNL     1     -10.568  11.089  67.221  1.00  0.00    -0.245 A  
HETATM   11  N   UNL     1     -10.415  10.752  68.510  1.00  0.00    -0.176 NA 
HETATM   12  O   UNL     1     -10.129   9.386  68.459  1.00  0.00    -0.174 OA 
HETATM   13  C   UNL     1     -10.136   9.030  67.141  1.00  0.00    -0.243 A  
HETATM   14  N   UNL     1     -10.414  10.037  66.344  1.00  0.00    -0.171 NA 
BRANCH  13  15
HETATM   15  C   UNL     1      -9.821   7.651  66.796  1.00  0.00    -0.307 A  
HETATM   16  C   UNL     1     -10.840   6.682  66.825  1.00  0.00    -0.322 A  
HETATM   17  C   UNL     1     -10.579   5.353  66.481  1.00  0.00    -0.353 A  
HETATM   18  C   UNL     1      -9.294   4.972  66.100  1.00  0.00    -0.157 A  
HETATM   19  C   UNL     1      -8.275   5.920  66.066  1.00  0.00    -0.123 A  
HETATM   20  C   UNL     1      -8.542   7.245  66.411  1.00  0.00    -0.138 A  
HETATM   21  F   UNL     1      -7.527   8.120  66.353  1.00  0.00    -0.080 F  
ENDBRANCH  13  15
ENDBRANCH   8  10
TORSDOF 2
ENDMDL
MODEL      124
REMARK 921   NORMALIZED FREE ENERGY PREDICTED BY IDOCK:   -4.84 KCAL/MOL
REMARK 922        TOTAL FREE ENERGY PREDICTED BY IDOCK:   -5.77 KCAL/MOL
REMARK 923 INTER-LIGAND FREE ENERGY PREDICTED BY IDOCK:   -5.39 KCAL/MOL
REMARK 924 INTRA-LIGAND FREE ENERGY PREDICTED BY IDOCK:   -0.39 KCAL/MOL
REMARK 927      BINDING AFFINITY PREDICTED BY RF-SCORE:    0.00 PKD
ROOT
HETATM    1  O   UNL     1     -13.737   9.796  72.122  1.00  0.00    -0.385 OA 
HETATM    2  C   UNL     1     -13.128  10.961  71.819  1.00  0.00    -0.459 C  
HETATM    3  C   UNL     1     -12.066  10.832  70.793  1.00  0.00    -0.473 A  
HETATM    4  O   UNL     1     -13.446  12.030  72.307  1.00  0.00    -0.465 OA 
HETATM    5  C   UNL     1     -11.862  11.884  69.895  1.00  0.00    -0.418 A  
HETATM    6  C   UNL     1     -10.878  11.780  68.911  1.00  0.00    -0.265 A  
HETATM    7  C   UNL     1     -10.099  10.621  68.818  1.00  0.00    -0.203 A  
HETATM    8  C   UNL     1     -10.289   9.565  69.718  1.00  0.00    -0.251 A  
HETATM    9  C   UNL     1     -11.261   9.692  70.723  1.00  0.00    -0.403 A  
ENDROOT
BRANCH   8  10
HETATM   10  C   UNL     1      -9.541   8.317  69.616  1.00  0.00    -0.167 A  
HETATM   11  N   UNL     1      -8.206   8.230  69.522  1.00  0.00    -0.117 NA 
HETATM   12  O   UNL     1      -7.979   6.862  69.356  1.00  0.00    -0.111 OA 
HETATM   13  C   UNL     1      -9.203   6.255  69.365  1.00  0.00    -0.138 A  
HETATM   14  N   UNL     1     -10.190   7.104  69.534  1.00  0.00    -0.190 NA 
BRANCH  13  15
HETATM   15  C   UNL     1      -9.260   4.814  69.163  1.00  0.00    -0.175 A  
HETATM   16  C   UNL     1      -9.220   4.298  67.856  1.00  0.00    -0.179 A  
HETATM   17  C   UNL     1      -9.253   2.919  67.625  1.00  0.00    -0.243 A  
HETATM   18  C   UNL     1      -9.324   2.035  68.700  1.00  0.00    -0.235 A  
HETATM   19  C   UNL     1      -9.364   2.531  70.000  1.00  0.00    -0.186 A  
HETATM   20  C   UNL     1      -9.332   3.908  70.223  1.00  0.00    -0.168 A  
HETATM   21  F   UNL     1      -9.364   4.334  71.495  1.00  0.00    -0.153 F  
ENDBRANCH  13  15
ENDBRANCH   8  10
TORSDOF 2
ENDMDL
MODEL      125
REMARK 921   NORMALIZED FREE ENERGY PREDICTED BY IDOCK:   -4.81 KCAL/MOL
REMARK 922        TOTAL FREE ENERGY PREDICTED BY IDOCK:   -5.75 KCAL/MOL
REMARK 923 INTER-LIGAND FREE ENERGY PREDICTED BY IDOCK:   -5.37 KCAL/MOL
REMARK 924 INTRA-LIGAND FREE ENERGY PREDICTED BY IDOCK:   -0.38 KCAL/MOL
REMARK 927      BINDING AFFINITY PREDICTED BY RF-SCORE:    0.00 PKD
ROOT
HETATM    1  O   UNL     1     -10.785  16.426  66.520  1.00  0.00    -0.270 OA 
HETATM    2  C   UNL     1     -10.910  15.883  65.292  1.00  0.00    -0.387 C  
HETATM    3  C   UNL     1     -10.858  14.402  65.284  1.00  0.00    -0.370 A  
HETATM    4  O   UNL     1     -11.093  16.541  64.283  1.00  0.00    -0.915 OA 
HETATM    5  C   UNL     1     -11.630  13.703  64.351  1.00  0.00    -0.421 A  
HETATM    6  C   UNL     1     -11.608  12.307  64.334  1.00  0.00    -0.428 A  
HETATM    7  C   UNL     1     -10.819  11.607  65.253  1.00  0.00    -0.340 A  
HETATM    8  C   UNL     1     -10.035  12.298  66.186  1.00  0.00    -0.260 A  
HETATM    9  C   UNL     1     -10.040  13.701  66.175  1.00  0.00    -0.311 A  
ENDROOT
BRANCH   8  10
HETATM   10  C   UNL     1      -9.247  11.604  67.199  1.00  0.00    -0.176 A  
HETATM   11  N   UNL     1      -8.188  12.125  67.836  1.00  0.00    -0.145 NA 
HETATM   12  O   UNL     1      -7.728  11.067  68.622  1.00  0.00    -0.115 OA 
HETATM   13  C   UNL     1      -8.555  10.007  68.382  1.00  0.00    -0.113 A  
HETATM   14  N   UNL     1      -9.510  10.291  67.526  1.00  0.00    -0.151 NA 
BRANCH  13  15
HETATM   15  C   UNL     1      -8.271   8.744  69.049  1.00  0.00    -0.117 A  
HETATM   16  C   UNL     1      -7.589   7.732  68.350  1.00  0.00    -0.109 A  
HETATM   17  C   UNL     1      -7.282   6.515  68.964  1.00  0.00    -0.091 A  
HETATM   18  C   UNL     1      -7.649   6.291  70.289  1.00  0.00    -0.096 A  
HETATM   19  C   UNL     1      -8.324   7.284  70.995  1.00  0.00    -0.119 A  
HETATM   20  C   UNL     1      -8.629   8.496  70.376  1.00  0.00    -0.143 A  
HETATM   21  F   UNL     1      -9.272   9.422  71.102  1.00  0.00    -0.293 F  
ENDBRANCH  13  15
ENDBRANCH   8  10
TORSDOF 2
ENDMDL
MODEL      126
REMARK 921   NORMALIZED FREE ENERGY PREDICTED BY IDOCK:   -4.81 KCAL/MOL
REMARK 922        TOTAL FREE ENERGY PREDICTED BY IDOCK:   -5.75 KCAL/MOL
REMARK 923 INTER-LIGAND FREE ENERGY PREDICTED BY IDOCK:   -5.36 KCAL/MOL
REMARK 924 INTRA-LIGAND FREE ENERGY PREDICTED BY IDOCK:   -0.38 KCAL/MOL
REMARK 927      BINDING AFFINITY PREDICTED BY RF-SCORE:    0.00 PKD
ROOT
HETATM    1  O   UNL     1      -9.942   4.022  70.266  1.00  0.00    -0.188 OA 
HETATM    2  C   UNL     1      -9.712   4.542  71.489  1.00  0.00    -0.175 C  
HETATM    3  C   UNL     1     -10.202   5.931  71.651  1.00  0.00    -0.249 A  
HETATM    4  O   UNL     1      -9.190   3.918  72.395  1.00  0.00    -0.108 OA 
HETATM    5  C   UNL     1     -10.691   6.335  72.897  1.00  0.00    -0.274 A  
HETATM    6  C   UNL     1     -11.172   7.634  73.070  1.00  0.00    -0.388 A  
HETATM    7  C   UNL     1     -11.170   8.531  71.996  1.00  0.00    -0.418 A  
HETATM    8  C   UNL     1     -10.674   8.140  70.745  1.00  0.00    -0.242 A  
HETATM    9  C   UNL     1     -10.165   6.841  70.591  1.00  0.00    -0.216 A  
ENDROOT
BRANCH   8  10
HETATM   10  C   UNL     1     -10.712   9.025  69.587  1.00  0.00    -0.219 A  
HETATM   11  N   UNL     1     -10.519   8.635  68.319  1.00  0.00    -0.209 NA 
HETATM   12  O   UNL     1     -10.558   9.832  67.600  1.00  0.00    -0.242 OA 
HETATM   13  C   UNL     1     -10.771  10.831  68.507  1.00  0.00    -0.210 A  
HETATM   14  N   UNL     1     -10.885  10.384  69.737  1.00  0.00    -0.274 NA 
BRANCH  13  15
HETATM   15  C   UNL     1     -10.812  12.204  68.026  1.00  0.00    -0.258 A  
HETATM   16  C   UNL     1     -12.013  12.716  67.503  1.00  0.00    -0.314 A  
HETATM   17  C   UNL     1     -12.095  14.036  67.050  1.00  0.00    -0.455 A  
HETATM   18  C   UNL     1     -10.978  14.865  67.115  1.00  0.00    -0.323 A  
HETATM   19  C   UNL     1      -9.782  14.373  67.631  1.00  0.00    -0.219 A  
HETATM   20  C   UNL     1      -9.706  13.055  68.080  1.00  0.00    -0.224 A  
HETATM   21  F   UNL     1      -8.534  12.632  68.576  1.00  0.00    -0.159 F  
ENDBRANCH  13  15
ENDBRANCH   8  10
TORSDOF 2
ENDMDL
MODEL      127
REMARK 921   NORMALIZED FREE ENERGY PREDICTED BY IDOCK:   -4.80 KCAL/MOL
REMARK 922        TOTAL FREE ENERGY PREDICTED BY IDOCK:   -5.73 KCAL/MOL
REMARK 923 INTER-LIGAND FREE ENERGY PREDICTED BY IDOCK:   -5.40 KCAL/MOL
REMARK 924 INTRA-LIGAND FREE ENERGY PREDICTED BY IDOCK:   -0.33 KCAL/MOL
REMARK 927      BINDING AFFINITY PREDICTED BY RF-SCORE:    0.00 PKD
ROOT
HETATM    1  O   UNL     1      -7.377   8.592  72.837  1.00  0.00    -0.323 OA 
HETATM    2  C   UNL     1      -8.562   8.205  73.354  1.00  0.00    -0.247 C  
HETATM    3  C   UNL     1      -9.630   8.033  72.341  1.00  0.00    -0.297 A  
HETATM    4  O   UNL     1      -8.734   7.974  74.537  1.00  0.00    -0.115 OA 
HETATM    5  C   UNL     1     -10.589   7.035  72.532  1.00  0.00    -0.255 A  
HETATM    6  C   UNL     1     -11.596   6.844  71.584  1.00  0.00    -0.325 A  
HETATM    7  C   UNL     1     -11.642   7.648  70.440  1.00  0.00    -0.138 A  
HETATM    8  C   UNL     1     -10.691   8.657  70.242  1.00  0.00    -0.243 A  
HETATM    9  C   UNL     1      -9.701   8.861  71.217  1.00  0.00    -0.359 A  
ENDROOT
BRANCH   8  10
HETATM   10  C   UNL     1     -10.669   9.475  69.035  1.00  0.00    -0.202 A  
HETATM   11  N   UNL     1     -10.726   8.995  67.784  1.00  0.00    -0.201 NA 
HETATM   12  O   UNL     1     -10.581  10.136  66.990  1.00  0.00    -0.244 OA 
HETATM   13  C   UNL     1     -10.450  11.195  67.842  1.00  0.00    -0.190 A  
HETATM   14  N   UNL     1     -10.510  10.842  69.106  1.00  0.00    -0.209 NA 
BRANCH  13  15
HETATM   15  C   UNL     1     -10.238  12.517  67.271  1.00  0.00    -0.222 A  
HETATM   16  C   UNL     1      -9.130  13.278  67.685  1.00  0.00    -0.204 A  
HETATM   17  C   UNL     1      -8.883  14.543  67.144  1.00  0.00    -0.245 A  
HETATM   18  C   UNL     1      -9.740  15.067  66.179  1.00  0.00    -0.334 A  
HETATM   19  C   UNL     1     -10.842  14.326  65.759  1.00  0.00    -0.303 A  
HETATM   20  C   UNL     1     -11.083  13.065  66.303  1.00  0.00    -0.289 A  
HETATM   21  F   UNL     1     -12.152  12.387  65.858  1.00  0.00    -0.456 F  
ENDBRANCH  13  15
ENDBRANCH   8  10
TORSDOF 2
ENDMDL
MODEL      128
REMARK 921   NORMALIZED FREE ENERGY PREDICTED BY IDOCK:   -4.73 KCAL/MOL
REMARK 922        TOTAL FREE ENERGY PREDICTED BY IDOCK:   -5.65 KCAL/MOL
REMARK 923 INTER-LIGAND FREE ENERGY PREDICTED BY IDOCK:   -5.27 KCAL/MOL
REMARK 924 INTRA-LIGAND FREE ENERGY PREDICTED BY IDOCK:   -0.38 KCAL/MOL
REMARK 927      BINDING AFFINITY PREDICTED BY RF-SCORE:    0.00 PKD
ROOT
HETATM    1  O   UNL     1     -12.572  13.937  66.261  1.00  0.00    -0.435 OA 
HETATM    2  C   UNL     1     -11.727  13.827  65.215  1.00  0.00    -0.338 C  
HETATM    3  C   UNL     1     -11.058  12.507  65.124  1.00  0.00    -0.335 A  
HETATM    4  O   UNL     1     -11.558  14.709  64.394  1.00  0.00    -0.367 OA 
HETATM    5  C   UNL     1     -10.771  11.981  63.861  1.00  0.00    -0.450 A  
HETATM    6  C   UNL     1     -10.154  10.733  63.750  1.00  0.00    -0.391 A  
HETATM    7  C   UNL     1      -9.829  10.006  64.900  1.00  0.00    -0.352 A  
HETATM    8  C   UNL     1     -10.104  10.529  66.171  1.00  0.00    -0.306 A  
HETATM    9  C   UNL     1     -10.696  11.797  66.272  1.00  0.00    -0.312 A  
ENDROOT
BRANCH   8  10
HETATM   10  C   UNL     1      -9.836   9.776  67.391  1.00  0.00    -0.174 A  
HETATM   11  N   UNL     1      -9.680  10.319  68.607  1.00  0.00    -0.160 NA 
HETATM   12  O   UNL     1      -9.356   9.225  69.413  1.00  0.00    -0.153 OA 
HETATM   13  C   UNL     1      -9.347   8.126  68.603  1.00  0.00    -0.143 A  
HETATM   14  N   UNL     1      -9.648   8.411  67.357  1.00  0.00    -0.150 NA 
BRANCH  13  15
HETATM   15  C   UNL     1      -8.992   6.841  69.187  1.00  0.00    -0.132 A  
HETATM   16  C   UNL     1      -7.683   6.635  69.658  1.00  0.00    -0.107 A  
HETATM   17  C   UNL     1      -7.311   5.421  70.243  1.00  0.00    -0.067 A  
HETATM   18  C   UNL     1      -8.244   4.394  70.368  1.00  0.00    -0.074 A  
HETATM   19  C   UNL     1      -9.545   4.583  69.906  1.00  0.00    -0.269 A  
HETATM   20  C   UNL     1      -9.909   5.796  69.323  1.00  0.00    -0.170 A  
HETATM   21  F   UNL     1     -11.175   5.930  68.903  1.00  0.00    -0.387 F  
ENDBRANCH  13  15
ENDBRANCH   8  10
TORSDOF 2
ENDMDL
MODEL      129
REMARK 921   NORMALIZED FREE ENERGY PREDICTED BY IDOCK:   -4.68 KCAL/MOL
REMARK 922        TOTAL FREE ENERGY PREDICTED BY IDOCK:   -5.60 KCAL/MOL
REMARK 923 INTER-LIGAND FREE ENERGY PREDICTED BY IDOCK:   -5.44 KCAL/MOL
REMARK 924 INTRA-LIGAND FREE ENERGY PREDICTED BY IDOCK:   -0.16 KCAL/MOL
REMARK 927      BINDING AFFINITY PREDICTED BY RF-SCORE:    0.00 PKD
ROOT
HETATM    1  O   UNL     1     -11.576  10.882  69.150  1.00  0.00    -0.272 OA 
HETATM    2  C   UNL     1     -12.014  11.522  70.255  1.00  0.00    -0.368 C  
HETATM    3  C   UNL     1     -11.888  12.997  70.180  1.00  0.00    -0.324 A  
HETATM    4  O   UNL     1     -12.508  10.950  71.209  1.00  0.00    -0.370 OA 
HETATM    5  C   UNL     1     -12.854  13.790  70.807  1.00  0.00    -0.302 A  
HETATM    6  C   UNL     1     -12.765  15.182  70.739  1.00  0.00    -0.463 A  
HETATM    7  C   UNL     1     -11.714  15.784  70.039  1.00  0.00    -0.362 A  
HETATM    8  C   UNL     1     -10.735  14.998  69.415  1.00  0.00    -0.267 A  
HETATM    9  C   UNL     1     -10.817  13.600  69.516  1.00  0.00     0.030 A  
ENDROOT
BRANCH   8  10
HETATM   10  C   UNL     1      -9.659  15.586  68.626  1.00  0.00    -0.203 A  
HETATM   11  N   UNL     1      -8.607  14.910  68.142  1.00  0.00    -0.154 NA 
HETATM   12  O   UNL     1      -7.825  15.905  67.549  1.00  0.00    -0.133 OA 
HETATM   13  C   UNL     1      -8.483  17.088  67.735  1.00  0.00    -0.198 A  
HETATM   14  N   UNL     1      -9.619  16.941  68.378  1.00  0.00    -0.246 NA 
BRANCH  13  15
HETATM   15  C   UNL     1      -7.859  18.309  67.247  1.00  0.00    -0.233 A  
HETATM   16  C   UNL     1      -8.037  19.508  67.961  1.00  0.00    -0.347 A  
HETATM   17  C   UNL     1      -7.437  20.695  67.534  1.00  0.00    -0.353 A  
HETATM   18  C   UNL     1      -6.646  20.703  66.387  1.00  0.00    -0.307 A  
HETATM   19  C   UNL     1      -6.460  19.524  65.670  1.00  0.00    -0.265 A  
HETATM   20  C   UNL     1      -7.062  18.342  66.101  1.00  0.00    -0.265 A  
HETATM   21  F   UNL     1      -6.844  17.232  65.380  1.00  0.00    -0.036 F  
ENDBRANCH  13  15
ENDBRANCH   8  10
TORSDOF 2
ENDMDL
MODEL      130
REMARK 921   NORMALIZED FREE ENERGY PREDICTED BY IDOCK:   -4.67 KCAL/MOL
REMARK 922        TOTAL FREE ENERGY PREDICTED BY IDOCK:   -5.59 KCAL/MOL
REMARK 923 INTER-LIGAND FREE ENERGY PREDICTED BY IDOCK:   -5.20 KCAL/MOL
REMARK 924 INTRA-LIGAND FREE ENERGY PREDICTED BY IDOCK:   -0.39 KCAL/MOL
REMARK 927      BINDING AFFINITY PREDICTED BY RF-SCORE:    0.00 PKD
ROOT
HETATM    1  O   UNL     1     -13.369  11.688  71.358  1.00  0.00    -0.202 OA 
HETATM    2  C   UNL     1     -13.173  12.968  71.736  1.00  0.00    -0.392 C  
HETATM    3  C   UNL     1     -12.521  13.805  70.700  1.00  0.00    -0.429 A  
HETATM    4  O   UNL     1     -13.535  13.413  72.810  1.00  0.00    -0.607 OA 
HETATM    5  C   UNL     1     -12.872  15.155  70.602  1.00  0.00    -0.440 A  
HETATM    6  C   UNL     1     -12.281  15.959  69.625  1.00  0.00    -0.133 A  
HETATM    7  C   UNL     1     -11.344  15.414  68.741  1.00  0.00    -0.328 A  
HETATM    8  C   UNL     1     -10.979  14.065  68.836  1.00  0.00    -0.283 A  
HETATM    9  C   UNL     1     -11.555  13.273  69.842  1.00  0.00    -0.260 A  
ENDROOT
BRANCH   8  10
HETATM   10  C   UNL     1     -10.052  13.446  67.896  1.00  0.00    -0.238 A  
HETATM   11  N   UNL     1      -8.843  13.931  67.580  1.00  0.00    -0.180 NA 
HETATM   12  O   UNL     1      -8.389  13.056  66.590  1.00  0.00    -0.014 OA 
HETATM   13  C   UNL     1      -9.372  12.126  66.403  1.00  0.00    -0.224 A  
HETATM   14  N   UNL     1     -10.406  12.316  67.190  1.00  0.00    -0.217 NA 
BRANCH  13  15
HETATM   15  C   UNL     1      -9.174  11.108  65.383  1.00  0.00    -0.225 A  
HETATM   16  C   UNL     1      -9.911  11.177  64.187  1.00  0.00    -0.340 A  
HETATM   17  C   UNL     1      -9.733  10.228  63.176  1.00  0.00    -0.220 A  
HETATM   18  C   UNL     1      -8.812   9.195  63.345  1.00  0.00    -0.088 A  
HETATM   19  C   UNL     1      -8.075   9.114  64.523  1.00  0.00    -0.139 A  
HETATM   20  C   UNL     1      -8.258  10.063  65.528  1.00  0.00    -0.146 A  
HETATM   21  F   UNL     1      -7.517   9.945  66.640  1.00  0.00    -0.094 F  
ENDBRANCH  13  15
ENDBRANCH   8  10
TORSDOF 2
ENDMDL
MODEL      131
REMARK 921   NORMALIZED FREE ENERGY PREDICTED BY IDOCK:   -4.65 KCAL/MOL
REMARK 922        TOTAL FREE ENERGY PREDICTED BY IDOCK:   -5.56 KCAL/MOL
REMARK 923 INTER-LIGAND FREE ENERGY PREDICTED BY IDOCK:   -5.25 KCAL/MOL
REMARK 924 INTRA-LIGAND FREE ENERGY PREDICTED BY IDOCK:   -0.32 KCAL/MOL
REMARK 927      BINDING AFFINITY PREDICTED BY RF-SCORE:    0.00 PKD
ROOT
HETATM    1  O   UNL     1      -7.104  20.363  70.552  1.00  0.00    -0.040 OA 
HETATM    2  C   UNL     1      -6.212  20.571  69.562  1.00  0.00    -0.227 C  
HETATM    3  C   UNL     1      -6.656  20.067  68.240  1.00  0.00    -0.322 A  
HETATM    4  O   UNL     1      -5.156  21.156  69.722  1.00  0.00    -0.373 OA 
HETATM    5  C   UNL     1      -6.279  20.764  67.089  1.00  0.00    -0.323 A  
HETATM    6  C   UNL     1      -6.697  20.317  65.834  1.00  0.00    -0.279 A  
HETATM    7  C   UNL     1      -7.499  19.175  65.729  1.00  0.00    -0.205 A  
HETATM    8  C   UNL     1      -7.876  18.464  66.875  1.00  0.00    -0.248 A  
HETATM    9  C   UNL     1      -7.424  18.905  68.129  1.00  0.00    -0.297 A  
ENDROOT
BRANCH   8  10
HETATM   10  C   UNL     1      -8.760  17.306  66.812  1.00  0.00    -0.251 A  
HETATM   11  N   UNL     1      -9.813  17.190  65.989  1.00  0.00    -0.483 NA 
HETATM   12  O   UNL     1     -10.385  15.971  66.362  1.00  0.00    -0.286 OA 
HETATM   13  C   UNL     1      -9.620  15.469  67.376  1.00  0.00    -0.213 A  
HETATM   14  N   UNL     1      -8.605  16.246  67.678  1.00  0.00    -0.172 NA 
BRANCH  13  15
HETATM   15  C   UNL     1     -10.023  14.211  67.987  1.00  0.00    -0.226 A  
HETATM   16  C   UNL     1      -9.074  13.186  68.146  1.00  0.00    -0.200 A  
HETATM   17  C   UNL     1      -9.420  11.972  68.747  1.00  0.00     0.027 A  
HETATM   18  C   UNL     1     -10.721  11.765  69.200  1.00  0.00    -0.169 A  
HETATM   19  C   UNL     1     -11.672  12.771  69.050  1.00  0.00    -0.371 A  
HETATM   20  C   UNL     1     -11.321  13.980  68.449  1.00  0.00    -0.291 A  
HETATM   21  F   UNL     1     -12.271  14.919  68.336  1.00  0.00    -0.298 F  
ENDBRANCH  13  15
ENDBRANCH   8  10
TORSDOF 2
ENDMDL
MODEL      132
REMARK 921   NORMALIZED FREE ENERGY PREDICTED BY IDOCK:   -4.61 KCAL/MOL
REMARK 922        TOTAL FREE ENERGY PREDICTED BY IDOCK:   -5.52 KCAL/MOL
REMARK 923 INTER-LIGAND FREE ENERGY PREDICTED BY IDOCK:   -5.13 KCAL/MOL
REMARK 924 INTRA-LIGAND FREE ENERGY PREDICTED BY IDOCK:   -0.39 KCAL/MOL
REMARK 927      BINDING AFFINITY PREDICTED BY RF-SCORE:    0.00 PKD
ROOT
HETATM    1  O   UNL     1      -7.997   6.433  64.516  1.00  0.00    -0.117 OA 
HETATM    2  C   UNL     1      -7.908   5.864  65.736  1.00  0.00    -0.103 C  
HETATM    3  C   UNL     1      -8.914   6.363  66.703  1.00  0.00    -0.145 A  
HETATM    4  O   UNL     1      -7.106   4.990  66.011  1.00  0.00    -0.068 OA 
HETATM    5  C   UNL     1      -9.428   5.482  67.660  1.00  0.00    -0.125 A  
HETATM    6  C   UNL     1     -10.387   5.925  68.573  1.00  0.00    -0.268 A  
HETATM    7  C   UNL     1     -10.839   7.248  68.527  1.00  0.00    -0.106 A  
HETATM    8  C   UNL     1     -10.324   8.142  67.579  1.00  0.00    -0.330 A  
HETATM    9  C   UNL     1      -9.338   7.695  66.686  1.00  0.00    -0.239 A  
ENDROOT
BRANCH   8  10
HETATM   10  C   UNL     1     -10.813   9.511  67.461  1.00  0.00    -0.170 A  
HETATM   11  N   UNL     1     -11.545  10.146  68.388  1.00  0.00    -0.136 NA 
HETATM   12  O   UNL     1     -11.840  11.372  67.786  1.00  0.00    -0.595 OA 
HETATM   13  C   UNL     1     -11.258  11.356  66.551  1.00  0.00    -0.209 A  
HETATM   14  N   UNL     1     -10.606  10.242  66.311  1.00  0.00    -0.133 NA 
BRANCH  13  15
HETATM   15  C   UNL     1     -11.450  12.509  65.683  1.00  0.00    -0.400 A  
HETATM   16  C   UNL     1     -12.186  12.364  64.494  1.00  0.00    -0.509 A  
HETATM   17  C   UNL     1     -12.407  13.453  63.647  1.00  0.00    -0.422 A  
HETATM   18  C   UNL     1     -11.896  14.706  63.976  1.00  0.00    -0.135 A  
HETATM   19  C   UNL     1     -11.165  14.867  65.150  1.00  0.00    -0.389 A  
HETATM   20  C   UNL     1     -10.947  13.776  65.991  1.00  0.00    -0.284 A  
HETATM   21  F   UNL     1     -10.244  13.985  67.114  1.00  0.00    -0.248 F  
ENDBRANCH  13  15
ENDBRANCH   8  10
TORSDOF 2
ENDMDL
MODEL      133
REMARK 921   NORMALIZED FREE ENERGY PREDICTED BY IDOCK:   -4.61 KCAL/MOL
REMARK 922        TOTAL FREE ENERGY PREDICTED BY IDOCK:   -5.52 KCAL/MOL
REMARK 923 INTER-LIGAND FREE ENERGY PREDICTED BY IDOCK:   -5.14 KCAL/MOL
REMARK 924 INTRA-LIGAND FREE ENERGY PREDICTED BY IDOCK:   -0.38 KCAL/MOL
REMARK 927      BINDING AFFINITY PREDICTED BY RF-SCORE:    0.00 PKD
ROOT
HETATM    1  O   UNL     1      -8.558   8.489  73.408  1.00  0.00    -0.350 OA 
HETATM    2  C   UNL     1      -7.391   8.247  72.776  1.00  0.00    -0.104 C  
HETATM    3  C   UNL     1      -7.249   8.963  71.486  1.00  0.00    -0.079 A  
HETATM    4  O   UNL     1      -6.512   7.542  73.238  1.00  0.00    -0.063 OA 
HETATM    5  C   UNL     1      -5.981   9.403  71.092  1.00  0.00    -0.072 A  
HETATM    6  C   UNL     1      -5.825  10.092  69.888  1.00  0.00    -0.046 A  
HETATM    7  C   UNL     1      -6.936  10.348  69.078  1.00  0.00    -0.071 A  
HETATM    8  C   UNL     1      -8.210   9.905  69.459  1.00  0.00    -0.163 A  
HETATM    9  C   UNL     1      -8.351   9.186  70.656  1.00  0.00    -0.239 A  
ENDROOT
BRANCH   8  10
HETATM   10  C   UNL     1      -9.401  10.205  68.672  1.00  0.00    -0.161 A  
HETATM   11  N   UNL     1     -10.494   9.432  68.612  1.00  0.00    -0.207 NA 
HETATM   12  O   UNL     1     -11.303  10.082  67.677  1.00  0.00    -0.220 OA 
HETATM   13  C   UNL     1     -10.616  11.187  67.261  1.00  0.00    -0.239 A  
HETATM   14  N   UNL     1      -9.450  11.313  67.853  1.00  0.00    -0.173 NA 
BRANCH  13  15
HETATM   15  C   UNL     1     -11.219  12.032  66.241  1.00  0.00    -0.394 A  
HETATM   16  C   UNL     1     -11.947  13.170  66.629  1.00  0.00    -0.451 A  
HETATM   17  C   UNL     1     -12.523  14.015  65.676  1.00  0.00    -0.531 A  
HETATM   18  C   UNL     1     -12.378  13.736  64.319  1.00  0.00    -0.384 A  
HETATM   19  C   UNL     1     -11.659  12.612  63.919  1.00  0.00    -0.521 A  
HETATM   20  C   UNL     1     -11.088  11.773  64.874  1.00  0.00    -0.285 A  
HETATM   21  F   UNL     1     -10.398  10.709  64.437  1.00  0.00    -0.388 F  
ENDBRANCH  13  15
ENDBRANCH   8  10
TORSDOF 2
ENDMDL
MODEL      134
REMARK 921   NORMALIZED FREE ENERGY PREDICTED BY IDOCK:   -4.60 KCAL/MOL
REMARK 922        TOTAL FREE ENERGY PREDICTED BY IDOCK:   -5.51 KCAL/MOL
REMARK 923 INTER-LIGAND FREE ENERGY PREDICTED BY IDOCK:   -5.33 KCAL/MOL
REMARK 924 INTRA-LIGAND FREE ENERGY PREDICTED BY IDOCK:   -0.18 KCAL/MOL
REMARK 927      BINDING AFFINITY PREDICTED BY RF-SCORE:    0.00 PKD
ROOT
HETATM    1  O   UNL     1     -10.322  11.366  65.134  1.00  0.00    -0.264 OA 
HETATM    2  C   UNL     1     -11.104  12.333  65.659  1.00  0.00    -0.317 C  
HETATM    3  C   UNL     1     -11.272  12.233  67.129  1.00  0.00    -0.365 A  
HETATM    4  O   UNL     1     -11.593  13.231  65.000  1.00  0.00    -0.303 OA 
HETATM    5  C   UNL     1     -11.392  13.408  67.876  1.00  0.00    -0.322 A  
HETATM    6  C   UNL     1     -11.537  13.340  69.264  1.00  0.00    -0.370 A  
HETATM    7  C   UNL     1     -11.557  12.098  69.906  1.00  0.00    -0.297 A  
HETATM    8  C   UNL     1     -11.446  10.914  69.166  1.00  0.00    -0.373 A  
HETATM    9  C   UNL     1     -11.332  10.992  67.769  1.00  0.00    -0.365 A  
ENDROOT
BRANCH   8  10
HETATM   10  C   UNL     1     -11.401   9.603  69.804  1.00  0.00    -0.120 A  
HETATM   11  N   UNL     1     -12.122   9.248  70.877  1.00  0.00    -0.267 NA 
HETATM   12  O   UNL     1     -11.669   7.958  71.162  1.00  0.00    -0.281 OA 
HETATM   13  C   UNL     1     -10.715   7.659  70.231  1.00  0.00    -0.239 A  
HETATM   14  N   UNL     1     -10.525   8.632  69.369  1.00  0.00    -0.219 NA 
BRANCH  13  15
HETATM   15  C   UNL     1     -10.039   6.374  70.324  1.00  0.00    -0.216 A  
HETATM   16  C   UNL     1     -10.502   5.415  71.242  1.00  0.00    -0.296 A  
HETATM   17  C   UNL     1      -9.890   4.162  71.345  1.00  0.00    -0.254 A  
HETATM   18  C   UNL     1      -8.805   3.848  70.529  1.00  0.00    -0.136 A  
HETATM   19  C   UNL     1      -8.335   4.787  69.614  1.00  0.00    -0.082 A  
HETATM   20  C   UNL     1      -8.950   6.036  69.517  1.00  0.00    -0.131 A  
HETATM   21  F   UNL     1      -8.465   6.901  68.614  1.00  0.00    -0.118 F  
ENDBRANCH  13  15
ENDBRANCH   8  10
TORSDOF 2
ENDMDL
MODEL      135
REMARK 921   NORMALIZED FREE ENERGY PREDICTED BY IDOCK:   -4.55 KCAL/MOL
REMARK 922        TOTAL FREE ENERGY PREDICTED BY IDOCK:   -5.45 KCAL/MOL
REMARK 923 INTER-LIGAND FREE ENERGY PREDICTED BY IDOCK:   -5.08 KCAL/MOL
REMARK 924 INTRA-LIGAND FREE ENERGY PREDICTED BY IDOCK:   -0.37 KCAL/MOL
REMARK 927      BINDING AFFINITY PREDICTED BY RF-SCORE:    0.00 PKD
ROOT
HETATM    1  O   UNL     1      -7.373   4.654  64.602  1.00  0.00    -0.068 OA 
HETATM    2  C   UNL     1      -7.827   4.342  65.833  1.00  0.00    -0.094 C  
HETATM    3  C   UNL     1      -8.792   5.324  66.381  1.00  0.00    -0.123 A  
HETATM    4  O   UNL     1      -7.511   3.327  66.427  1.00  0.00    -0.074 OA 
HETATM    5  C   UNL     1      -9.829   4.867  67.200  1.00  0.00    -0.215 A  
HETATM    6  C   UNL     1     -10.760   5.772  67.717  1.00  0.00    -0.306 A  
HETATM    7  C   UNL     1     -10.658   7.133  67.411  1.00  0.00    -0.372 A  
HETATM    8  C   UNL     1      -9.617   7.602  66.598  1.00  0.00    -0.271 A  
HETATM    9  C   UNL     1      -8.670   6.689  66.110  1.00  0.00    -0.154 A  
ENDROOT
BRANCH   8  10
HETATM   10  C   UNL     1      -9.513   9.003  66.207  1.00  0.00    -0.242 A  
HETATM   11  N   UNL     1      -8.374   9.711  66.190  1.00  0.00    -0.118 NA 
HETATM   12  O   UNL     1      -8.795  10.997  65.844  1.00  0.00    -0.188 OA 
HETATM   13  C   UNL     1     -10.151  10.941  65.687  1.00  0.00    -0.261 A  
HETATM   14  N   UNL     1     -10.635   9.736  65.886  1.00  0.00     0.047 NA 
BRANCH  13  15
HETATM   15  C   UNL     1     -10.860  12.170  65.363  1.00  0.00    -0.335 A  
HETATM   16  C   UNL     1     -10.962  13.183  66.333  1.00  0.00    -0.305 A  
HETATM   17  C   UNL     1     -11.619  14.385  66.052  1.00  0.00    -0.364 A  
HETATM   18  C   UNL     1     -12.182  14.593  64.795  1.00  0.00    -0.403 A  
HETATM   19  C   UNL     1     -12.089  13.599  63.824  1.00  0.00    -0.435 A  
HETATM   20  C   UNL     1     -11.433  12.402  64.111  1.00  0.00    -0.381 A  
HETATM   21  F   UNL     1     -11.364  11.480  63.139  1.00  0.00    -0.420 F  
ENDBRANCH  13  15
ENDBRANCH   8  10
TORSDOF 2
ENDMDL
MODEL      136
REMARK 921   NORMALIZED FREE ENERGY PREDICTED BY IDOCK:   -4.53 KCAL/MOL
REMARK 922        TOTAL FREE ENERGY PREDICTED BY IDOCK:   -5.43 KCAL/MOL
REMARK 923 INTER-LIGAND FREE ENERGY PREDICTED BY IDOCK:   -5.20 KCAL/MOL
REMARK 924 INTRA-LIGAND FREE ENERGY PREDICTED BY IDOCK:   -0.24 KCAL/MOL
REMARK 927      BINDING AFFINITY PREDICTED BY RF-SCORE:    0.00 PKD
ROOT
HETATM    1  O   UNL     1     -10.598   7.721  68.785  1.00  0.00    -0.202 OA 
HETATM    2  C   UNL     1     -10.557   7.577  67.444  1.00  0.00    -0.294 C  
HETATM    3  C   UNL     1      -9.744   8.609  66.757  1.00  0.00    -0.298 A  
HETATM    4  O   UNL     1     -11.099   6.663  66.850  1.00  0.00    -0.400 OA 
HETATM    5  C   UNL     1      -9.032   8.254  65.607  1.00  0.00    -0.157 A  
HETATM    6  C   UNL     1      -8.248   9.205  64.951  1.00  0.00    -0.154 A  
HETATM    7  C   UNL     1      -8.169  10.511  65.446  1.00  0.00    -0.152 A  
HETATM    8  C   UNL     1      -8.885  10.879  66.593  1.00  0.00    -0.164 A  
HETATM    9  C   UNL     1      -9.695   9.924  67.227  1.00  0.00    -0.213 A  
ENDROOT
BRANCH   8  10
HETATM   10  C   UNL     1      -8.781  12.213  67.175  1.00  0.00    -0.190 A  
HETATM   11  N   UNL     1      -8.099  12.511  68.290  1.00  0.00    -0.161 NA 
HETATM   12  O   UNL     1      -8.372  13.867  68.486  1.00  0.00    -0.155 OA 
HETATM   13  C   UNL     1      -9.194  14.256  67.468  1.00  0.00    -0.197 A  
HETATM   14  N   UNL     1      -9.463  13.280  66.631  1.00  0.00    -0.259 NA 
BRANCH  13  15
HETATM   15  C   UNL     1      -9.674  15.630  67.454  1.00  0.00    -0.222 A  
HETATM   16  C   UNL     1      -9.843  16.314  68.672  1.00  0.00    -0.230 A  
HETATM   17  C   UNL     1     -10.282  17.641  68.696  1.00  0.00    -0.377 A  
HETATM   18  C   UNL     1     -10.557  18.306  67.503  1.00  0.00    -0.432 A  
HETATM   19  C   UNL     1     -10.394  17.642  66.290  1.00  0.00    -0.342 A  
HETATM   20  C   UNL     1      -9.957  16.318  66.272  1.00  0.00    -0.317 A  
HETATM   21  F   UNL     1      -9.808  15.726  65.078  1.00  0.00    -0.278 F  
ENDBRANCH  13  15
ENDBRANCH   8  10
TORSDOF 2
ENDMDL
MODEL      137
REMARK 921   NORMALIZED FREE ENERGY PREDICTED BY IDOCK:   -4.50 KCAL/MOL
REMARK 922        TOTAL FREE ENERGY PREDICTED BY IDOCK:   -5.39 KCAL/MOL
REMARK 923 INTER-LIGAND FREE ENERGY PREDICTED BY IDOCK:   -5.38 KCAL/MOL
REMARK 924 INTRA-LIGAND FREE ENERGY PREDICTED BY IDOCK:   -0.01 KCAL/MOL
REMARK 927      BINDING AFFINITY PREDICTED BY RF-SCORE:    0.00 PKD
ROOT
HETATM    1  O   UNL     1      -8.378  20.144  70.026  1.00  0.00     0.628 OA 
HETATM    2  C   UNL     1      -7.124  19.770  69.700  1.00  0.00    -0.152 C  
HETATM    3  C   UNL     1      -7.006  19.194  68.339  1.00  0.00    -0.303 A  
HETATM    4  O   UNL     1      -6.165  19.927  70.433  1.00  0.00    -0.319 OA 
HETATM    5  C   UNL     1      -5.836  19.420  67.608  1.00  0.00    -0.203 A  
HETATM    6  C   UNL     1      -5.708  18.900  66.318  1.00  0.00    -0.178 A  
HETATM    7  C   UNL     1      -6.752  18.159  65.755  1.00  0.00    -0.308 A  
HETATM    8  C   UNL     1      -7.925  17.919  66.482  1.00  0.00    -0.303 A  
HETATM    9  C   UNL     1      -8.031  18.420  67.789  1.00  0.00    -0.258 A  
ENDROOT
BRANCH   8  10
HETATM   10  C   UNL     1      -9.059  17.203  65.907  1.00  0.00     0.008 A  
HETATM   11  N   UNL     1     -10.223  17.769  65.556  1.00  0.00    -0.567 NA 
HETATM   12  O   UNL     1     -11.004  16.682  65.153  1.00  0.00    -0.475 OA 
HETATM   13  C   UNL     1     -10.234  15.565  65.303  1.00  0.00    -0.346 A  
HETATM   14  N   UNL     1      -9.028  15.835  65.751  1.00  0.00    -0.218 NA 
BRANCH  13  15
HETATM   15  C   UNL     1     -10.826  14.272  64.993  1.00  0.00    -0.414 A  
HETATM   16  C   UNL     1     -10.179  13.097  65.418  1.00  0.00    -0.301 A  
HETATM   17  C   UNL     1     -10.729  11.838  65.156  1.00  0.00    -0.343 A  
HETATM   18  C   UNL     1     -11.934  11.735  64.465  1.00  0.00    -0.200 A  
HETATM   19  C   UNL     1     -12.586  12.889  64.038  1.00  0.00    -0.331 A  
HETATM   20  C   UNL     1     -12.032  14.142  64.302  1.00  0.00    -0.435 A  
HETATM   21  F   UNL     1     -12.704  15.222  63.877  1.00  0.00    -0.360 F  
ENDBRANCH  13  15
ENDBRANCH   8  10
TORSDOF 2
ENDMDL
MODEL      138
REMARK 921   NORMALIZED FREE ENERGY PREDICTED BY IDOCK:   -4.45 KCAL/MOL
REMARK 922        TOTAL FREE ENERGY PREDICTED BY IDOCK:   -5.34 KCAL/MOL
REMARK 923 INTER-LIGAND FREE ENERGY PREDICTED BY IDOCK:   -5.05 KCAL/MOL
REMARK 924 INTRA-LIGAND FREE ENERGY PREDICTED BY IDOCK:   -0.29 KCAL/MOL
REMARK 927      BINDING AFFINITY PREDICTED BY RF-SCORE:    0.00 PKD
ROOT
HETATM    1  O   UNL     1     -12.214   9.046  72.114  1.00  0.00    -0.365 OA 
HETATM    2  C   UNL     1     -12.124   7.949  71.334  1.00  0.00    -0.307 C  
HETATM    3  C   UNL     1     -11.133   8.073  70.239  1.00  0.00    -0.224 A  
HETATM    4  O   UNL     1     -12.762   6.931  71.532  1.00  0.00    -0.370 OA 
HETATM    5  C   UNL     1     -10.422   6.938  69.838  1.00  0.00    -0.239 A  
HETATM    6  C   UNL     1      -9.473   7.034  68.818  1.00  0.00    -0.136 A  
HETATM    7  C   UNL     1      -9.229   8.265  68.201  1.00  0.00    -0.137 A  
HETATM    8  C   UNL     1      -9.943   9.407  68.588  1.00  0.00    -0.187 A  
HETATM    9  C   UNL     1     -10.916   9.294  69.594  1.00  0.00    -0.192 A  
ENDROOT
BRANCH   8  10
HETATM   10  C   UNL     1      -9.675  10.720  68.012  1.00  0.00    -0.162 A  
HETATM   11  N   UNL     1      -8.644  11.006  67.204  1.00  0.00    -0.134 NA 
HETATM   12  O   UNL     1      -8.763  12.382  66.998  1.00  0.00    -0.196 OA 
HETATM   13  C   UNL     1      -9.856  12.795  67.705  1.00  0.00    -0.220 A  
HETATM   14  N   UNL     1     -10.456  11.809  68.333  1.00  0.00    -0.208 NA 
BRANCH  13  15
HETATM   15  C   UNL     1     -10.187  14.212  67.701  1.00  0.00    -0.241 A  
HETATM   16  C   UNL     1     -10.497  14.852  68.914  1.00  0.00    -0.242 A  
HETATM   17  C   UNL     1     -10.800  16.216  68.951  1.00  0.00    -0.305 A  
HETATM   18  C   UNL     1     -10.796  16.963  67.774  1.00  0.00    -0.281 A  
HETATM   19  C   UNL     1     -10.490  16.343  66.565  1.00  0.00    -0.282 A  
HETATM   20  C   UNL     1     -10.190  14.981  66.535  1.00  0.00    -0.275 A  
HETATM   21  F   UNL     1      -9.894  14.435  65.347  1.00  0.00    -0.343 F  
ENDBRANCH  13  15
ENDBRANCH   8  10
TORSDOF 2
ENDMDL
MODEL      139
REMARK 921   NORMALIZED FREE ENERGY PREDICTED BY IDOCK:   -4.43 KCAL/MOL
REMARK 922        TOTAL FREE ENERGY PREDICTED BY IDOCK:   -5.32 KCAL/MOL
REMARK 923 INTER-LIGAND FREE ENERGY PREDICTED BY IDOCK:   -4.94 KCAL/MOL
REMARK 924 INTRA-LIGAND FREE ENERGY PREDICTED BY IDOCK:   -0.38 KCAL/MOL
REMARK 927      BINDING AFFINITY PREDICTED BY RF-SCORE:    0.00 PKD
ROOT
HETATM    1  O   UNL     1      -9.253   3.408  65.359  1.00  0.00    -0.143 OA 
HETATM    2  C   UNL     1      -8.984   3.192  66.663  1.00  0.00    -0.156 C  
HETATM    3  C   UNL     1      -9.285   4.352  67.536  1.00  0.00    -0.164 A  
HETATM    4  O   UNL     1      -8.573   2.131  67.096  1.00  0.00    -0.092 OA 
HETATM    5  C   UNL     1      -9.743   4.119  68.836  1.00  0.00    -0.176 A  
HETATM    6  C   UNL     1     -10.047   5.195  69.672  1.00  0.00    -0.332 A  
HETATM    7  C   UNL     1      -9.898   6.506  69.208  1.00  0.00    -0.161 A  
HETATM    8  C   UNL     1      -9.430   6.751  67.910  1.00  0.00    -0.118 A  
HETATM    9  C   UNL     1      -9.099   5.662  67.088  1.00  0.00    -0.111 A  
ENDROOT
BRANCH   8  10
HETATM   10  C   UNL     1      -9.320   8.101  67.369  1.00  0.00    -0.141 A  
HETATM   11  N   UNL     1      -8.230   8.877  67.462  1.00  0.00    -0.109 NA 
HETATM   12  O   UNL     1      -8.639  10.083  66.888  1.00  0.00    -0.125 OA 
HETATM   13  C   UNL     1      -9.939   9.918  66.505  1.00  0.00    -0.228 A  
HETATM   14  N   UNL     1     -10.397   8.715  66.767  1.00  0.00    -0.287 NA 
BRANCH  13  15
HETATM   15  C   UNL     1     -10.632  11.051  65.909  1.00  0.00    -0.270 A  
HETATM   16  C   UNL     1     -10.775  11.116  64.512  1.00  0.00    -0.368 A  
HETATM   17  C   UNL     1     -11.453  12.178  63.906  1.00  0.00    -0.519 A  
HETATM   18  C   UNL     1     -12.000  13.192  64.689  1.00  0.00    -0.439 A  
HETATM   19  C   UNL     1     -11.867  13.142  66.075  1.00  0.00    -0.457 A  
HETATM   20  C   UNL     1     -11.189  12.079  66.672  1.00  0.00    -0.327 A  
HETATM   21  F   UNL     1     -11.096  12.073  68.011  1.00  0.00    -0.220 F  
ENDBRANCH  13  15
ENDBRANCH   8  10
TORSDOF 2
ENDMDL
MODEL      140
REMARK 921   NORMALIZED FREE ENERGY PREDICTED BY IDOCK:   -4.40 KCAL/MOL
REMARK 922        TOTAL FREE ENERGY PREDICTED BY IDOCK:   -5.28 KCAL/MOL
REMARK 923 INTER-LIGAND FREE ENERGY PREDICTED BY IDOCK:   -4.89 KCAL/MOL
REMARK 924 INTRA-LIGAND FREE ENERGY PREDICTED BY IDOCK:   -0.39 KCAL/MOL
REMARK 927      BINDING AFFINITY PREDICTED BY RF-SCORE:    0.00 PKD
ROOT
HETATM    1  O   UNL     1     -13.646  10.231  72.154  1.00  0.00    -0.345 OA 
HETATM    2  C   UNL     1     -13.199  11.456  71.808  1.00  0.00    -0.367 C  
HETATM    3  C   UNL     1     -12.290  11.452  70.637  1.00  0.00    -0.466 A  
HETATM    4  O   UNL     1     -13.540  12.479  72.373  1.00  0.00    -0.521 OA 
HETATM    5  C   UNL     1     -12.317  12.537  69.756  1.00  0.00    -0.085 A  
HETATM    6  C   UNL     1     -11.480  12.550  68.638  1.00  0.00    -0.348 A  
HETATM    7  C   UNL     1     -10.619  11.474  68.396  1.00  0.00    -0.227 A  
HETATM    8  C   UNL     1     -10.577  10.386  69.277  1.00  0.00    -0.259 A  
HETATM    9  C   UNL     1     -11.400  10.398  70.414  1.00  0.00    -0.417 A  
ENDROOT
BRANCH   8  10
HETATM   10  C   UNL     1      -9.738   9.219  69.027  1.00  0.00    -0.162 A  
HETATM   11  N   UNL     1      -8.419   9.159  69.262  1.00  0.00    -0.128 NA 
HETATM   12  O   UNL     1      -8.060   7.897  68.783  1.00  0.00    -0.122 OA 
HETATM   13  C   UNL     1      -9.200   7.318  68.303  1.00  0.00    -0.133 A  
HETATM   14  N   UNL     1     -10.257   8.084  68.442  1.00  0.00    -0.203 NA 
BRANCH  13  15
HETATM   15  C   UNL     1      -9.100   5.998  67.697  1.00  0.00    -0.109 A  
HETATM   16  C   UNL     1      -8.585   5.873  66.395  1.00  0.00    -0.127 A  
HETATM   17  C   UNL     1      -8.456   4.620  65.789  1.00  0.00    -0.117 A  
HETATM   18  C   UNL     1      -8.839   3.471  66.477  1.00  0.00    -0.136 A  
HETATM   19  C   UNL     1      -9.351   3.578  67.768  1.00  0.00    -0.246 A  
HETATM   20  C   UNL     1      -9.478   4.831  68.366  1.00  0.00    -0.144 A  
HETATM   21  F   UNL     1      -9.968   4.880  69.614  1.00  0.00    -0.229 F  
ENDBRANCH  13  15
ENDBRANCH   8  10
TORSDOF 2
ENDMDL
MODEL      141
REMARK 921   NORMALIZED FREE ENERGY PREDICTED BY IDOCK:   -4.35 KCAL/MOL
REMARK 922        TOTAL FREE ENERGY PREDICTED BY IDOCK:   -5.22 KCAL/MOL
REMARK 923 INTER-LIGAND FREE ENERGY PREDICTED BY IDOCK:   -5.08 KCAL/MOL
REMARK 924 INTRA-LIGAND FREE ENERGY PREDICTED BY IDOCK:   -0.14 KCAL/MOL
REMARK 927      BINDING AFFINITY PREDICTED BY RF-SCORE:    0.00 PKD
ROOT
HETATM    1  O   UNL     1      -9.625   8.680  68.557  1.00  0.00    -0.151 OA 
HETATM    2  C   UNL     1     -10.360   9.136  69.592  1.00  0.00    -0.219 C  
HETATM    3  C   UNL     1     -10.821  10.535  69.427  1.00  0.00    -0.291 A  
HETATM    4  O   UNL     1     -10.658   8.454  70.555  1.00  0.00    -0.207 OA 
HETATM    5  C   UNL     1     -12.066  10.903  69.948  1.00  0.00    -0.428 A  
HETATM    6  C   UNL     1     -12.528  12.211  69.793  1.00  0.00     0.052 A  
HETATM    7  C   UNL     1     -11.750  13.153  69.112  1.00  0.00    -0.376 A  
HETATM    8  C   UNL     1     -10.498  12.798  68.593  1.00  0.00    -0.230 A  
HETATM    9  C   UNL     1     -10.029  11.488  68.782  1.00  0.00    -0.169 A  
ENDROOT
BRANCH   8  10
HETATM   10  C   UNL     1      -9.685  13.734  67.825  1.00  0.00    -0.230 A  
HETATM   11  N   UNL     1      -8.616  13.395  67.089  1.00  0.00    -0.208 NA 
HETATM   12  O   UNL     1      -8.133  14.624  66.632  1.00  0.00     0.001 OA 
HETATM   13  C   UNL     1      -8.958  15.587  67.139  1.00  0.00    -0.214 A  
HETATM   14  N   UNL     1      -9.933  15.089  67.866  1.00  0.00    -0.221 NA 
BRANCH  13  15
HETATM   15  C   UNL     1      -8.653  16.980  66.850  1.00  0.00    -0.250 A  
HETATM   16  C   UNL     1      -7.474  17.298  66.152  1.00  0.00    -0.321 A  
HETATM   17  C   UNL     1      -7.157  18.623  65.839  1.00  0.00    -0.290 A  
HETATM   18  C   UNL     1      -8.017  19.652  66.218  1.00  0.00    -0.339 A  
HETATM   19  C   UNL     1      -9.188  19.353  66.910  1.00  0.00    -0.379 A  
HETATM   20  C   UNL     1      -9.497  18.029  67.220  1.00  0.00    -0.260 A  
HETATM   21  F   UNL     1     -10.641  17.794  67.879  1.00  0.00    -0.349 F  
ENDBRANCH  13  15
ENDBRANCH   8  10
TORSDOF 2
ENDMDL
MODEL      142
REMARK 921   NORMALIZED FREE ENERGY PREDICTED BY IDOCK:   -4.33 KCAL/MOL
REMARK 922        TOTAL FREE ENERGY PREDICTED BY IDOCK:   -5.20 KCAL/MOL
REMARK 923 INTER-LIGAND FREE ENERGY PREDICTED BY IDOCK:   -4.81 KCAL/MOL
REMARK 924 INTRA-LIGAND FREE ENERGY PREDICTED BY IDOCK:   -0.39 KCAL/MOL
REMARK 927      BINDING AFFINITY PREDICTED BY RF-SCORE:    0.00 PKD
ROOT
HETATM    1  O   UNL     1     -10.977   5.575  69.607  1.00  0.00    -0.306 OA 
HETATM    2  C   UNL     1      -9.883   4.988  69.078  1.00  0.00    -0.182 C  
HETATM    3  C   UNL     1      -8.836   5.947  68.654  1.00  0.00    -0.111 A  
HETATM    4  O   UNL     1      -9.744   3.781  68.996  1.00  0.00    -0.156 OA 
HETATM    5  C   UNL     1      -7.493   5.578  68.774  1.00  0.00    -0.079 A  
HETATM    6  C   UNL     1      -6.488   6.471  68.393  1.00  0.00    -0.049 A  
HETATM    7  C   UNL     1      -6.824   7.735  67.897  1.00  0.00    -0.068 A  
HETATM    8  C   UNL     1      -8.167   8.111  67.765  1.00  0.00    -0.128 A  
HETATM    9  C   UNL     1      -9.170   7.195  68.121  1.00  0.00    -0.131 A  
ENDROOT
BRANCH   8  10
HETATM   10  C   UNL     1      -8.557   9.441  67.310  1.00  0.00    -0.128 A  
HETATM   11  N   UNL     1      -7.880  10.569  67.572  1.00  0.00    -0.105 NA 
HETATM   12  O   UNL     1      -8.683  11.567  67.015  1.00  0.00    -0.157 OA 
HETATM   13  C   UNL     1      -9.769  10.943  66.471  1.00  0.00    -0.198 A  
HETATM   14  N   UNL     1      -9.730   9.638  66.615  1.00  0.00    -0.194 NA 
BRANCH  13  15
HETATM   15  C   UNL     1     -10.801  11.764  65.855  1.00  0.00    -0.339 A  
HETATM   16  C   UNL     1     -11.466  12.732  66.629  1.00  0.00    -0.404 A  
HETATM   17  C   UNL     1     -12.448  13.553  66.066  1.00  0.00    -0.456 A  
HETATM   18  C   UNL     1     -12.779  13.420  64.720  1.00  0.00    -0.310 A  
HETATM   19  C   UNL     1     -12.129  12.466  63.940  1.00  0.00    -0.587 A  
HETATM   20  C   UNL     1     -11.151  11.650  64.507  1.00  0.00    -0.301 A  
HETATM   21  F   UNL     1     -10.549  10.754  63.712  1.00  0.00    -0.419 F  
ENDBRANCH  13  15
ENDBRANCH   8  10
TORSDOF 2
ENDMDL
MODEL      143
REMARK 921   NORMALIZED FREE ENERGY PREDICTED BY IDOCK:   -4.32 KCAL/MOL
REMARK 922        TOTAL FREE ENERGY PREDICTED BY IDOCK:   -5.19 KCAL/MOL
REMARK 923 INTER-LIGAND FREE ENERGY PREDICTED BY IDOCK:   -4.87 KCAL/MOL
REMARK 924 INTRA-LIGAND FREE ENERGY PREDICTED BY IDOCK:   -0.32 KCAL/MOL
REMARK 927      BINDING AFFINITY PREDICTED BY RF-SCORE:    0.00 PKD
ROOT
HETATM    1  O   UNL     1      -5.818  11.070  70.984  1.00  0.00    -0.325 OA 
HETATM    2  C   UNL     1      -6.857  10.400  70.445  1.00  0.00    -0.065 C  
HETATM    3  C   UNL     1      -7.337  10.972  69.164  1.00  0.00    -0.121 A  
HETATM    4  O   UNL     1      -7.333   9.393  70.936  1.00  0.00    -0.179 OA 
HETATM    5  C   UNL     1      -7.832  10.109  68.182  1.00  0.00    -0.096 A  
HETATM    6  C   UNL     1      -8.276  10.623  66.962  1.00  0.00    -0.124 A  
HETATM    7  C   UNL     1      -8.222  12.000  66.720  1.00  0.00    -0.110 A  
HETATM    8  C   UNL     1      -7.737  12.874  67.701  1.00  0.00    -0.162 A  
HETATM    9  C   UNL     1      -7.321  12.350  68.935  1.00  0.00    -0.031 A  
ENDROOT
BRANCH   8  10
HETATM   10  C   UNL     1      -7.607  14.308  67.464  1.00  0.00    -0.184 A  
HETATM   11  N   UNL     1      -6.444  14.969  67.385  1.00  0.00    -0.310 NA 
HETATM   12  O   UNL     1      -6.836  16.303  67.246  1.00  0.00    -0.159 OA 
HETATM   13  C   UNL     1      -8.201  16.316  67.256  1.00  0.00    -0.172 A  
HETATM   14  N   UNL     1      -8.720  15.115  67.375  1.00  0.00    -0.180 NA 
BRANCH  13  15
HETATM   15  C   UNL     1      -8.880  17.601  67.169  1.00  0.00    -0.251 A  
HETATM   16  C   UNL     1      -9.839  17.808  66.162  1.00  0.00    -0.254 A  
HETATM   17  C   UNL     1     -10.525  19.022  66.060  1.00  0.00    -0.530 A  
HETATM   18  C   UNL     1     -10.263  20.048  66.966  1.00  0.00    -0.587 A  
HETATM   19  C   UNL     1      -9.316  19.858  67.969  1.00  0.00    -0.431 A  
HETATM   20  C   UNL     1      -8.635  18.645  68.064  1.00  0.00    -0.299 A  
HETATM   21  F   UNL     1      -7.739  18.509  69.053  1.00  0.00    -0.306 F  
ENDBRANCH  13  15
ENDBRANCH   8  10
TORSDOF 2
ENDMDL
MODEL      144
REMARK 921   NORMALIZED FREE ENERGY PREDICTED BY IDOCK:   -4.32 KCAL/MOL
REMARK 922        TOTAL FREE ENERGY PREDICTED BY IDOCK:   -5.19 KCAL/MOL
REMARK 923 INTER-LIGAND FREE ENERGY PREDICTED BY IDOCK:   -4.97 KCAL/MOL
REMARK 924 INTRA-LIGAND FREE ENERGY PREDICTED BY IDOCK:   -0.22 KCAL/MOL
REMARK 927      BINDING AFFINITY PREDICTED BY RF-SCORE:    0.00 PKD
ROOT
HETATM    1  O   UNL     1     -12.159  14.447  67.192  1.00  0.00    -0.414 OA 
HETATM    2  C   UNL     1     -11.010  15.083  67.498  1.00  0.00    -0.307 C  
HETATM    3  C   UNL     1      -9.834  14.185  67.586  1.00  0.00    -0.229 A  
HETATM    4  O   UNL     1     -10.930  16.289  67.647  1.00  0.00    -0.315 OA 
HETATM    5  C   UNL     1      -8.583  14.667  67.188  1.00  0.00    -0.244 A  
HETATM    6  C   UNL     1      -7.463  13.835  67.248  1.00  0.00    -0.048 A  
HETATM    7  C   UNL     1      -7.593  12.517  67.701  1.00  0.00    -0.145 A  
HETATM    8  C   UNL     1      -8.840  12.027  68.111  1.00  0.00    -0.182 A  
HETATM    9  C   UNL     1      -9.953  12.881  68.075  1.00  0.00    -0.236 A  
ENDROOT
BRANCH   8  10
HETATM   10  C   UNL     1      -9.026  10.643  68.531  1.00  0.00    -0.156 A  
HETATM   11  N   UNL     1      -8.444   9.582  67.954  1.00  0.00    -0.119 NA 
HETATM   12  O   UNL     1      -8.997   8.495  68.636  1.00  0.00    -0.139 OA 
HETATM   13  C   UNL     1      -9.862   9.008  69.560  1.00  0.00    -0.180 A  
HETATM   14  N   UNL     1      -9.905  10.321  69.543  1.00  0.00    -0.231 NA 
BRANCH  13  15
HETATM   15  C   UNL     1     -10.616   8.079  70.389  1.00  0.00    -0.224 A  
HETATM   16  C   UNL     1     -10.136   6.769  70.570  1.00  0.00    -0.201 A  
HETATM   17  C   UNL     1     -10.823   5.856  71.376  1.00  0.00    -0.332 A  
HETATM   18  C   UNL     1     -12.000   6.239  72.015  1.00  0.00    -0.353 A  
HETATM   19  C   UNL     1     -12.488   7.533  71.845  1.00  0.00    -0.335 A  
HETATM   20  C   UNL     1     -11.798   8.439  71.040  1.00  0.00    -0.252 A  
HETATM   21  F   UNL     1     -12.305   9.674  70.916  1.00  0.00    -0.332 F  
ENDBRANCH  13  15
ENDBRANCH   8  10
TORSDOF 2
ENDMDL
MODEL      145
REMARK 921   NORMALIZED FREE ENERGY PREDICTED BY IDOCK:   -4.29 KCAL/MOL
REMARK 922        TOTAL FREE ENERGY PREDICTED BY IDOCK:   -5.16 KCAL/MOL
REMARK 923 INTER-LIGAND FREE ENERGY PREDICTED BY IDOCK:   -4.76 KCAL/MOL
REMARK 924 INTRA-LIGAND FREE ENERGY PREDICTED BY IDOCK:   -0.40 KCAL/MOL
REMARK 927      BINDING AFFINITY PREDICTED BY RF-SCORE:    0.00 PKD
ROOT
HETATM    1  O   UNL     1      -6.428  11.596  68.951  1.00  0.00    -0.059 OA 
HETATM    2  C   UNL     1      -6.802  11.911  67.694  1.00  0.00    -0.112 C  
HETATM    3  C   UNL     1      -8.097  11.316  67.287  1.00  0.00    -0.140 A  
HETATM    4  O   UNL     1      -6.161  12.651  66.970  1.00  0.00    -0.281 OA 
HETATM    5  C   UNL     1      -8.930  12.035  66.425  1.00  0.00    -0.161 A  
HETATM    6  C   UNL     1     -10.162  11.501  66.039  1.00  0.00    -0.283 A  
HETATM    7  C   UNL     1     -10.565  10.251  66.519  1.00  0.00    -0.202 A  
HETATM    8  C   UNL     1      -9.733   9.518  67.377  1.00  0.00    -0.201 A  
HETATM    9  C   UNL     1      -8.484  10.050  67.734  1.00  0.00    -0.114 A  
ENDROOT
BRANCH   8  10
HETATM   10  C   UNL     1     -10.144   8.240  67.947  1.00  0.00    -0.202 A  
HETATM   11  N   UNL     1     -10.855   7.305  67.299  1.00  0.00    -0.306 NA 
HETATM   12  O   UNL     1     -11.072   6.328  68.273  1.00  0.00    -0.324 OA 
HETATM   13  C   UNL     1     -10.469   6.769  69.417  1.00  0.00    -0.217 A  
HETATM   14  N   UNL     1      -9.876   7.931  69.263  1.00  0.00    -0.174 NA 
BRANCH  13  15
HETATM   15  C   UNL     1     -10.581   5.951  70.616  1.00  0.00    -0.334 A  
HETATM   16  C   UNL     1      -9.694   4.875  70.802  1.00  0.00    -0.268 A  
HETATM   17  C   UNL     1      -9.757   4.080  71.950  1.00  0.00    -0.236 A  
HETATM   18  C   UNL     1     -10.709   4.350  72.931  1.00  0.00    -0.263 A  
HETATM   19  C   UNL     1     -11.594   5.412  72.762  1.00  0.00    -0.293 A  
HETATM   20  C   UNL     1     -11.525   6.200  71.613  1.00  0.00    -0.272 A  
HETATM   21  F   UNL     1     -12.394   7.216  71.502  1.00  0.00    -0.320 F  
ENDBRANCH  13  15
ENDBRANCH   8  10
TORSDOF 2
ENDMDL
MODEL      146
REMARK 921   NORMALIZED FREE ENERGY PREDICTED BY IDOCK:   -4.27 KCAL/MOL
REMARK 922        TOTAL FREE ENERGY PREDICTED BY IDOCK:   -5.14 KCAL/MOL
REMARK 923 INTER-LIGAND FREE ENERGY PREDICTED BY IDOCK:   -4.77 KCAL/MOL
REMARK 924 INTRA-LIGAND FREE ENERGY PREDICTED BY IDOCK:   -0.37 KCAL/MOL
REMARK 927      BINDING AFFINITY PREDICTED BY RF-SCORE:    0.00 PKD
ROOT
HETATM    1  O   UNL     1      -8.431  20.144  66.032  1.00  0.00    -0.286 OA 
HETATM    2  C   UNL     1      -7.425  19.926  66.903  1.00  0.00    -0.251 C  
HETATM    3  C   UNL     1      -7.095  18.493  67.089  1.00  0.00    -0.214 A  
HETATM    4  O   UNL     1      -6.811  20.821  67.456  1.00  0.00    -0.308 OA 
HETATM    5  C   UNL     1      -5.765  18.131  67.324  1.00  0.00    -0.150 A  
HETATM    6  C   UNL     1      -5.428  16.785  67.489  1.00  0.00    -0.164 A  
HETATM    7  C   UNL     1      -6.418  15.800  67.413  1.00  0.00    -0.193 A  
HETATM    8  C   UNL     1      -7.755  16.153  67.187  1.00  0.00    -0.229 A  
HETATM    9  C   UNL     1      -8.088  17.511  67.054  1.00  0.00    -0.240 A  
ENDROOT
BRANCH   8  10
HETATM   10  C   UNL     1      -8.805  15.152  67.040  1.00  0.00    -0.234 A  
HETATM   11  N   UNL     1     -10.118  15.422  66.981  1.00  0.00    -0.246 NA 
HETATM   12  O   UNL     1     -10.708  14.157  66.936  1.00  0.00    -0.282 OA 
HETATM   13  C   UNL     1      -9.693  13.245  66.974  1.00  0.00    -0.238 A  
HETATM   14  N   UNL     1      -8.506  13.807  67.025  1.00  0.00    -0.176 NA 
BRANCH  13  15
HETATM   15  C   UNL     1     -10.035  11.830  66.983  1.00  0.00    -0.224 A  
HETATM   16  C   UNL     1     -10.831  11.320  68.025  1.00  0.00    -0.266 A  
HETATM   17  C   UNL     1     -11.196   9.971  68.056  1.00  0.00    -0.190 A  
HETATM   18  C   UNL     1     -10.773   9.111  67.045  1.00  0.00    -0.189 A  
HETATM   19  C   UNL     1      -9.985   9.601  66.007  1.00  0.00    -0.344 A  
HETATM   20  C   UNL     1      -9.623  10.948  65.982  1.00  0.00    -0.209 A  
HETATM   21  F   UNL     1      -8.870  11.372  64.956  1.00  0.00    -0.141 F  
ENDBRANCH  13  15
ENDBRANCH   8  10
TORSDOF 2
ENDMDL
MODEL      147
REMARK 921   NORMALIZED FREE ENERGY PREDICTED BY IDOCK:   -4.22 KCAL/MOL
REMARK 922        TOTAL FREE ENERGY PREDICTED BY IDOCK:   -5.09 KCAL/MOL
REMARK 923 INTER-LIGAND FREE ENERGY PREDICTED BY IDOCK:   -4.70 KCAL/MOL
REMARK 924 INTRA-LIGAND FREE ENERGY PREDICTED BY IDOCK:   -0.38 KCAL/MOL
REMARK 927      BINDING AFFINITY PREDICTED BY RF-SCORE:    0.00 PKD
ROOT
HETATM    1  O   UNL     1      -8.601   6.764  66.825  1.00  0.00    -0.114 OA 
HETATM    2  C   UNL     1      -8.361   6.491  65.525  1.00  0.00    -0.146 C  
HETATM    3  C   UNL     1      -8.380   7.687  64.650  1.00  0.00    -0.005 A  
HETATM    4  O   UNL     1      -8.107   5.375  65.110  1.00  0.00    -0.109 OA 
HETATM    5  C   UNL     1      -7.516   7.735  63.551  1.00  0.00    -0.115 A  
HETATM    6  C   UNL     1      -7.506   8.857  62.720  1.00  0.00    -0.105 A  
HETATM    7  C   UNL     1      -8.355   9.936  62.989  1.00  0.00    -0.163 A  
HETATM    8  C   UNL     1      -9.231   9.894  64.082  1.00  0.00    -0.312 A  
HETATM    9  C   UNL     1      -9.255   8.749  64.893  1.00  0.00     0.128 A  
ENDROOT
BRANCH   8  10
HETATM   10  C   UNL     1     -10.087  11.023  64.431  1.00  0.00    -0.334 A  
HETATM   11  N   UNL     1     -11.045  11.530  63.642  1.00  0.00    -0.408 NA 
HETATM   12  O   UNL     1     -11.511  12.633  64.362  1.00  0.00    -0.315 OA 
HETATM   13  C   UNL     1     -10.785  12.685  65.518  1.00  0.00    -0.274 A  
HETATM   14  N   UNL     1      -9.908  11.711  65.612  1.00  0.00    -0.234 NA 
BRANCH  13  15
HETATM   15  C   UNL     1     -11.039  13.778  66.444  1.00  0.00    -0.309 A  
HETATM   16  C   UNL     1     -11.898  13.570  67.539  1.00  0.00    -0.406 A  
HETATM   17  C   UNL     1     -12.150  14.591  68.460  1.00  0.00    -0.257 A  
HETATM   18  C   UNL     1     -11.545  15.836  68.302  1.00  0.00    -0.302 A  
HETATM   19  C   UNL     1     -10.692  16.057  67.224  1.00  0.00    -0.295 A  
HETATM   20  C   UNL     1     -10.446  15.035  66.308  1.00  0.00    -0.304 A  
HETATM   21  F   UNL     1      -9.610  15.296  65.292  1.00  0.00    -0.323 F  
ENDBRANCH  13  15
ENDBRANCH   8  10
TORSDOF 2
ENDMDL
MODEL      148
REMARK 921   NORMALIZED FREE ENERGY PREDICTED BY IDOCK:   -4.21 KCAL/MOL
REMARK 922        TOTAL FREE ENERGY PREDICTED BY IDOCK:   -5.07 KCAL/MOL
REMARK 923 INTER-LIGAND FREE ENERGY PREDICTED BY IDOCK:   -4.70 KCAL/MOL
REMARK 924 INTRA-LIGAND FREE ENERGY PREDICTED BY IDOCK:   -0.37 KCAL/MOL
REMARK 927      BINDING AFFINITY PREDICTED BY RF-SCORE:    0.00 PKD
ROOT
HETATM    1  O   UNL     1     -10.255  17.822  65.971  1.00  0.00    -0.463 OA 
HETATM    2  C   UNL     1     -10.209  17.606  67.302  1.00  0.00    -0.343 C  
HETATM    3  C   UNL     1      -9.778  16.237  67.671  1.00  0.00    -0.234 A  
HETATM    4  O   UNL     1     -10.454  18.465  68.129  1.00  0.00    -0.370 OA 
HETATM    5  C   UNL     1      -9.024  16.056  68.834  1.00  0.00    -0.239 A  
HETATM    6  C   UNL     1      -8.594  14.777  69.196  1.00  0.00    -0.089 A  
HETATM    7  C   UNL     1      -8.913  13.678  68.392  1.00  0.00    -0.160 A  
HETATM    8  C   UNL     1      -9.676  13.846  67.229  1.00  0.00    -0.245 A  
HETATM    9  C   UNL     1     -10.129  15.132  66.891  1.00  0.00    -0.256 A  
ENDROOT
BRANCH   8  10
HETATM   10  C   UNL     1      -9.978  12.736  66.333  1.00  0.00    -0.265 A  
HETATM   11  N   UNL     1     -11.212  12.357  65.970  1.00  0.00    -0.318 NA 
HETATM   12  O   UNL     1     -10.988  11.215  65.197  1.00  0.00    -0.201 OA 
HETATM   13  C   UNL     1      -9.637  11.015  65.169  1.00  0.00    -0.237 A  
HETATM   14  N   UNL     1      -8.974  11.929  65.841  1.00  0.00    -0.082 NA 
BRANCH  13  15
HETATM   15  C   UNL     1      -9.126   9.852  64.459  1.00  0.00    -0.296 A  
HETATM   16  C   UNL     1      -9.155   9.834  63.053  1.00  0.00    -0.271 A  
HETATM   17  C   UNL     1      -8.654   8.743  62.336  1.00  0.00    -0.188 A  
HETATM   18  C   UNL     1      -8.115   7.653  63.015  1.00  0.00    -0.073 A  
HETATM   19  C   UNL     1      -8.080   7.655  64.407  1.00  0.00    -0.084 A  
HETATM   20  C   UNL     1      -8.581   8.746  65.116  1.00  0.00    -0.182 A  
HETATM   21  F   UNL     1      -8.516   8.704  66.455  1.00  0.00    -0.105 F  
ENDBRANCH  13  15
ENDBRANCH   8  10
TORSDOF 2
ENDMDL
MODEL      149
REMARK 921   NORMALIZED FREE ENERGY PREDICTED BY IDOCK:   -4.20 KCAL/MOL
REMARK 922        TOTAL FREE ENERGY PREDICTED BY IDOCK:   -5.06 KCAL/MOL
REMARK 923 INTER-LIGAND FREE ENERGY PREDICTED BY IDOCK:   -4.66 KCAL/MOL
REMARK 924 INTRA-LIGAND FREE ENERGY PREDICTED BY IDOCK:   -0.40 KCAL/MOL
REMARK 927      BINDING AFFINITY PREDICTED BY RF-SCORE:    0.00 PKD
ROOT
HETATM    1  O   UNL     1      -9.730   2.763  70.969  1.00  0.00    -0.155 OA 
HETATM    2  C   UNL     1      -9.215   3.092  72.172  1.00  0.00    -0.103 C  
HETATM    3  C   UNL     1      -9.676   4.406  72.681  1.00  0.00    -0.197 A  
HETATM    4  O   UNL     1      -8.475   2.362  72.806  1.00  0.00    -0.062 OA 
HETATM    5  C   UNL     1      -9.850   4.574  74.058  1.00  0.00    -0.176 A  
HETATM    6  C   UNL     1     -10.296   5.798  74.560  1.00  0.00    -0.245 A  
HETATM    7  C   UNL     1     -10.575   6.854  73.686  1.00  0.00    -0.371 A  
HETATM    8  C   UNL     1     -10.396   6.699  72.305  1.00  0.00    -0.219 A  
HETATM    9  C   UNL     1      -9.917   5.474  71.814  1.00  0.00    -0.228 A  
ENDROOT
BRANCH   8  10
HETATM   10  C   UNL     1     -10.733   7.755  71.358  1.00  0.00    -0.222 A  
HETATM   11  N   UNL     1     -11.863   8.477  71.386  1.00  0.00    -0.286 NA 
HETATM   12  O   UNL     1     -11.767   9.277  70.245  1.00  0.00    -0.189 OA 
HETATM   13  C   UNL     1     -10.586   8.959  69.637  1.00  0.00    -0.226 A  
HETATM   14  N   UNL     1      -9.911   8.039  70.289  1.00  0.00    -0.183 NA 
BRANCH  13  15
HETATM   15  C   UNL     1     -10.252   9.623  68.385  1.00  0.00    -0.214 A  
HETATM   16  C   UNL     1      -9.848  10.969  68.405  1.00  0.00    -0.186 A  
HETATM   17  C   UNL     1      -9.500  11.634  67.225  1.00  0.00    -0.173 A  
HETATM   18  C   UNL     1      -9.550  10.961  66.007  1.00  0.00    -0.248 A  
HETATM   19  C   UNL     1      -9.949   9.627  65.971  1.00  0.00    -0.344 A  
HETATM   20  C   UNL     1     -10.295   8.970  67.151  1.00  0.00    -0.272 A  
HETATM   21  F   UNL     1     -10.664   7.683  67.064  1.00  0.00    -0.363 F  
ENDBRANCH  13  15
ENDBRANCH   8  10
TORSDOF 2
ENDMDL
MODEL      150
REMARK 921   NORMALIZED FREE ENERGY PREDICTED BY IDOCK:   -4.20 KCAL/MOL
REMARK 922        TOTAL FREE ENERGY PREDICTED BY IDOCK:   -5.06 KCAL/MOL
REMARK 923 INTER-LIGAND FREE ENERGY PREDICTED BY IDOCK:   -4.69 KCAL/MOL
REMARK 924 INTRA-LIGAND FREE ENERGY PREDICTED BY IDOCK:   -0.37 KCAL/MOL
REMARK 927      BINDING AFFINITY PREDICTED BY RF-SCORE:    0.00 PKD
ROOT
HETATM    1  O   UNL     1     -13.515   9.899  71.868  1.00  0.00    -0.397 OA 
HETATM    2  C   UNL     1     -13.033  11.148  71.695  1.00  0.00    -0.443 C  
HETATM    3  C   UNL     1     -12.180  11.298  70.492  1.00  0.00    -0.474 A  
HETATM    4  O   UNL     1     -13.306  12.079  72.430  1.00  0.00    -0.403 OA 
HETATM    5  C   UNL     1     -12.202  12.509  69.795  1.00  0.00    -0.199 A  
HETATM    6  C   UNL     1     -11.417  12.670  68.651  1.00  0.00    -0.347 A  
HETATM    7  C   UNL     1     -10.614  11.618  68.199  1.00  0.00    -0.230 A  
HETATM    8  C   UNL     1     -10.577  10.402  68.896  1.00  0.00    -0.241 A  
HETATM    9  C   UNL     1     -11.346  10.263  70.062  1.00  0.00    -0.370 A  
ENDROOT
BRANCH   8  10
HETATM   10  C   UNL     1      -9.800   9.263  68.423  1.00  0.00    -0.155 A  
HETATM   11  N   UNL     1      -8.731   8.750  69.051  1.00  0.00    -0.132 NA 
HETATM   12  O   UNL     1      -8.287   7.754  68.178  1.00  0.00    -0.123 OA 
HETATM   13  C   UNL     1      -9.133   7.763  67.105  1.00  0.00    -0.134 A  
HETATM   14  N   UNL     1     -10.084   8.662  67.216  1.00  0.00    -0.220 NA 
BRANCH  13  15
HETATM   15  C   UNL     1      -8.869   6.839  66.011  1.00  0.00    -0.150 A  
HETATM   16  C   UNL     1      -9.548   5.608  65.968  1.00  0.00    -0.104 A  
HETATM   17  C   UNL     1      -9.335   4.706  64.922  1.00  0.00    -0.127 A  
HETATM   18  C   UNL     1      -8.441   5.021  63.901  1.00  0.00    -0.129 A  
HETATM   19  C   UNL     1      -7.762   6.236  63.930  1.00  0.00    -0.107 A  
HETATM   20  C   UNL     1      -7.978   7.132  64.977  1.00  0.00    -0.129 A  
HETATM   21  F   UNL     1      -7.305   8.292  64.953  1.00  0.00    -0.077 F  
ENDBRANCH  13  15
ENDBRANCH   8  10
TORSDOF 2
ENDMDL
MODEL      151
REMARK 921   NORMALIZED FREE ENERGY PREDICTED BY IDOCK:   -4.20 KCAL/MOL
REMARK 922        TOTAL FREE ENERGY PREDICTED BY IDOCK:   -5.06 KCAL/MOL
REMARK 923 INTER-LIGAND FREE ENERGY PREDICTED BY IDOCK:   -4.72 KCAL/MOL
REMARK 924 INTRA-LIGAND FREE ENERGY PREDICTED BY IDOCK:   -0.34 KCAL/MOL
REMARK 927      BINDING AFFINITY PREDICTED BY RF-SCORE:    0.00 PKD
ROOT
HETATM    1  O   UNL     1     -11.301  14.018  68.745  1.00  0.00    -0.246 OA 
HETATM    2  C   UNL     1     -11.052  14.564  67.537  1.00  0.00    -0.307 C  
HETATM    3  C   UNL     1     -10.786  13.567  66.473  1.00  0.00    -0.283 A  
HETATM    4  O   UNL     1     -11.086  15.763  67.323  1.00  0.00    -0.302 OA 
HETATM    5  C   UNL     1     -11.207  13.841  65.168  1.00  0.00    -0.320 A  
HETATM    6  C   UNL     1     -10.980  12.911  64.152  1.00  0.00    -0.442 A  
HETATM    7  C   UNL     1     -10.337  11.702  64.439  1.00  0.00    -0.362 A  
HETATM    8  C   UNL     1      -9.904  11.421  65.742  1.00  0.00    -0.270 A  
HETATM    9  C   UNL     1     -10.109  12.376  66.750  1.00  0.00    -0.226 A  
ENDROOT
BRANCH   8  10
HETATM   10  C   UNL     1      -9.285  10.148  66.093  1.00  0.00    -0.159 A  
HETATM   11  N   UNL     1      -8.084  10.013  66.674  1.00  0.00    -0.117 NA 
HETATM   12  O   UNL     1      -7.897   8.630  66.720  1.00  0.00    -0.092 OA 
HETATM   13  C   UNL     1      -9.006   8.062  66.160  1.00  0.00    -0.175 A  
HETATM   14  N   UNL     1      -9.892   8.952  65.773  1.00  0.00    -0.156 NA 
BRANCH  13  15
HETATM   15  C   UNL     1      -9.054   6.612  66.040  1.00  0.00    -0.104 A  
HETATM   16  C   UNL     1      -7.971   5.932  65.455  1.00  0.00    -0.117 A  
HETATM   17  C   UNL     1      -7.972   4.539  65.342  1.00  0.00    -0.098 A  
HETATM   18  C   UNL     1      -9.057   3.803  65.814  1.00  0.00    -0.149 A  
HETATM   19  C   UNL     1     -10.137   4.462  66.395  1.00  0.00    -0.235 A  
HETATM   20  C   UNL     1     -10.130   5.853  66.505  1.00  0.00    -0.156 A  
HETATM   21  F   UNL     1     -11.190   6.439  67.081  1.00  0.00    -0.399 F  
ENDBRANCH  13  15
ENDBRANCH   8  10
TORSDOF 2
ENDMDL
MODEL      152
REMARK 921   NORMALIZED FREE ENERGY PREDICTED BY IDOCK:   -4.18 KCAL/MOL
REMARK 922        TOTAL FREE ENERGY PREDICTED BY IDOCK:   -5.04 KCAL/MOL
REMARK 923 INTER-LIGAND FREE ENERGY PREDICTED BY IDOCK:   -4.80 KCAL/MOL
REMARK 924 INTRA-LIGAND FREE ENERGY PREDICTED BY IDOCK:   -0.24 KCAL/MOL
REMARK 927      BINDING AFFINITY PREDICTED BY RF-SCORE:    0.00 PKD
ROOT
HETATM    1  O   UNL     1     -14.055   9.515  72.257  1.00  0.00    -0.316 OA 
HETATM    2  C   UNL     1     -13.167  10.431  71.818  1.00  0.00    -0.424 C  
HETATM    3  C   UNL     1     -12.226   9.913  70.797  1.00  0.00    -0.380 A  
HETATM    4  O   UNL     1     -13.162  11.591  72.190  1.00  0.00    -0.505 OA 
HETATM    5  C   UNL     1     -11.785  10.771  69.786  1.00  0.00    -0.399 A  
HETATM    6  C   UNL     1     -10.910  10.301  68.805  1.00  0.00    -0.265 A  
HETATM    7  C   UNL     1     -10.478   8.971  68.830  1.00  0.00    -0.230 A  
HETATM    8  C   UNL     1     -10.907   8.104  69.844  1.00  0.00    -0.215 A  
HETATM    9  C   UNL     1     -11.763   8.595  70.843  1.00  0.00    -0.287 A  
ENDROOT
BRANCH   8  10
HETATM   10  C   UNL     1     -10.529   6.696  69.869  1.00  0.00    -0.209 A  
HETATM   11  N   UNL     1     -10.618   5.898  70.943  1.00  0.00    -0.243 NA 
HETATM   12  O   UNL     1     -10.061   4.695  70.503  1.00  0.00    -0.225 OA 
HETATM   13  C   UNL     1      -9.688   4.885  69.203  1.00  0.00    -0.182 A  
HETATM   14  N   UNL     1      -9.967   6.092  68.765  1.00  0.00    -0.138 NA 
BRANCH  13  15
HETATM   15  C   UNL     1      -9.032   3.789  68.505  1.00  0.00    -0.173 A  
HETATM   16  C   UNL     1      -8.281   2.855  69.241  1.00  0.00    -0.074 A  
HETATM   17  C   UNL     1      -7.654   1.777  68.608  1.00  0.00    -0.046 A  
HETATM   18  C   UNL     1      -7.770   1.616  67.229  1.00  0.00    -0.060 A  
HETATM   19  C   UNL     1      -8.511   2.533  66.487  1.00  0.00    -0.099 A  
HETATM   20  C   UNL     1      -9.133   3.606  67.124  1.00  0.00    -0.168 A  
HETATM   21  F   UNL     1      -9.842   4.455  66.366  1.00  0.00    -0.165 F  
ENDBRANCH  13  15
ENDBRANCH   8  10
TORSDOF 2
ENDMDL
MODEL      153
REMARK 921   NORMALIZED FREE ENERGY PREDICTED BY IDOCK:   -4.17 KCAL/MOL
REMARK 922        TOTAL FREE ENERGY PREDICTED BY IDOCK:   -5.03 KCAL/MOL
REMARK 923 INTER-LIGAND FREE ENERGY PREDICTED BY IDOCK:   -4.67 KCAL/MOL
REMARK 924 INTRA-LIGAND FREE ENERGY PREDICTED BY IDOCK:   -0.36 KCAL/MOL
REMARK 927      BINDING AFFINITY PREDICTED BY RF-SCORE:    0.00 PKD
ROOT
HETATM    1  O   UNL     1      -7.050   8.121  65.274  1.00  0.00    -0.062 OA 
HETATM    2  C   UNL     1      -7.043   6.851  64.818  1.00  0.00    -0.060 C  
HETATM    3  C   UNL     1      -8.143   6.017  65.356  1.00  0.00    -0.132 A  
HETATM    4  O   UNL     1      -6.237   6.435  64.006  1.00  0.00    -0.029 OA 
HETATM    5  C   UNL     1      -8.704   5.029  64.540  1.00  0.00    -0.132 A  
HETATM    6  C   UNL     1      -9.751   4.240  65.020  1.00  0.00    -0.194 A  
HETATM    7  C   UNL     1     -10.244   4.440  66.313  1.00  0.00    -0.211 A  
HETATM    8  C   UNL     1      -9.684   5.421  67.142  1.00  0.00    -0.159 A  
HETATM    9  C   UNL     1      -8.611   6.188  66.661  1.00  0.00    -0.118 A  
ENDROOT
BRANCH   8  10
HETATM   10  C   UNL     1     -10.210   5.702  68.473  1.00  0.00    -0.193 A  
HETATM   11  N   UNL     1     -10.111   4.877  69.526  1.00  0.00    -0.230 NA 
HETATM   12  O   UNL     1     -10.833   5.534  70.524  1.00  0.00    -0.269 OA 
HETATM   13  C   UNL     1     -11.300   6.695  69.976  1.00  0.00    -0.382 A  
HETATM   14  N   UNL     1     -10.932   6.848  68.724  1.00  0.00    -0.191 NA 
BRANCH  13  15
HETATM   15  C   UNL     1     -12.132   7.561  70.797  1.00  0.00    -0.190 A  
HETATM   16  C   UNL     1     -13.238   7.016  71.474  1.00  0.00    -0.382 A  
HETATM   17  C   UNL     1     -14.048   7.814  72.288  1.00  0.00    -0.164 A  
HETATM   18  C   UNL     1     -13.763   9.169  72.440  1.00  0.00    -0.543 A  
HETATM   19  C   UNL     1     -12.671   9.723  71.776  1.00  0.00    -0.519 A  
HETATM   20  C   UNL     1     -11.868   8.922  70.965  1.00  0.00    -0.276 A  
HETATM   21  F   UNL     1     -10.823   9.502  70.355  1.00  0.00    -0.239 F  
ENDBRANCH  13  15
ENDBRANCH   8  10
TORSDOF 2
ENDMDL
MODEL      154
REMARK 921   NORMALIZED FREE ENERGY PREDICTED BY IDOCK:   -4.17 KCAL/MOL
REMARK 922        TOTAL FREE ENERGY PREDICTED BY IDOCK:   -5.02 KCAL/MOL
REMARK 923 INTER-LIGAND FREE ENERGY PREDICTED BY IDOCK:   -4.85 KCAL/MOL
REMARK 924 INTRA-LIGAND FREE ENERGY PREDICTED BY IDOCK:   -0.17 KCAL/MOL
REMARK 927      BINDING AFFINITY PREDICTED BY RF-SCORE:    0.00 PKD
ROOT
HETATM    1  O   UNL     1      -8.415   5.100  66.213  1.00  0.00    -0.112 OA 
HETATM    2  C   UNL     1      -7.436   5.021  65.289  1.00  0.00    -0.077 C  
HETATM    3  C   UNL     1      -7.092   6.322  64.668  1.00  0.00    -0.057 A  
HETATM    4  O   UNL     1      -6.854   3.987  65.015  1.00  0.00    -0.047 OA 
HETATM    5  C   UNL     1      -5.766   6.565  64.297  1.00  0.00    -0.030 A  
HETATM    6  C   UNL     1      -5.416   7.789  63.724  1.00  0.00    -0.045 A  
HETATM    7  C   UNL     1      -6.388   8.775  63.526  1.00  0.00    -0.088 A  
HETATM    8  C   UNL     1      -7.722   8.538  63.886  1.00  0.00    -0.141 A  
HETATM    9  C   UNL     1      -8.069   7.293  64.433  1.00  0.00    -0.065 A  
ENDROOT
BRANCH   8  10
HETATM   10  C   UNL     1      -8.752   9.562  63.753  1.00  0.00    -0.217 A  
HETATM   11  N   UNL     1      -9.216  10.034  62.587  1.00  0.00    -0.289 NA 
HETATM   12  O   UNL     1     -10.103  11.042  62.973  1.00  0.00    -0.315 OA 
HETATM   13  C   UNL     1     -10.088  11.080  64.338  1.00  0.00    -0.334 A  
HETATM   14  N   UNL     1      -9.284  10.182  64.862  1.00  0.00    -0.210 NA 
BRANCH  13  15
HETATM   15  C   UNL     1     -10.901  12.083  65.010  1.00  0.00    -0.351 A  
HETATM   16  C   UNL     1     -10.438  12.657  66.207  1.00  0.00    -0.270 A  
HETATM   17  C   UNL     1     -11.182  13.638  66.870  1.00  0.00    -0.326 A  
HETATM   18  C   UNL     1     -12.401  14.061  66.344  1.00  0.00    -0.468 A  
HETATM   19  C   UNL     1     -12.872  13.502  65.159  1.00  0.00    -0.381 A  
HETATM   20  C   UNL     1     -12.125  12.523  64.503  1.00  0.00    -0.425 A  
HETATM   21  F   UNL     1     -12.619  12.023  63.361  1.00  0.00    -0.606 F  
ENDBRANCH  13  15
ENDBRANCH   8  10
TORSDOF 2
ENDMDL
MODEL      155
REMARK 921   NORMALIZED FREE ENERGY PREDICTED BY IDOCK:   -4.16 KCAL/MOL
REMARK 922        TOTAL FREE ENERGY PREDICTED BY IDOCK:   -5.02 KCAL/MOL
REMARK 923 INTER-LIGAND FREE ENERGY PREDICTED BY IDOCK:   -4.65 KCAL/MOL
REMARK 924 INTRA-LIGAND FREE ENERGY PREDICTED BY IDOCK:   -0.37 KCAL/MOL
REMARK 927      BINDING AFFINITY PREDICTED BY RF-SCORE:    0.00 PKD
ROOT
HETATM    1  O   UNL     1     -10.496   5.206  66.161  1.00  0.00    -0.260 OA 
HETATM    2  C   UNL     1     -10.279   4.968  67.470  1.00  0.00    -0.129 C  
HETATM    3  C   UNL     1     -10.402   6.171  68.326  1.00  0.00    -0.239 A  
HETATM    4  O   UNL     1     -10.045   3.860  67.920  1.00  0.00     0.042 OA 
HETATM    5  C   UNL     1     -10.906   6.030  69.623  1.00  0.00    -0.439 A  
HETATM    6  C   UNL     1     -11.045   7.152  70.443  1.00  0.00    -0.309 A  
HETATM    7  C   UNL     1     -10.686   8.417  69.967  1.00  0.00    -0.236 A  
HETATM    8  C   UNL     1     -10.171   8.569  68.672  1.00  0.00    -0.217 A  
HETATM    9  C   UNL     1     -10.007   7.430  67.867  1.00  0.00    -0.201 A  
ENDROOT
BRANCH   8  10
HETATM   10  C   UNL     1      -9.843   9.877  68.118  1.00  0.00    -0.147 A  
HETATM   11  N   UNL     1      -8.803  10.128  67.310  1.00  0.00    -0.132 NA 
HETATM   12  O   UNL     1      -8.857  11.512  67.130  1.00  0.00    -0.158 OA 
HETATM   13  C   UNL     1      -9.927  11.963  67.849  1.00  0.00    -0.191 A  
HETATM   14  N   UNL     1     -10.571  10.996  68.462  1.00  0.00    -0.179 NA 
BRANCH  13  15
HETATM   15  C   UNL     1     -10.190  13.395  67.872  1.00  0.00    -0.241 A  
HETATM   16  C   UNL     1      -9.250  14.260  68.461  1.00  0.00    -0.197 A  
HETATM   17  C   UNL     1      -9.460  15.642  68.483  1.00  0.00    -0.200 A  
HETATM   18  C   UNL     1     -10.611  16.181  67.914  1.00  0.00    -0.309 A  
HETATM   19  C   UNL     1     -11.551  15.337  67.327  1.00  0.00    -0.164 A  
HETATM   20  C   UNL     1     -11.337  13.959  67.309  1.00  0.00    -0.323 A  
HETATM   21  F   UNL     1     -12.267  13.191  66.723  1.00  0.00    -0.422 F  
ENDBRANCH  13  15
ENDBRANCH   8  10
TORSDOF 2
ENDMDL
MODEL      156
REMARK 921   NORMALIZED FREE ENERGY PREDICTED BY IDOCK:   -4.15 KCAL/MOL
REMARK 922        TOTAL FREE ENERGY PREDICTED BY IDOCK:   -5.00 KCAL/MOL
REMARK 923 INTER-LIGAND FREE ENERGY PREDICTED BY IDOCK:   -4.80 KCAL/MOL
REMARK 924 INTRA-LIGAND FREE ENERGY PREDICTED BY IDOCK:   -0.20 KCAL/MOL
REMARK 927      BINDING AFFINITY PREDICTED BY RF-SCORE:    0.00 PKD
ROOT
HETATM    1  O   UNL     1     -12.419  14.342  71.369  1.00  0.00    -0.323 OA 
HETATM    2  C   UNL     1     -11.969  14.692  70.147  1.00  0.00    -0.313 C  
HETATM    3  C   UNL     1     -11.779  13.545  69.228  1.00  0.00    -0.382 A  
HETATM    4  O   UNL     1     -11.776  15.846  69.808  1.00  0.00    -0.332 OA 
HETATM    5  C   UNL     1     -12.022  13.724  67.863  1.00  0.00    -0.391 A  
HETATM    6  C   UNL     1     -11.864  12.654  66.980  1.00  0.00    -0.415 A  
HETATM    7  C   UNL     1     -11.468  11.401  67.461  1.00  0.00    -0.336 A  
HETATM    8  C   UNL     1     -11.213  11.213  68.826  1.00  0.00    -0.314 A  
HETATM    9  C   UNL     1     -11.345  12.303  69.700  1.00  0.00    -0.207 A  
ENDROOT
BRANCH   8  10
HETATM   10  C   UNL     1     -10.858   9.909  69.374  1.00  0.00    -0.237 A  
HETATM   11  N   UNL     1     -11.348   9.397  70.512  1.00  0.00    -0.265 NA 
HETATM   12  O   UNL     1     -10.650   8.196  70.656  1.00  0.00    -0.208 OA 
HETATM   13  C   UNL     1      -9.803   8.100  69.589  1.00  0.00    -0.184 A  
HETATM   14  N   UNL     1      -9.903   9.121  68.768  1.00  0.00    -0.163 NA 
BRANCH  13  15
HETATM   15  C   UNL     1      -8.914   6.950  69.514  1.00  0.00    -0.143 A  
HETATM   16  C   UNL     1      -8.570   6.265  70.693  1.00  0.00    -0.139 A  
HETATM   17  C   UNL     1      -7.736   5.143  70.657  1.00  0.00    -0.079 A  
HETATM   18  C   UNL     1      -7.234   4.689  69.440  1.00  0.00    -0.052 A  
HETATM   19  C   UNL     1      -7.565   5.356  68.263  1.00  0.00    -0.081 A  
HETATM   20  C   UNL     1      -8.397   6.475  68.306  1.00  0.00    -0.117 A  
HETATM   21  F   UNL     1      -8.693   7.076  67.145  1.00  0.00    -0.117 F  
ENDBRANCH  13  15
ENDBRANCH   8  10
TORSDOF 2
ENDMDL
MODEL      157
REMARK 921   NORMALIZED FREE ENERGY PREDICTED BY IDOCK:   -4.14 KCAL/MOL
REMARK 922        TOTAL FREE ENERGY PREDICTED BY IDOCK:   -4.99 KCAL/MOL
REMARK 923 INTER-LIGAND FREE ENERGY PREDICTED BY IDOCK:   -4.96 KCAL/MOL
REMARK 924 INTRA-LIGAND FREE ENERGY PREDICTED BY IDOCK:   -0.03 KCAL/MOL
REMARK 927      BINDING AFFINITY PREDICTED BY RF-SCORE:    0.00 PKD
ROOT
HETATM    1  O   UNL     1      -7.745  10.949  68.199  1.00  0.00    -0.097 OA 
HETATM    2  C   UNL     1      -8.776  11.720  67.797  1.00  0.00    -0.155 C  
HETATM    3  C   UNL     1      -9.974  11.615  68.664  1.00  0.00    -0.192 A  
HETATM    4  O   UNL     1      -8.720  12.469  66.839  1.00  0.00    -0.200 OA 
HETATM    5  C   UNL     1     -10.774  12.747  68.851  1.00  0.00    -0.199 A  
HETATM    6  C   UNL     1     -11.900  12.676  69.674  1.00  0.00    -0.379 A  
HETATM    7  C   UNL     1     -12.225  11.476  70.316  1.00  0.00    -0.415 A  
HETATM    8  C   UNL     1     -11.435  10.334  70.127  1.00  0.00    -0.383 A  
HETATM    9  C   UNL     1     -10.323  10.408  69.273  1.00  0.00    -0.250 A  
ENDROOT
BRANCH   8  10
HETATM   10  C   UNL     1     -11.706   9.083  70.826  1.00  0.00    -0.242 A  
HETATM   11  N   UNL     1     -12.888   8.744  71.360  1.00  0.00    -0.309 NA 
HETATM   12  O   UNL     1     -12.625   7.523  71.986  1.00  0.00    -0.294 OA 
HETATM   13  C   UNL     1     -11.306   7.244  71.769  1.00  0.00    -0.253 A  
HETATM   14  N   UNL     1     -10.703   8.165  71.051  1.00  0.00    -0.214 NA 
BRANCH  13  15
HETATM   15  C   UNL     1     -10.750   6.034  72.357  1.00  0.00    -0.267 A  
HETATM   16  C   UNL     1      -9.361   5.821  72.313  1.00  0.00    -0.155 A  
HETATM   17  C   UNL     1      -8.789   4.680  72.885  1.00  0.00    -0.118 A  
HETATM   18  C   UNL     1      -9.599   3.736  73.513  1.00  0.00    -0.135 A  
HETATM   19  C   UNL     1     -10.976   3.933  73.564  1.00  0.00    -0.343 A  
HETATM   20  C   UNL     1     -11.540   5.072  72.991  1.00  0.00    -0.216 A  
HETATM   21  F   UNL     1     -12.871   5.220  73.075  1.00  0.00    -0.142 F  
ENDBRANCH  13  15
ENDBRANCH   8  10
TORSDOF 2
ENDMDL
MODEL      158
REMARK 921   NORMALIZED FREE ENERGY PREDICTED BY IDOCK:   -4.14 KCAL/MOL
REMARK 922        TOTAL FREE ENERGY PREDICTED BY IDOCK:   -4.99 KCAL/MOL
REMARK 923 INTER-LIGAND FREE ENERGY PREDICTED BY IDOCK:   -4.61 KCAL/MOL
REMARK 924 INTRA-LIGAND FREE ENERGY PREDICTED BY IDOCK:   -0.38 KCAL/MOL
REMARK 927      BINDING AFFINITY PREDICTED BY RF-SCORE:    0.00 PKD
ROOT
HETATM    1  O   UNL     1      -6.311   8.156  66.820  1.00  0.00    -0.053 OA 
HETATM    2  C   UNL     1      -6.552   7.533  67.992  1.00  0.00    -0.054 C  
HETATM    3  C   UNL     1      -7.929   7.733  68.504  1.00  0.00    -0.122 A  
HETATM    4  O   UNL     1      -5.734   6.834  68.561  1.00  0.00    -0.016 OA 
HETATM    5  C   UNL     1      -8.546   6.695  69.209  1.00  0.00    -0.131 A  
HETATM    6  C   UNL     1      -9.848   6.855  69.688  1.00  0.00    -0.171 A  
HETATM    7  C   UNL     1     -10.538   8.050  69.458  1.00  0.00    -0.216 A  
HETATM    8  C   UNL     1      -9.926   9.099  68.759  1.00  0.00    -0.188 A  
HETATM    9  C   UNL     1      -8.606   8.940  68.309  1.00  0.00    -0.134 A  
ENDROOT
BRANCH   8  10
HETATM   10  C   UNL     1     -10.633  10.336  68.446  1.00  0.00    -0.216 A  
HETATM   11  N   UNL     1     -11.752  10.413  67.712  1.00  0.00    -0.203 NA 
HETATM   12  O   UNL     1     -11.986  11.788  67.618  1.00  0.00    -0.599 OA 
HETATM   13  C   UNL     1     -10.981  12.407  68.305  1.00  0.00    -0.236 A  
HETATM   14  N   UNL     1     -10.135  11.558  68.842  1.00  0.00    -0.172 NA 
BRANCH  13  15
HETATM   15  C   UNL     1     -10.958  13.862  68.331  1.00  0.00    -0.272 A  
HETATM   16  C   UNL     1     -11.113  14.534  69.557  1.00  0.00    -0.285 A  
HETATM   17  C   UNL     1     -11.075  15.929  69.622  1.00  0.00    -0.320 A  
HETATM   18  C   UNL     1     -10.880  16.676  68.463  1.00  0.00    -0.356 A  
HETATM   19  C   UNL     1     -10.724  16.026  67.241  1.00  0.00    -0.295 A  
HETATM   20  C   UNL     1     -10.763  14.633  67.182  1.00  0.00    -0.292 A  
HETATM   21  F   UNL     1     -10.599  14.055  65.983  1.00  0.00    -0.280 F  
ENDBRANCH  13  15
ENDBRANCH   8  10
TORSDOF 2
ENDMDL
MODEL      159
REMARK 921   NORMALIZED FREE ENERGY PREDICTED BY IDOCK:   -4.10 KCAL/MOL
REMARK 922        TOTAL FREE ENERGY PREDICTED BY IDOCK:   -4.95 KCAL/MOL
REMARK 923 INTER-LIGAND FREE ENERGY PREDICTED BY IDOCK:   -4.69 KCAL/MOL
REMARK 924 INTRA-LIGAND FREE ENERGY PREDICTED BY IDOCK:   -0.26 KCAL/MOL
REMARK 927      BINDING AFFINITY PREDICTED BY RF-SCORE:    0.00 PKD
ROOT
HETATM    1  O   UNL     1     -14.034   9.532  72.262  1.00  0.00    -0.371 OA 
HETATM    2  C   UNL     1     -13.255  10.568  71.888  1.00  0.00    -0.420 C  
HETATM    3  C   UNL     1     -12.207  10.203  70.905  1.00  0.00    -0.455 A  
HETATM    4  O   UNL     1     -13.419  11.708  72.283  1.00  0.00    -0.397 OA 
HETATM    5  C   UNL     1     -11.835  11.139  69.935  1.00  0.00    -0.439 A  
HETATM    6  C   UNL     1     -10.860  10.813  68.989  1.00  0.00    -0.278 A  
HETATM    7  C   UNL     1     -10.259   9.550  69.009  1.00  0.00    -0.211 A  
HETATM    8  C   UNL     1     -10.618   8.608  69.982  1.00  0.00    -0.233 A  
HETATM    9  C   UNL     1     -11.577   8.957  70.947  1.00  0.00    -0.331 A  
ENDROOT
BRANCH   8  10
HETATM   10  C   UNL     1     -10.060   7.261  69.998  1.00  0.00    -0.190 A  
HETATM   11  N   UNL     1      -9.877   6.495  68.913  1.00  0.00    -0.133 NA 
HETATM   12  O   UNL     1      -9.415   5.287  69.442  1.00  0.00    -0.122 OA 
HETATM   13  C   UNL     1      -9.366   5.442  70.798  1.00  0.00    -0.159 A  
HETATM   14  N   UNL     1      -9.739   6.640  71.186  1.00  0.00    -0.174 NA 
BRANCH  13  15
HETATM   15  C   UNL     1      -8.955   4.304  71.608  1.00  0.00    -0.158 A  
HETATM   16  C   UNL     1      -9.191   3.000  71.138  1.00  0.00    -0.197 A  
HETATM   17  C   UNL     1      -8.792   1.885  71.879  1.00  0.00    -0.104 A  
HETATM   18  C   UNL     1      -8.148   2.055  73.102  1.00  0.00    -0.046 A  
HETATM   19  C   UNL     1      -7.906   3.341  73.582  1.00  0.00    -0.066 A  
HETATM   20  C   UNL     1      -8.308   4.450  72.837  1.00  0.00    -0.099 A  
HETATM   21  F   UNL     1      -8.044   5.665  73.338  1.00  0.00    -0.110 F  
ENDBRANCH  13  15
ENDBRANCH   8  10
TORSDOF 2
ENDMDL
MODEL      160
REMARK 921   NORMALIZED FREE ENERGY PREDICTED BY IDOCK:   -4.09 KCAL/MOL
REMARK 922        TOTAL FREE ENERGY PREDICTED BY IDOCK:   -4.94 KCAL/MOL
REMARK 923 INTER-LIGAND FREE ENERGY PREDICTED BY IDOCK:   -4.61 KCAL/MOL
REMARK 924 INTRA-LIGAND FREE ENERGY PREDICTED BY IDOCK:   -0.33 KCAL/MOL
REMARK 927      BINDING AFFINITY PREDICTED BY RF-SCORE:    0.00 PKD
ROOT
HETATM    1  O   UNL     1      -5.929   6.604  65.631  1.00  0.00    -0.032 OA 
HETATM    2  C   UNL     1      -6.691   5.884  66.480  1.00  0.00    -0.057 C  
HETATM    3  C   UNL     1      -8.092   6.359  66.575  1.00  0.00    -0.111 A  
HETATM    4  O   UNL     1      -6.285   4.907  67.081  1.00  0.00    -0.033 OA 
HETATM    5  C   UNL     1      -9.111   5.424  66.777  1.00  0.00    -0.116 A  
HETATM    6  C   UNL     1     -10.440   5.846  66.856  1.00  0.00    -0.349 A  
HETATM    7  C   UNL     1     -10.753   7.203  66.727  1.00  0.00    -0.259 A  
HETATM    8  C   UNL     1      -9.738   8.150  66.534  1.00  0.00    -0.309 A  
HETATM    9  C   UNL     1      -8.403   7.719  66.487  1.00  0.00    -0.128 A  
ENDROOT
BRANCH   8  10
HETATM   10  C   UNL     1     -10.029   9.566  66.335  1.00  0.00    -0.269 A  
HETATM   11  N   UNL     1      -9.807  10.241  65.197  1.00  0.00    -0.302 NA 
HETATM   12  O   UNL     1     -10.152  11.554  65.525  1.00  0.00    -0.223 OA 
HETATM   13  C   UNL     1     -10.548  11.544  66.832  1.00  0.00    -0.247 A  
HETATM   14  N   UNL     1     -10.503  10.345  67.368  1.00  0.00    -0.232 NA 
BRANCH  13  15
HETATM   15  C   UNL     1     -10.925  12.807  67.449  1.00  0.00    -0.285 A  
HETATM   16  C   UNL     1     -10.232  13.252  68.590  1.00  0.00    -0.178 A  
HETATM   17  C   UNL     1     -10.553  14.469  69.197  1.00  0.00    -0.242 A  
HETATM   18  C   UNL     1     -11.570  15.263  68.672  1.00  0.00    -0.370 A  
HETATM   19  C   UNL     1     -12.265  14.837  67.543  1.00  0.00     0.013 A  
HETATM   20  C   UNL     1     -11.941  13.620  66.942  1.00  0.00    -0.410 A  
HETATM   21  F   UNL     1     -12.634  13.259  65.852  1.00  0.00    -0.466 F  
ENDBRANCH  13  15
ENDBRANCH   8  10
TORSDOF 2
ENDMDL
MODEL      161
REMARK 921   NORMALIZED FREE ENERGY PREDICTED BY IDOCK:   -4.08 KCAL/MOL
REMARK 922        TOTAL FREE ENERGY PREDICTED BY IDOCK:   -4.93 KCAL/MOL
REMARK 923 INTER-LIGAND FREE ENERGY PREDICTED BY IDOCK:   -4.72 KCAL/MOL
REMARK 924 INTRA-LIGAND FREE ENERGY PREDICTED BY IDOCK:   -0.21 KCAL/MOL
REMARK 927      BINDING AFFINITY PREDICTED BY RF-SCORE:    0.00 PKD
ROOT
HETATM    1  O   UNL     1      -9.471   3.992  67.705  1.00  0.00    -0.166 OA 
HETATM    2  C   UNL     1      -9.193   3.768  66.404  1.00  0.00    -0.171 C  
HETATM    3  C   UNL     1      -8.616   4.940  65.705  1.00  0.00    -0.128 A  
HETATM    4  O   UNL     1      -9.358   2.691  65.859  1.00  0.00    -0.107 OA 
HETATM    5  C   UNL     1      -7.671   4.729  64.697  1.00  0.00    -0.078 A  
HETATM    6  C   UNL     1      -7.103   5.819  64.034  1.00  0.00    -0.052 A  
HETATM    7  C   UNL     1      -7.474   7.122  64.382  1.00  0.00    -0.097 A  
HETATM    8  C   UNL     1      -8.427   7.345  65.385  1.00  0.00    -0.101 A  
HETATM    9  C   UNL     1      -9.014   6.241  66.024  1.00  0.00    -0.150 A  
ENDROOT
BRANCH   8  10
HETATM   10  C   UNL     1      -8.794   8.688  65.818  1.00  0.00    -0.193 A  
HETATM   11  N   UNL     1      -8.275   9.319  66.881  1.00  0.00    -0.118 NA 
HETATM   12  O   UNL     1      -8.998  10.513  66.936  1.00  0.00    -0.139 OA 
HETATM   13  C   UNL     1      -9.886  10.486  65.899  1.00  0.00    -0.234 A  
HETATM   14  N   UNL     1      -9.790   9.393  65.177  1.00  0.00    -0.072 NA 
BRANCH  13  15
HETATM   15  C   UNL     1     -10.805  11.604  65.748  1.00  0.00    -0.334 A  
HETATM   16  C   UNL     1     -11.136  12.382  66.872  1.00  0.00    -0.335 A  
HETATM   17  C   UNL     1     -12.000  13.476  66.760  1.00  0.00    -0.453 A  
HETATM   18  C   UNL     1     -12.545  13.810  65.523  1.00  0.00    -0.551 A  
HETATM   19  C   UNL     1     -12.226  13.049  64.400  1.00  0.00    -0.471 A  
HETATM   20  C   UNL     1     -11.365  11.959  64.518  1.00  0.00    -0.316 A  
HETATM   21  F   UNL     1     -11.083  11.264  63.406  1.00  0.00    -0.449 F  
ENDBRANCH  13  15
ENDBRANCH   8  10
TORSDOF 2
ENDMDL
MODEL      162
REMARK 921   NORMALIZED FREE ENERGY PREDICTED BY IDOCK:   -4.05 KCAL/MOL
REMARK 922        TOTAL FREE ENERGY PREDICTED BY IDOCK:   -4.90 KCAL/MOL
REMARK 923 INTER-LIGAND FREE ENERGY PREDICTED BY IDOCK:   -4.55 KCAL/MOL
REMARK 924 INTRA-LIGAND FREE ENERGY PREDICTED BY IDOCK:   -0.35 KCAL/MOL
REMARK 927      BINDING AFFINITY PREDICTED BY RF-SCORE:    0.00 PKD
ROOT
HETATM    1  O   UNL     1      -8.644   4.537  65.440  1.00  0.00    -0.119 OA 
HETATM    2  C   UNL     1      -7.507   5.202  65.150  1.00  0.00    -0.073 C  
HETATM    3  C   UNL     1      -7.345   6.467  65.907  1.00  0.00    -0.080 A  
HETATM    4  O   UNL     1      -6.666   4.787  64.374  1.00  0.00    -0.042 OA 
HETATM    5  C   UNL     1      -6.060   6.871  66.281  1.00  0.00    -0.035 A  
HETATM    6  C   UNL     1      -5.883   8.051  67.006  1.00  0.00    -0.045 A  
HETATM    7  C   UNL     1      -6.991   8.826  67.363  1.00  0.00    -0.075 A  
HETATM    8  C   UNL     1      -8.283   8.435  66.986  1.00  0.00    -0.107 A  
HETATM    9  C   UNL     1      -8.446   7.263  66.231  1.00  0.00    -0.135 A  
ENDROOT
BRANCH   8  10
HETATM   10  C   UNL     1      -9.467   9.183  67.392  1.00  0.00    -0.143 A  
HETATM   11  N   UNL     1     -10.279   9.845  66.555  1.00  0.00    -0.234 NA 
HETATM   12  O   UNL     1     -11.194  10.465  67.410  1.00  0.00    -0.301 OA 
HETATM   13  C   UNL     1     -10.843  10.116  68.683  1.00  0.00    -0.235 A  
HETATM   14  N   UNL     1      -9.798   9.321  68.722  1.00  0.00    -0.161 NA 
BRANCH  13  15
HETATM   15  C   UNL     1     -11.615  10.668  69.787  1.00  0.00    -0.385 A  
HETATM   16  C   UNL     1     -11.808  12.059  69.867  1.00  0.00    -0.405 A  
HETATM   17  C   UNL     1     -12.560  12.622  70.902  1.00  0.00    -0.338 A  
HETATM   18  C   UNL     1     -13.133  11.803  71.872  1.00  0.00    -0.482 A  
HETATM   19  C   UNL     1     -12.951  10.424  71.806  1.00  0.00    -0.580 A  
HETATM   20  C   UNL     1     -12.199   9.868  70.772  1.00  0.00    -0.291 A  
HETATM   21  F   UNL     1     -12.061   8.534  70.749  1.00  0.00    -0.285 F  
ENDBRANCH  13  15
ENDBRANCH   8  10
TORSDOF 2
ENDMDL
MODEL      163
REMARK 921   NORMALIZED FREE ENERGY PREDICTED BY IDOCK:   -4.02 KCAL/MOL
REMARK 922        TOTAL FREE ENERGY PREDICTED BY IDOCK:   -4.86 KCAL/MOL
REMARK 923 INTER-LIGAND FREE ENERGY PREDICTED BY IDOCK:   -4.49 KCAL/MOL
REMARK 924 INTRA-LIGAND FREE ENERGY PREDICTED BY IDOCK:   -0.37 KCAL/MOL
REMARK 927      BINDING AFFINITY PREDICTED BY RF-SCORE:    0.00 PKD
ROOT
HETATM    1  O   UNL     1     -13.871  12.132  72.452  1.00  0.00    -0.198 OA 
HETATM    2  C   UNL     1     -13.210  13.274  72.170  1.00  0.00    -0.464 C  
HETATM    3  C   UNL     1     -12.507  13.252  70.866  1.00  0.00    -0.424 A  
HETATM    4  O   UNL     1     -13.222  14.252  72.895  1.00  0.00    -0.509 OA 
HETATM    5  C   UNL     1     -12.413  14.436  70.128  1.00  0.00    -0.395 A  
HETATM    6  C   UNL     1     -11.767  14.436  68.889  1.00  0.00    -0.357 A  
HETATM    7  C   UNL     1     -11.220  13.252  68.384  1.00  0.00    -0.314 A  
HETATM    8  C   UNL     1     -11.301  12.062  69.119  1.00  0.00    -0.338 A  
HETATM    9  C   UNL     1     -11.925  12.079  70.377  1.00  0.00    -0.379 A  
ENDROOT
BRANCH   8  10
HETATM   10  C   UNL     1     -10.798  10.796  68.599  1.00  0.00    -0.220 A  
HETATM   11  N   UNL     1     -11.535   9.688  68.434  1.00  0.00     0.185 NA 
HETATM   12  O   UNL     1     -10.604   8.738  68.009  1.00  0.00    -0.219 OA 
HETATM   13  C   UNL     1      -9.392   9.365  67.960  1.00  0.00    -0.129 A  
HETATM   14  N   UNL     1      -9.462  10.632  68.301  1.00  0.00    -0.154 NA 
BRANCH  13  15
HETATM   15  C   UNL     1      -8.223   8.583  67.585  1.00  0.00    -0.118 A  
HETATM   16  C   UNL     1      -7.667   7.685  68.513  1.00  0.00    -0.119 A  
HETATM   17  C   UNL     1      -6.558   6.902  68.180  1.00  0.00    -0.059 A  
HETATM   18  C   UNL     1      -5.988   7.004  66.913  1.00  0.00    -0.030 A  
HETATM   19  C   UNL     1      -6.527   7.889  65.983  1.00  0.00    -0.046 A  
HETATM   20  C   UNL     1      -7.634   8.668  66.321  1.00  0.00    -0.094 A  
HETATM   21  F   UNL     1      -8.121   9.498  65.387  1.00  0.00    -0.114 F  
ENDBRANCH  13  15
ENDBRANCH   8  10
TORSDOF 2
ENDMDL
MODEL      164
REMARK 921   NORMALIZED FREE ENERGY PREDICTED BY IDOCK:   -4.01 KCAL/MOL
REMARK 922        TOTAL FREE ENERGY PREDICTED BY IDOCK:   -4.85 KCAL/MOL
REMARK 923 INTER-LIGAND FREE ENERGY PREDICTED BY IDOCK:   -4.55 KCAL/MOL
REMARK 924 INTRA-LIGAND FREE ENERGY PREDICTED BY IDOCK:   -0.29 KCAL/MOL
REMARK 927      BINDING AFFINITY PREDICTED BY RF-SCORE:    0.00 PKD
ROOT
HETATM    1  O   UNL     1      -9.669   4.000  67.867  1.00  0.00    -0.159 OA 
HETATM    2  C   UNL     1      -9.315   4.030  66.565  1.00  0.00    -0.181 C  
HETATM    3  C   UNL     1      -8.963   5.383  66.072  1.00  0.00    -0.147 A  
HETATM    4  O   UNL     1      -9.247   3.036  65.866  1.00  0.00    -0.152 OA 
HETATM    5  C   UNL     1      -7.967   5.510  65.099  1.00  0.00    -0.110 A  
HETATM    6  C   UNL     1      -7.609   6.776  64.630  1.00  0.00    -0.105 A  
HETATM    7  C   UNL     1      -8.241   7.916  65.135  1.00  0.00    -0.143 A  
HETATM    8  C   UNL     1      -9.247   7.799  66.104  1.00  0.00    -0.182 A  
HETATM    9  C   UNL     1      -9.621   6.521  66.546  1.00  0.00    -0.184 A  
ENDROOT
BRANCH   8  10
HETATM   10  C   UNL     1      -9.887   8.967  66.699  1.00  0.00    -0.262 A  
HETATM   11  N   UNL     1     -10.911   8.922  67.564  1.00  0.00    -0.145 NA 
HETATM   12  O   UNL     1     -11.224  10.268  67.769  1.00  0.00    -0.306 OA 
HETATM   13  C   UNL     1     -10.357  10.996  67.005  1.00  0.00    -0.228 A  
HETATM   14  N   UNL     1      -9.509  10.243  66.341  1.00  0.00    -0.168 NA 
BRANCH  13  15
HETATM   15  C   UNL     1     -10.493  12.445  66.997  1.00  0.00    -0.238 A  
HETATM   16  C   UNL     1     -11.778  13.017  67.014  1.00  0.00    -0.441 A  
HETATM   17  C   UNL     1     -11.947  14.405  67.028  1.00  0.00    -0.424 A  
HETATM   18  C   UNL     1     -10.834  15.242  67.027  1.00  0.00    -0.321 A  
HETATM   19  C   UNL     1      -9.555  14.690  67.010  1.00  0.00    -0.246 A  
HETATM   20  C   UNL     1      -9.393  13.305  66.996  1.00  0.00    -0.242 A  
HETATM   21  F   UNL     1      -8.141  12.824  66.989  1.00  0.00    -0.170 F  
ENDBRANCH  13  15
ENDBRANCH   8  10
TORSDOF 2
ENDMDL
MODEL      165
REMARK 921   NORMALIZED FREE ENERGY PREDICTED BY IDOCK:   -3.99 KCAL/MOL
REMARK 922        TOTAL FREE ENERGY PREDICTED BY IDOCK:   -4.83 KCAL/MOL
REMARK 923 INTER-LIGAND FREE ENERGY PREDICTED BY IDOCK:   -4.49 KCAL/MOL
REMARK 924 INTRA-LIGAND FREE ENERGY PREDICTED BY IDOCK:   -0.34 KCAL/MOL
REMARK 927      BINDING AFFINITY PREDICTED BY RF-SCORE:    0.00 PKD
ROOT
HETATM    1  O   UNL     1      -7.607  15.372  67.015  1.00  0.00    -0.209 OA 
HETATM    2  C   UNL     1      -8.771  15.550  66.356  1.00  0.00    -0.298 C  
HETATM    3  C   UNL     1      -9.863  14.663  66.823  1.00  0.00    -0.262 A  
HETATM    4  O   UNL     1      -8.929  16.389  65.488  1.00  0.00    -0.352 OA 
HETATM    5  C   UNL     1     -11.176  15.143  66.810  1.00  0.00    -0.285 A  
HETATM    6  C   UNL     1     -12.220  14.331  67.259  1.00  0.00    -0.287 A  
HETATM    7  C   UNL     1     -11.953  13.040  67.726  1.00  0.00    -0.344 A  
HETATM    8  C   UNL     1     -10.642  12.546  67.735  1.00  0.00    -0.235 A  
HETATM    9  C   UNL     1      -9.604  13.359  67.253  1.00  0.00    -0.234 A  
ENDROOT
BRANCH   8  10
HETATM   10  C   UNL     1     -10.315  11.229  68.271  1.00  0.00    -0.183 A  
HETATM   11  N   UNL     1     -10.856  10.076  67.853  1.00  0.00    -0.270 NA 
HETATM   12  O   UNL     1     -10.305   9.126  68.716  1.00  0.00    -0.205 OA 
HETATM   13  C   UNL     1      -9.484   9.800  69.574  1.00  0.00    -0.212 A  
HETATM   14  N   UNL     1      -9.447  11.091  69.332  1.00  0.00     0.040 NA 
BRANCH  13  15
HETATM   15  C   UNL     1      -8.808   9.045  70.619  1.00  0.00    -0.259 A  
HETATM   16  C   UNL     1      -7.411   9.142  70.746  1.00  0.00    -0.120 A  
HETATM   17  C   UNL     1      -6.730   8.448  71.750  1.00  0.00    -0.076 A  
HETATM   18  C   UNL     1      -7.436   7.647  72.644  1.00  0.00    -0.098 A  
HETATM   19  C   UNL     1      -8.820   7.541  72.532  1.00  0.00    -0.171 A  
HETATM   20  C   UNL     1      -9.493   8.235  71.527  1.00  0.00    -0.186 A  
HETATM   21  F   UNL     1     -10.827   8.107  71.467  1.00  0.00    -0.245 F  
ENDBRANCH  13  15
ENDBRANCH   8  10
TORSDOF 2
ENDMDL
MODEL      166
REMARK 921   NORMALIZED FREE ENERGY PREDICTED BY IDOCK:   -3.93 KCAL/MOL
REMARK 922        TOTAL FREE ENERGY PREDICTED BY IDOCK:   -4.76 KCAL/MOL
REMARK 923 INTER-LIGAND FREE ENERGY PREDICTED BY IDOCK:   -4.38 KCAL/MOL
REMARK 924 INTRA-LIGAND FREE ENERGY PREDICTED BY IDOCK:   -0.38 KCAL/MOL
REMARK 927      BINDING AFFINITY PREDICTED BY RF-SCORE:    0.00 PKD
ROOT
HETATM    1  O   UNL     1      -8.886   3.733  69.867  1.00  0.00    -0.075 OA 
HETATM    2  C   UNL     1      -8.684   3.932  71.186  1.00  0.00    -0.081 C  
HETATM    3  C   UNL     1      -9.032   5.298  71.646  1.00  0.00    -0.148 A  
HETATM    4  O   UNL     1      -8.293   3.062  71.943  1.00  0.00    -0.058 OA 
HETATM    5  C   UNL     1      -9.556   5.465  72.931  1.00  0.00    -0.158 A  
HETATM    6  C   UNL     1      -9.905   6.741  73.381  1.00  0.00    -0.230 A  
HETATM    7  C   UNL     1      -9.736   7.849  72.545  1.00  0.00    -0.290 A  
HETATM    8  C   UNL     1      -9.203   7.694  71.258  1.00  0.00    -0.155 A  
HETATM    9  C   UNL     1      -8.827   6.412  70.827  1.00  0.00    -0.144 A  
ENDROOT
BRANCH   8  10
HETATM   10  C   UNL     1      -9.068   8.815  70.336  1.00  0.00    -0.176 A  
HETATM   11  N   UNL     1      -8.023   9.654  70.297  1.00  0.00    -0.173 NA 
HETATM   12  O   UNL     1      -8.395  10.594  69.332  1.00  0.00    -0.142 OA 
HETATM   13  C   UNL     1      -9.632  10.230  68.882  1.00  0.00    -0.190 A  
HETATM   14  N   UNL     1     -10.081   9.138  69.459  1.00  0.00    -0.190 NA 
BRANCH  13  15
HETATM   15  C   UNL     1     -10.282  11.074  67.890  1.00  0.00    -0.207 A  
HETATM   16  C   UNL     1      -9.996  10.880  66.527  1.00  0.00    -0.255 A  
HETATM   17  C   UNL     1     -10.617  11.658  65.544  1.00  0.00    -0.329 A  
HETATM   18  C   UNL     1     -11.533  12.641  65.911  1.00  0.00    -0.407 A  
HETATM   19  C   UNL     1     -11.826  12.845  67.257  1.00  0.00    -0.416 A  
HETATM   20  C   UNL     1     -11.204  12.066  68.232  1.00  0.00    -0.261 A  
HETATM   21  F   UNL     1     -11.527  12.295  69.513  1.00  0.00    -0.298 F  
ENDBRANCH  13  15
ENDBRANCH   8  10
TORSDOF 2
ENDMDL
MODEL      167
REMARK 921   NORMALIZED FREE ENERGY PREDICTED BY IDOCK:   -3.90 KCAL/MOL
REMARK 922        TOTAL FREE ENERGY PREDICTED BY IDOCK:   -4.73 KCAL/MOL
REMARK 923 INTER-LIGAND FREE ENERGY PREDICTED BY IDOCK:   -4.57 KCAL/MOL
REMARK 924 INTRA-LIGAND FREE ENERGY PREDICTED BY IDOCK:   -0.16 KCAL/MOL
REMARK 927      BINDING AFFINITY PREDICTED BY RF-SCORE:    0.00 PKD
ROOT
HETATM    1  O   UNL     1      -7.457   5.971  67.600  1.00  0.00    -0.076 OA 
HETATM    2  C   UNL     1      -7.615   5.986  68.940  1.00  0.00    -0.091 C  
HETATM    3  C   UNL     1      -8.391   7.147  69.437  1.00  0.00    -0.133 A  
HETATM    4  O   UNL     1      -7.200   5.108  69.674  1.00  0.00    -0.054 OA 
HETATM    5  C   UNL     1      -9.218   6.980  70.552  1.00  0.00    -0.159 A  
HETATM    6  C   UNL     1      -9.969   8.055  71.031  1.00  0.00    -0.208 A  
HETATM    7  C   UNL     1      -9.900   9.298  70.392  1.00  0.00    -0.290 A  
HETATM    8  C   UNL     1      -9.068   9.479  69.279  1.00  0.00    -0.161 A  
HETATM    9  C   UNL     1      -8.293   8.399  68.825  1.00  0.00    -0.116 A  
ENDROOT
BRANCH   8  10
HETATM   10  C   UNL     1      -9.014  10.740  68.550  1.00  0.00    -0.160 A  
HETATM   11  N   UNL     1      -8.058  11.670  68.695  1.00  0.00    -0.144 NA 
HETATM   12  O   UNL     1      -8.489  12.711  67.870  1.00  0.00    -0.152 OA 
HETATM   13  C   UNL     1      -9.666  12.309  67.307  1.00  0.00    -0.195 A  
HETATM   14  N   UNL     1     -10.023  11.102  67.683  1.00  0.00    -0.172 NA 
BRANCH  13  15
HETATM   15  C   UNL     1     -10.362  13.235  66.425  1.00  0.00    -0.286 A  
HETATM   16  C   UNL     1      -9.671  14.345  65.907  1.00  0.00    -0.305 A  
HETATM   17  C   UNL     1     -10.300  15.245  65.041  1.00  0.00    -0.375 A  
HETATM   18  C   UNL     1     -11.631  15.047  64.679  1.00  0.00    -0.386 A  
HETATM   19  C   UNL     1     -12.328  13.952  65.185  1.00  0.00    -0.471 A  
HETATM   20  C   UNL     1     -11.695  13.059  66.048  1.00  0.00    -0.393 A  
HETATM   21  F   UNL     1     -12.407  12.017  66.500  1.00  0.00    -0.240 F  
ENDBRANCH  13  15
ENDBRANCH   8  10
TORSDOF 2
ENDMDL
MODEL      168
REMARK 921   NORMALIZED FREE ENERGY PREDICTED BY IDOCK:   -3.87 KCAL/MOL
REMARK 922        TOTAL FREE ENERGY PREDICTED BY IDOCK:   -4.69 KCAL/MOL
REMARK 923 INTER-LIGAND FREE ENERGY PREDICTED BY IDOCK:   -4.31 KCAL/MOL
REMARK 924 INTRA-LIGAND FREE ENERGY PREDICTED BY IDOCK:   -0.38 KCAL/MOL
REMARK 927      BINDING AFFINITY PREDICTED BY RF-SCORE:    0.00 PKD
ROOT
HETATM    1  O   UNL     1     -12.400  14.074  71.298  1.00  0.00    -0.347 OA 
HETATM    2  C   UNL     1     -11.602  15.065  70.850  1.00  0.00    -0.319 C  
HETATM    3  C   UNL     1     -11.094  14.848  69.474  1.00  0.00    -0.301 A  
HETATM    4  O   UNL     1     -11.353  16.068  71.493  1.00  0.00    -0.374 OA 
HETATM    5  C   UNL     1     -10.904  15.955  68.642  1.00  0.00    -0.291 A  
HETATM    6  C   UNL     1     -10.440  15.775  67.337  1.00  0.00    -0.297 A  
HETATM    7  C   UNL     1     -10.171  14.488  66.860  1.00  0.00    -0.264 A  
HETATM    8  C   UNL     1     -10.349  13.372  67.689  1.00  0.00    -0.238 A  
HETATM    9  C   UNL     1     -10.787  13.567  69.009  1.00  0.00    -0.227 A  
ENDROOT
BRANCH   8  10
HETATM   10  C   UNL     1     -10.138  12.011  67.210  1.00  0.00    -0.194 A  
HETATM   11  N   UNL     1     -11.052  11.031  67.260  1.00  0.00    -0.301 NA 
HETATM   12  O   UNL     1     -10.361   9.916  66.780  1.00  0.00    -0.229 OA 
HETATM   13  C   UNL     1      -9.094  10.332  66.487  1.00  0.00    -0.148 A  
HETATM   14  N   UNL     1      -8.913  11.612  66.722  1.00  0.00    -0.183 NA 
BRANCH  13  15
HETATM   15  C   UNL     1      -8.138   9.347  66.003  1.00  0.00    -0.111 A  
HETATM   16  C   UNL     1      -8.185   8.943  64.657  1.00  0.00    -0.163 A  
HETATM   17  C   UNL     1      -7.271   8.014  64.152  1.00  0.00    -0.086 A  
HETATM   18  C   UNL     1      -6.292   7.476  64.986  1.00  0.00    -0.038 A  
HETATM   19  C   UNL     1      -6.232   7.867  66.321  1.00  0.00    -0.046 A  
HETATM   20  C   UNL     1      -7.148   8.794  66.819  1.00  0.00    -0.081 A  
HETATM   21  F   UNL     1      -7.043   9.144  68.109  1.00  0.00    -0.073 F  
ENDBRANCH  13  15
ENDBRANCH   8  10
TORSDOF 2
ENDMDL
MODEL      169
REMARK 921   NORMALIZED FREE ENERGY PREDICTED BY IDOCK:   -3.86 KCAL/MOL
REMARK 922        TOTAL FREE ENERGY PREDICTED BY IDOCK:   -4.68 KCAL/MOL
REMARK 923 INTER-LIGAND FREE ENERGY PREDICTED BY IDOCK:   -4.29 KCAL/MOL
REMARK 924 INTRA-LIGAND FREE ENERGY PREDICTED BY IDOCK:   -0.39 KCAL/MOL
REMARK 927      BINDING AFFINITY PREDICTED BY RF-SCORE:    0.00 PKD
ROOT
HETATM    1  O   UNL     1     -11.438  11.877  65.929  1.00  0.00    -0.340 OA 
HETATM    2  C   UNL     1     -10.587  11.944  64.885  1.00  0.00    -0.287 C  
HETATM    3  C   UNL     1      -9.803  10.704  64.672  1.00  0.00    -0.382 A  
HETATM    4  O   UNL     1     -10.497  12.914  64.154  1.00  0.00    -0.403 OA 
HETATM    5  C   UNL     1      -9.470  10.331  63.366  1.00  0.00    -0.340 A  
HETATM    6  C   UNL     1      -8.744   9.159  63.139  1.00  0.00    -0.155 A  
HETATM    7  C   UNL     1      -8.356   8.356  64.217  1.00  0.00    -0.091 A  
HETATM    8  C   UNL     1      -8.676   8.725  65.530  1.00  0.00    -0.217 A  
HETATM    9  C   UNL     1      -9.379   9.921  65.749  1.00  0.00    -0.259 A  
ENDROOT
BRANCH   8  10
HETATM   10  C   UNL     1      -8.342   7.885  66.673  1.00  0.00    -0.125 A  
HETATM   11  N   UNL     1      -7.208   7.182  66.802  1.00  0.00    -0.081 NA 
HETATM   12  O   UNL     1      -7.393   6.480  67.996  1.00  0.00    -0.085 OA 
HETATM   13  C   UNL     1      -8.625   6.828  68.472  1.00  0.00    -0.125 A  
HETATM   14  N   UNL     1      -9.240   7.696  67.702  1.00  0.00    -0.135 NA 
BRANCH  13  15
HETATM   15  C   UNL     1      -9.094   6.199  69.698  1.00  0.00    -0.139 A  
HETATM   16  C   UNL     1      -9.003   6.903  70.912  1.00  0.00    -0.149 A  
HETATM   17  C   UNL     1      -9.461   6.339  72.107  1.00  0.00    -0.155 A  
HETATM   18  C   UNL     1     -10.020   5.063  72.105  1.00  0.00    -0.236 A  
HETATM   19  C   UNL     1     -10.118   4.354  70.910  1.00  0.00    -0.199 A  
HETATM   20  C   UNL     1      -9.657   4.922  69.722  1.00  0.00    -0.172 A  
HETATM   21  F   UNL     1      -9.782   4.201  68.598  1.00  0.00    -0.212 F  
ENDBRANCH  13  15
ENDBRANCH   8  10
TORSDOF 2
ENDMDL
MODEL      170
REMARK 921   NORMALIZED FREE ENERGY PREDICTED BY IDOCK:   -3.84 KCAL/MOL
REMARK 922        TOTAL FREE ENERGY PREDICTED BY IDOCK:   -4.66 KCAL/MOL
REMARK 923 INTER-LIGAND FREE ENERGY PREDICTED BY IDOCK:   -4.51 KCAL/MOL
REMARK 924 INTRA-LIGAND FREE ENERGY PREDICTED BY IDOCK:   -0.14 KCAL/MOL
REMARK 927      BINDING AFFINITY PREDICTED BY RF-SCORE:    0.00 PKD
ROOT
HETATM    1  O   UNL     1     -10.894   5.530  66.246  1.00  0.00    -0.232 OA 
HETATM    2  C   UNL     1     -10.415   5.202  67.463  1.00  0.00    -0.080 C  
HETATM    3  C   UNL     1     -10.532   6.289  68.465  1.00  0.00    -0.273 A  
HETATM    4  O   UNL     1      -9.967   4.103  67.734  1.00  0.00    -0.104 OA 
HETATM    5  C   UNL     1     -10.772   5.954  69.801  1.00  0.00    -0.411 A  
HETATM    6  C   UNL     1     -10.900   6.961  70.760  1.00  0.00    -0.279 A  
HETATM    7  C   UNL     1     -10.795   8.304  70.384  1.00  0.00    -0.241 A  
HETATM    8  C   UNL     1     -10.546   8.650  69.049  1.00  0.00    -0.179 A  
HETATM    9  C   UNL     1     -10.388   7.629  68.099  1.00  0.00    -0.250 A  
ENDROOT
BRANCH   8  10
HETATM   10  C   UNL     1     -10.490  10.039  68.608  1.00  0.00    -0.204 A  
HETATM   11  N   UNL     1     -11.478  10.679  67.965  1.00  0.00    -0.449 NA 
HETATM   12  O   UNL     1     -10.924  11.929  67.679  1.00  0.00    -0.212 OA 
HETATM   13  C   UNL     1      -9.652  11.922  68.176  1.00  0.00    -0.195 A  
HETATM   14  N   UNL     1      -9.344  10.789  68.767  1.00  0.00    -0.177 NA 
BRANCH  13  15
HETATM   15  C   UNL     1      -8.824  13.102  67.974  1.00  0.00    -0.191 A  
HETATM   16  C   UNL     1      -9.289  14.136  67.143  1.00  0.00    -0.241 A  
HETATM   17  C   UNL     1      -8.531  15.293  66.941  1.00  0.00    -0.286 A  
HETATM   18  C   UNL     1      -7.295  15.434  67.569  1.00  0.00    -0.222 A  
HETATM   19  C   UNL     1      -6.821  14.418  68.396  1.00  0.00    -0.106 A  
HETATM   20  C   UNL     1      -7.583  13.266  68.592  1.00  0.00    -0.094 A  
HETATM   21  F   UNL     1      -7.086  12.321  69.404  1.00  0.00    -0.089 F  
ENDBRANCH  13  15
ENDBRANCH   8  10
TORSDOF 2
ENDMDL
MODEL      171
REMARK 921   NORMALIZED FREE ENERGY PREDICTED BY IDOCK:   -3.80 KCAL/MOL
REMARK 922        TOTAL FREE ENERGY PREDICTED BY IDOCK:   -4.61 KCAL/MOL
REMARK 923 INTER-LIGAND FREE ENERGY PREDICTED BY IDOCK:   -4.21 KCAL/MOL
REMARK 924 INTRA-LIGAND FREE ENERGY PREDICTED BY IDOCK:   -0.40 KCAL/MOL
REMARK 927      BINDING AFFINITY PREDICTED BY RF-SCORE:    0.00 PKD
ROOT
HETATM    1  O   UNL     1     -11.737  15.071  67.566  1.00  0.00    -0.343 OA 
HETATM    2  C   UNL     1     -10.746  15.718  68.213  1.00  0.00    -0.281 C  
HETATM    3  C   UNL     1      -9.423  15.061  68.090  1.00  0.00    -0.196 A  
HETATM    4  O   UNL     1     -10.907  16.768  68.809  1.00  0.00    -0.328 OA 
HETATM    5  C   UNL     1      -8.275  15.857  68.042  1.00  0.00    -0.150 A  
HETATM    6  C   UNL     1      -7.018  15.262  67.912  1.00  0.00    -0.162 A  
HETATM    7  C   UNL     1      -6.908  13.870  67.824  1.00  0.00    -0.184 A  
HETATM    8  C   UNL     1      -8.051  13.063  67.880  1.00  0.00    -0.158 A  
HETATM    9  C   UNL     1      -9.307  13.670  68.042  1.00  0.00    -0.208 A  
ENDROOT
BRANCH   8  10
HETATM   10  C   UNL     1      -7.983  11.614  67.730  1.00  0.00    -0.131 A  
HETATM   11  N   UNL     1      -7.042  10.959  67.034  1.00  0.00    -0.102 NA 
HETATM   12  O   UNL     1      -7.452   9.625  67.108  1.00  0.00    -0.088 OA 
HETATM   13  C   UNL     1      -8.603   9.605  67.843  1.00  0.00    -0.122 A  
HETATM   14  N   UNL     1      -8.962  10.799  68.257  1.00  0.00    -0.137 NA 
BRANCH  13  15
HETATM   15  C   UNL     1      -9.274   8.328  68.040  1.00  0.00    -0.142 A  
HETATM   16  C   UNL     1      -9.103   7.639  69.253  1.00  0.00    -0.145 A  
HETATM   17  C   UNL     1      -9.748   6.421  69.486  1.00  0.00    -0.167 A  
HETATM   18  C   UNL     1     -10.576   5.873  68.509  1.00  0.00    -0.317 A  
HETATM   19  C   UNL     1     -10.755   6.544  67.301  1.00  0.00    -0.427 A  
HETATM   20  C   UNL     1     -10.108   7.759  67.076  1.00  0.00    -0.273 A  
HETATM   21  F   UNL     1     -10.322   8.370  65.900  1.00  0.00    -0.151 F  
ENDBRANCH  13  15
ENDBRANCH   8  10
TORSDOF 2
ENDMDL
MODEL      172
REMARK 921   NORMALIZED FREE ENERGY PREDICTED BY IDOCK:   -3.79 KCAL/MOL
REMARK 922        TOTAL FREE ENERGY PREDICTED BY IDOCK:   -4.60 KCAL/MOL
REMARK 923 INTER-LIGAND FREE ENERGY PREDICTED BY IDOCK:   -4.20 KCAL/MOL
REMARK 924 INTRA-LIGAND FREE ENERGY PREDICTED BY IDOCK:   -0.40 KCAL/MOL
REMARK 927      BINDING AFFINITY PREDICTED BY RF-SCORE:    0.00 PKD
ROOT
HETATM    1  O   UNL     1     -10.700  17.449  68.440  1.00  0.00    -0.358 OA 
HETATM    2  C   UNL     1      -9.522  18.078  68.632  1.00  0.00    -0.309 C  
HETATM    3  C   UNL     1      -8.339  17.235  68.339  1.00  0.00    -0.261 A  
HETATM    4  O   UNL     1      -9.433  19.244  68.971  1.00  0.00    -0.378 OA 
HETATM    5  C   UNL     1      -7.196  17.836  67.803  1.00  0.00    -0.207 A  
HETATM    6  C   UNL     1      -6.074  17.060  67.506  1.00  0.00    -0.163 A  
HETATM    7  C   UNL     1      -6.095  15.680  67.738  1.00  0.00    -0.178 A  
HETATM    8  C   UNL     1      -7.232  15.069  68.283  1.00  0.00    -0.113 A  
HETATM    9  C   UNL     1      -8.343  15.863  68.607  1.00  0.00    -0.195 A  
ENDROOT
BRANCH   8  10
HETATM   10  C   UNL     1      -7.314  13.627  68.482  1.00  0.00    -0.114 A  
HETATM   11  N   UNL     1      -6.290  12.845  68.854  1.00  0.00    -0.084 NA 
HETATM   12  O   UNL     1      -6.833  11.558  68.818  1.00  0.00    -0.070 OA 
HETATM   13  C   UNL     1      -8.135  11.689  68.426  1.00  0.00    -0.153 A  
HETATM   14  N   UNL     1      -8.480  12.940  68.221  1.00  0.00    -0.171 NA 
BRANCH  13  15
HETATM   15  C   UNL     1      -8.931  10.482  68.263  1.00  0.00    -0.139 A  
HETATM   16  C   UNL     1      -9.389   9.797  69.403  1.00  0.00    -0.212 A  
HETATM   17  C   UNL     1     -10.173   8.646  69.285  1.00  0.00    -0.215 A  
HETATM   18  C   UNL     1     -10.513   8.162  68.024  1.00  0.00    -0.242 A  
HETATM   19  C   UNL     1     -10.068   8.829  66.885  1.00  0.00    -0.348 A  
HETATM   20  C   UNL     1      -9.285   9.976  67.010  1.00  0.00    -0.146 A  
HETATM   21  F   UNL     1      -8.890  10.586  65.883  1.00  0.00    -0.146 F  
ENDBRANCH  13  15
ENDBRANCH   8  10
TORSDOF 2
ENDMDL
MODEL      173
REMARK 921   NORMALIZED FREE ENERGY PREDICTED BY IDOCK:   -3.77 KCAL/MOL
REMARK 922        TOTAL FREE ENERGY PREDICTED BY IDOCK:   -4.58 KCAL/MOL
REMARK 923 INTER-LIGAND FREE ENERGY PREDICTED BY IDOCK:   -4.20 KCAL/MOL
REMARK 924 INTRA-LIGAND FREE ENERGY PREDICTED BY IDOCK:   -0.37 KCAL/MOL
REMARK 927      BINDING AFFINITY PREDICTED BY RF-SCORE:    0.00 PKD
ROOT
HETATM    1  O   UNL     1     -10.120   1.892  71.877  1.00  0.00    -0.152 OA 
HETATM    2  C   UNL     1      -9.925   2.844  72.813  1.00  0.00    -0.142 C  
HETATM    3  C   UNL     1     -10.317   4.204  72.373  1.00  0.00    -0.217 A  
HETATM    4  O   UNL     1      -9.509   2.608  73.933  1.00  0.00    -0.083 OA 
HETATM    5  C   UNL     1     -10.848   5.092  73.313  1.00  0.00    -0.356 A  
HETATM    6  C   UNL     1     -11.237   6.374  72.920  1.00  0.00    -0.219 A  
HETATM    7  C   UNL     1     -11.101   6.769  71.585  1.00  0.00    -0.282 A  
HETATM    8  C   UNL     1     -10.561   5.890  70.636  1.00  0.00    -0.334 A  
HETATM    9  C   UNL     1     -10.144   4.614  71.049  1.00  0.00    -0.246 A  
ENDROOT
BRANCH   8  10
HETATM   10  C   UNL     1     -10.459   6.243  69.225  1.00  0.00    -0.244 A  
HETATM   11  N   UNL     1     -10.833   5.451  68.209  1.00  0.00    -0.003 NA 
HETATM   12  O   UNL     1     -10.459   6.178  67.076  1.00  0.00    -0.209 OA 
HETATM   13  C   UNL     1      -9.894   7.339  67.519  1.00  0.00    -0.155 A  
HETATM   14  N   UNL     1      -9.883   7.431  68.830  1.00  0.00    -0.160 NA 
BRANCH  13  15
HETATM   15  C   UNL     1      -9.371   8.274  66.533  1.00  0.00    -0.263 A  
HETATM   16  C   UNL     1     -10.028   9.500  66.329  1.00  0.00    -0.344 A  
HETATM   17  C   UNL     1      -9.543  10.431  65.405  1.00  0.00    -0.303 A  
HETATM   18  C   UNL     1      -8.393  10.149  64.671  1.00  0.00    -0.167 A  
HETATM   19  C   UNL     1      -7.731   8.939  64.863  1.00  0.00    -0.112 A  
HETATM   20  C   UNL     1      -8.221   8.014  65.785  1.00  0.00    -0.132 A  
HETATM   21  F   UNL     1      -7.542   6.868  65.939  1.00  0.00    -0.079 F  
ENDBRANCH  13  15
ENDBRANCH   8  10
TORSDOF 2
ENDMDL
MODEL      174
REMARK 921   NORMALIZED FREE ENERGY PREDICTED BY IDOCK:   -3.75 KCAL/MOL
REMARK 922        TOTAL FREE ENERGY PREDICTED BY IDOCK:   -4.55 KCAL/MOL
REMARK 923 INTER-LIGAND FREE ENERGY PREDICTED BY IDOCK:   -4.33 KCAL/MOL
REMARK 924 INTRA-LIGAND FREE ENERGY PREDICTED BY IDOCK:   -0.23 KCAL/MOL
REMARK 927      BINDING AFFINITY PREDICTED BY RF-SCORE:    0.00 PKD
ROOT
HETATM    1  O   UNL     1     -11.127  19.382  67.321  1.00  0.00    -0.458 OA 
HETATM    2  C   UNL     1      -9.981  20.082  67.194  1.00  0.00    -0.441 C  
HETATM    3  C   UNL     1      -8.825  19.264  66.754  1.00  0.00    -0.344 A  
HETATM    4  O   UNL     1      -9.905  21.284  67.378  1.00  0.00    -0.213 OA 
HETATM    5  C   UNL     1      -7.858  19.848  65.931  1.00  0.00    -0.313 A  
HETATM    6  C   UNL     1      -6.768  19.093  65.493  1.00  0.00    -0.300 A  
HETATM    7  C   UNL     1      -6.646  17.752  65.872  1.00  0.00    -0.271 A  
HETATM    8  C   UNL     1      -7.605  17.160  66.705  1.00  0.00    -0.299 A  
HETATM    9  C   UNL     1      -8.680  17.937  67.165  1.00  0.00    -0.248 A  
ENDROOT
BRANCH   8  10
HETATM   10  C   UNL     1      -7.546  15.750  67.072  1.00  0.00    -0.222 A  
HETATM   11  N   UNL     1      -8.352  14.796  66.583  1.00  0.00    -0.079 NA 
HETATM   12  O   UNL     1      -7.974  13.655  67.295  1.00  0.00    -0.166 OA 
HETATM   13  C   UNL     1      -6.976  14.032  68.146  1.00  0.00    -0.120 A  
HETATM   14  N   UNL     1      -6.669  15.305  68.038  1.00  0.00    -0.130 NA 
BRANCH  13  15
HETATM   15  C   UNL     1      -6.423  13.032  69.048  1.00  0.00    -0.103 A  
HETATM   16  C   UNL     1      -6.366  11.688  68.637  1.00  0.00    -0.055 A  
HETATM   17  C   UNL     1      -5.824  10.703  69.467  1.00  0.00    -0.041 A  
HETATM   18  C   UNL     1      -5.327  11.048  70.722  1.00  0.00    -0.118 A  
HETATM   19  C   UNL     1      -5.375  12.374  71.144  1.00  0.00    -0.115 A  
HETATM   20  C   UNL     1      -5.919  13.352  70.310  1.00  0.00    -0.141 A  
HETATM   21  F   UNL     1      -5.934  14.615  70.759  1.00  0.00    -0.149 F  
ENDBRANCH  13  15
ENDBRANCH   8  10
TORSDOF 2
ENDMDL
MODEL      175
REMARK 921   NORMALIZED FREE ENERGY PREDICTED BY IDOCK:   -3.73 KCAL/MOL
REMARK 922        TOTAL FREE ENERGY PREDICTED BY IDOCK:   -4.53 KCAL/MOL
REMARK 923 INTER-LIGAND FREE ENERGY PREDICTED BY IDOCK:   -4.18 KCAL/MOL
REMARK 924 INTRA-LIGAND FREE ENERGY PREDICTED BY IDOCK:   -0.35 KCAL/MOL
REMARK 927      BINDING AFFINITY PREDICTED BY RF-SCORE:    0.00 PKD
ROOT
HETATM    1  O   UNL     1      -9.595  10.014  62.373  1.00  0.00    -0.263 OA 
HETATM    2  C   UNL     1      -8.531  10.666  62.885  1.00  0.00    -0.180 C  
HETATM    3  C   UNL     1      -7.969  10.032  64.102  1.00  0.00    -0.152 A  
HETATM    4  O   UNL     1      -8.045  11.659  62.376  1.00  0.00    -0.113 OA 
HETATM    5  C   UNL     1      -6.590  10.097  64.322  1.00  0.00    -0.114 A  
HETATM    6  C   UNL     1      -6.036   9.495  65.454  1.00  0.00    -0.066 A  
HETATM    7  C   UNL     1      -6.859   8.823  66.364  1.00  0.00    -0.075 A  
HETATM    8  C   UNL     1      -8.243   8.760  66.157  1.00  0.00    -0.117 A  
HETATM    9  C   UNL     1      -8.793   9.395  65.032  1.00  0.00    -0.234 A  
ENDROOT
BRANCH   8  10
HETATM   10  C   UNL     1      -9.126   8.018  67.050  1.00  0.00    -0.144 A  
HETATM   11  N   UNL     1     -10.026   7.106  66.653  1.00  0.00    -0.191 NA 
HETATM   12  O   UNL     1     -10.676   6.753  67.838  1.00  0.00    -0.218 OA 
HETATM   13  C   UNL     1     -10.104   7.488  68.837  1.00  0.00    -0.192 A  
HETATM   14  N   UNL     1      -9.140   8.269  68.405  1.00  0.00    -0.136 NA 
BRANCH  13  15
HETATM   15  C   UNL     1     -10.629   7.346  70.187  1.00  0.00    -0.240 A  
HETATM   16  C   UNL     1     -10.636   6.077  70.794  1.00  0.00    -0.316 A  
HETATM   17  C   UNL     1     -11.114   5.905  72.097  1.00  0.00    -0.333 A  
HETATM   18  C   UNL     1     -11.591   7.000  72.813  1.00  0.00    -0.144 A  
HETATM   19  C   UNL     1     -11.591   8.263  72.226  1.00  0.00    -0.449 A  
HETATM   20  C   UNL     1     -11.113   8.427  70.926  1.00  0.00    -0.254 A  
HETATM   21  F   UNL     1     -11.126   9.665  70.409  1.00  0.00    -0.250 F  
ENDBRANCH  13  15
ENDBRANCH   8  10
TORSDOF 2
ENDMDL
MODEL      176
REMARK 921   NORMALIZED FREE ENERGY PREDICTED BY IDOCK:   -3.72 KCAL/MOL
REMARK 922        TOTAL FREE ENERGY PREDICTED BY IDOCK:   -4.53 KCAL/MOL
REMARK 923 INTER-LIGAND FREE ENERGY PREDICTED BY IDOCK:   -4.19 KCAL/MOL
REMARK 924 INTRA-LIGAND FREE ENERGY PREDICTED BY IDOCK:   -0.34 KCAL/MOL
REMARK 927      BINDING AFFINITY PREDICTED BY RF-SCORE:    0.00 PKD
ROOT
HETATM    1  O   UNL     1      -7.207   7.459  70.225  1.00  0.00    -0.063 OA 
HETATM    2  C   UNL     1      -8.243   6.758  69.718  1.00  0.00    -0.127 C  
HETATM    3  C   UNL     1      -9.074   7.527  68.762  1.00  0.00    -0.135 A  
HETATM    4  O   UNL     1      -8.455   5.589  69.985  1.00  0.00    -0.115 OA 
HETATM    5  C   UNL     1      -9.660   6.856  67.684  1.00  0.00    -0.143 A  
HETATM    6  C   UNL     1     -10.436   7.561  66.762  1.00  0.00    -0.319 A  
HETATM    7  C   UNL     1     -10.623   8.939  66.912  1.00  0.00    -0.254 A  
HETATM    8  C   UNL     1     -10.048   9.620  67.993  1.00  0.00    -0.213 A  
HETATM    9  C   UNL     1      -9.296   8.896  68.932  1.00  0.00    -0.140 A  
ENDROOT
BRANCH   8  10
HETATM   10  C   UNL     1     -10.169  11.065  68.151  1.00  0.00    -0.182 A  
HETATM   11  N   UNL     1     -11.118  11.680  68.872  1.00  0.00    -0.216 NA 
HETATM   12  O   UNL     1     -10.873  13.036  68.642  1.00  0.00    -0.247 OA 
HETATM   13  C   UNL     1      -9.799  13.107  67.801  1.00  0.00    -0.228 A  
HETATM   14  N   UNL     1      -9.325  11.925  67.483  1.00  0.00    -0.173 NA 
BRANCH  13  15
HETATM   15  C   UNL     1      -9.354  14.421  67.360  1.00  0.00    -0.199 A  
HETATM   16  C   UNL     1     -10.300  15.345  66.882  1.00  0.00    -0.277 A  
HETATM   17  C   UNL     1      -9.912  16.623  66.469  1.00  0.00    -0.296 A  
HETATM   18  C   UNL     1      -8.572  16.997  66.528  1.00  0.00    -0.305 A  
HETATM   19  C   UNL     1      -7.623  16.093  66.999  1.00  0.00    -0.260 A  
HETATM   20  C   UNL     1      -8.017  14.819  67.409  1.00  0.00    -0.197 A  
HETATM   21  F   UNL     1      -7.066  13.989  67.862  1.00  0.00    -0.097 F  
ENDBRANCH  13  15
ENDBRANCH   8  10
TORSDOF 2
ENDMDL
MODEL      177
REMARK 921   NORMALIZED FREE ENERGY PREDICTED BY IDOCK:   -3.72 KCAL/MOL
REMARK 922        TOTAL FREE ENERGY PREDICTED BY IDOCK:   -4.53 KCAL/MOL
REMARK 923 INTER-LIGAND FREE ENERGY PREDICTED BY IDOCK:   -4.15 KCAL/MOL
REMARK 924 INTRA-LIGAND FREE ENERGY PREDICTED BY IDOCK:   -0.37 KCAL/MOL
REMARK 927      BINDING AFFINITY PREDICTED BY RF-SCORE:    0.00 PKD
ROOT
HETATM    1  O   UNL     1     -13.810   9.123  71.064  1.00  0.00    -0.197 OA 
HETATM    2  C   UNL     1     -12.884   8.874  72.013  1.00  0.00    -0.397 C  
HETATM    3  C   UNL     1     -11.578   8.429  71.470  1.00  0.00    -0.338 A  
HETATM    4  O   UNL     1     -13.081   9.038  73.203  1.00  0.00    -0.176 OA 
HETATM    5  C   UNL     1     -10.407   8.805  72.135  1.00  0.00    -0.378 A  
HETATM    6  C   UNL     1      -9.164   8.410  71.635  1.00  0.00    -0.271 A  
HETATM    7  C   UNL     1      -9.089   7.644  70.467  1.00  0.00    -0.151 A  
HETATM    8  C   UNL     1     -10.257   7.255  69.798  1.00  0.00    -0.214 A  
HETATM    9  C   UNL     1     -11.502   7.631  70.326  1.00  0.00    -0.144 A  
ENDROOT
BRANCH   8  10
HETATM   10  C   UNL     1     -10.219   6.510  68.545  1.00  0.00    -0.172 A  
HETATM   11  N   UNL     1     -11.124   6.617  67.562  1.00  0.00    -0.323 NA 
HETATM   12  O   UNL     1     -10.715   5.655  66.635  1.00  0.00    -0.293 OA 
HETATM   13  C   UNL     1      -9.600   5.058  67.152  1.00  0.00    -0.152 A  
HETATM   14  N   UNL     1      -9.250   5.557  68.315  1.00  0.00    -0.108 NA 
BRANCH  13  15
HETATM   15  C   UNL     1      -8.986   3.974  66.399  1.00  0.00    -0.128 A  
HETATM   16  C   UNL     1      -8.397   4.247  65.151  1.00  0.00    -0.114 A  
HETATM   17  C   UNL     1      -7.781   3.235  64.410  1.00  0.00    -0.077 A  
HETATM   18  C   UNL     1      -7.741   1.934  64.906  1.00  0.00    -0.068 A  
HETATM   19  C   UNL     1      -8.320   1.648  66.140  1.00  0.00    -0.091 A  
HETATM   20  C   UNL     1      -8.934   2.662  66.874  1.00  0.00    -0.145 A  
HETATM   21  F   UNL     1      -9.469   2.336  68.061  1.00  0.00    -0.215 F  
ENDBRANCH  13  15
ENDBRANCH   8  10
TORSDOF 2
ENDMDL
MODEL      178
REMARK 921   NORMALIZED FREE ENERGY PREDICTED BY IDOCK:   -3.69 KCAL/MOL
REMARK 922        TOTAL FREE ENERGY PREDICTED BY IDOCK:   -4.49 KCAL/MOL
REMARK 923 INTER-LIGAND FREE ENERGY PREDICTED BY IDOCK:   -4.11 KCAL/MOL
REMARK 924 INTRA-LIGAND FREE ENERGY PREDICTED BY IDOCK:   -0.38 KCAL/MOL
REMARK 927      BINDING AFFINITY PREDICTED BY RF-SCORE:    0.00 PKD
ROOT
HETATM    1  O   UNL     1      -6.732  15.188  67.337  1.00  0.00    -0.207 OA 
HETATM    2  C   UNL     1      -7.869  15.913  67.383  1.00  0.00    -0.168 C  
HETATM    3  C   UNL     1      -9.036  15.163  67.905  1.00  0.00    -0.179 A  
HETATM    4  O   UNL     1      -7.928  17.088  67.068  1.00  0.00    -0.180 OA 
HETATM    5  C   UNL     1      -9.997  15.846  68.657  1.00  0.00    -0.214 A  
HETATM    6  C   UNL     1     -11.098  15.158  69.171  1.00  0.00    -0.263 A  
HETATM    7  C   UNL     1     -11.237  13.786  68.940  1.00  0.00    -0.309 A  
HETATM    8  C   UNL     1     -10.285  13.094  68.180  1.00  0.00    -0.239 A  
HETATM    9  C   UNL     1      -9.198  13.801  67.642  1.00  0.00    -0.207 A  
ENDROOT
BRANCH   8  10
HETATM   10  C   UNL     1     -10.363  11.653  67.969  1.00  0.00    -0.192 A  
HETATM   11  N   UNL     1     -11.485  10.981  67.674  1.00  0.00    -0.509 NA 
HETATM   12  O   UNL     1     -11.073   9.646  67.662  1.00  0.00    -0.214 OA 
HETATM   13  C   UNL     1      -9.738   9.643  67.952  1.00  0.00    -0.146 A  
HETATM   14  N   UNL     1      -9.255  10.850  68.135  1.00  0.00    -0.153 NA 
BRANCH  13  15
HETATM   15  C   UNL     1      -9.056   8.360  68.047  1.00  0.00    -0.140 A  
HETATM   16  C   UNL     1      -8.561   7.933  69.293  1.00  0.00    -0.138 A  
HETATM   17  C   UNL     1      -7.919   6.699  69.427  1.00  0.00    -0.115 A  
HETATM   18  C   UNL     1      -7.763   5.871  68.317  1.00  0.00    -0.101 A  
HETATM   19  C   UNL     1      -8.248   6.280  67.077  1.00  0.00    -0.109 A  
HETATM   20  C   UNL     1      -8.887   7.513  66.950  1.00  0.00    -0.135 A  
HETATM   21  F   UNL     1      -9.344   7.856  65.737  1.00  0.00    -0.193 F  
ENDBRANCH  13  15
ENDBRANCH   8  10
TORSDOF 2
ENDMDL
MODEL      179
REMARK 921   NORMALIZED FREE ENERGY PREDICTED BY IDOCK:   -3.69 KCAL/MOL
REMARK 922        TOTAL FREE ENERGY PREDICTED BY IDOCK:   -4.49 KCAL/MOL
REMARK 923 INTER-LIGAND FREE ENERGY PREDICTED BY IDOCK:   -4.09 KCAL/MOL
REMARK 924 INTRA-LIGAND FREE ENERGY PREDICTED BY IDOCK:   -0.40 KCAL/MOL
REMARK 927      BINDING AFFINITY PREDICTED BY RF-SCORE:    0.00 PKD
ROOT
HETATM    1  O   UNL     1     -10.290  10.093  65.351  1.00  0.00    -0.257 OA 
HETATM    2  C   UNL     1      -9.085   9.837  64.801  1.00  0.00    -0.241 C  
HETATM    3  C   UNL     1      -8.658   8.423  64.926  1.00  0.00    -0.108 A  
HETATM    4  O   UNL     1      -8.424  10.675  64.215  1.00  0.00    -0.156 OA 
HETATM    5  C   UNL     1      -7.903   7.852  63.898  1.00  0.00    -0.141 A  
HETATM    6  C   UNL     1      -7.501   6.517  63.986  1.00  0.00    -0.082 A  
HETATM    7  C   UNL     1      -7.858   5.750  65.100  1.00  0.00    -0.105 A  
HETATM    8  C   UNL     1      -8.607   6.316  66.141  1.00  0.00    -0.143 A  
HETATM    9  C   UNL     1      -8.979   7.667  66.056  1.00  0.00    -0.178 A  
ENDROOT
BRANCH   8  10
HETATM   10  C   UNL     1      -9.050   5.533  67.289  1.00  0.00    -0.110 A  
HETATM   11  N   UNL     1      -9.337   4.224  67.259  1.00  0.00    -0.151 NA 
HETATM   12  O   UNL     1      -9.797   3.961  68.552  1.00  0.00    -0.090 OA 
HETATM   13  C   UNL     1      -9.743   5.141  69.237  1.00  0.00    -0.172 A  
HETATM   14  N   UNL     1      -9.280   6.131  68.509  1.00  0.00    -0.116 NA 
BRANCH  13  15
HETATM   15  C   UNL     1     -10.213   5.161  70.615  1.00  0.00    -0.326 A  
HETATM   16  C   UNL     1      -9.481   4.478  71.603  1.00  0.00    -0.210 A  
HETATM   17  C   UNL     1      -9.890   4.492  72.940  1.00  0.00    -0.185 A  
HETATM   18  C   UNL     1     -11.038   5.190  73.310  1.00  0.00    -0.392 A  
HETATM   19  C   UNL     1     -11.773   5.871  72.342  1.00  0.00    -0.307 A  
HETATM   20  C   UNL     1     -11.360   5.852  71.011  1.00  0.00    -0.151 A  
HETATM   21  F   UNL     1     -12.097   6.531  70.120  1.00  0.00    -0.468 F  
ENDBRANCH  13  15
ENDBRANCH   8  10
TORSDOF 2
ENDMDL
MODEL      180
REMARK 921   NORMALIZED FREE ENERGY PREDICTED BY IDOCK:   -3.67 KCAL/MOL
REMARK 922        TOTAL FREE ENERGY PREDICTED BY IDOCK:   -4.47 KCAL/MOL
REMARK 923 INTER-LIGAND FREE ENERGY PREDICTED BY IDOCK:   -4.39 KCAL/MOL
REMARK 924 INTRA-LIGAND FREE ENERGY PREDICTED BY IDOCK:   -0.08 KCAL/MOL
REMARK 927      BINDING AFFINITY PREDICTED BY RF-SCORE:    0.00 PKD
ROOT
HETATM    1  O   UNL     1      -6.567   9.423  65.474  1.00  0.00    -0.068 OA 
HETATM    2  C   UNL     1      -6.424   8.087  65.347  1.00  0.00    -0.048 C  
HETATM    3  C   UNL     1      -7.495   7.306  66.010  1.00  0.00    -0.080 A  
HETATM    4  O   UNL     1      -5.527   7.566  64.711  1.00  0.00    -0.032 OA 
HETATM    5  C   UNL     1      -7.910   6.102  65.433  1.00  0.00    -0.106 A  
HETATM    6  C   UNL     1      -8.927   5.355  66.031  1.00  0.00    -0.147 A  
HETATM    7  C   UNL     1      -9.535   5.813  67.205  1.00  0.00    -0.121 A  
HETATM    8  C   UNL     1      -9.121   7.014  67.797  1.00  0.00    -0.126 A  
HETATM    9  C   UNL     1      -8.076   7.741  67.204  1.00  0.00    -0.118 A  
ENDROOT
BRANCH   8  10
HETATM   10  C   UNL     1      -9.770   7.555  68.985  1.00  0.00    -0.162 A  
HETATM   11  N   UNL     1      -9.924   6.895  70.142  1.00  0.00    -0.178 NA 
HETATM   12  O   UNL     1     -10.671   7.779  70.925  1.00  0.00    -0.217 OA 
HETATM   13  C   UNL     1     -10.897   8.888  70.161  1.00  0.00    -0.231 A  
HETATM   14  N   UNL     1     -10.353   8.804  68.969  1.00  0.00    -0.211 NA 
BRANCH  13  15
HETATM   15  C   UNL     1     -11.701   9.963  70.726  1.00  0.00    -0.424 A  
HETATM   16  C   UNL     1     -11.610  11.254  70.176  1.00  0.00    -0.393 A  
HETATM   17  C   UNL     1     -12.382  12.306  70.680  1.00  0.00    -0.375 A  
HETATM   18  C   UNL     1     -13.257  12.082  71.740  1.00  0.00    -0.421 A  
HETATM   19  C   UNL     1     -13.358  10.809  72.295  1.00  0.00    -0.149 A  
HETATM   20  C   UNL     1     -12.585   9.764  71.789  1.00  0.00    -0.416 A  
HETATM   21  F   UNL     1     -12.726   8.555  72.352  1.00  0.00    -0.368 F  
ENDBRANCH  13  15
ENDBRANCH   8  10
TORSDOF 2
ENDMDL
MODEL      181
REMARK 921   NORMALIZED FREE ENERGY PREDICTED BY IDOCK:   -3.67 KCAL/MOL
REMARK 922        TOTAL FREE ENERGY PREDICTED BY IDOCK:   -4.46 KCAL/MOL
REMARK 923 INTER-LIGAND FREE ENERGY PREDICTED BY IDOCK:   -4.24 KCAL/MOL
REMARK 924 INTRA-LIGAND FREE ENERGY PREDICTED BY IDOCK:   -0.23 KCAL/MOL
REMARK 927      BINDING AFFINITY PREDICTED BY RF-SCORE:    0.00 PKD
ROOT
HETATM    1  O   UNL     1     -14.034   9.532  72.262  1.00  0.00    -0.371 OA 
HETATM    2  C   UNL     1     -13.255  10.568  71.888  1.00  0.00    -0.420 C  
HETATM    3  C   UNL     1     -12.207  10.203  70.905  1.00  0.00    -0.455 A  
HETATM    4  O   UNL     1     -13.419  11.708  72.283  1.00  0.00    -0.397 OA 
HETATM    5  C   UNL     1     -11.835  11.139  69.935  1.00  0.00    -0.439 A  
HETATM    6  C   UNL     1     -10.860  10.813  68.989  1.00  0.00    -0.278 A  
HETATM    7  C   UNL     1     -10.259   9.550  69.009  1.00  0.00    -0.211 A  
HETATM    8  C   UNL     1     -10.618   8.608  69.982  1.00  0.00    -0.233 A  
HETATM    9  C   UNL     1     -11.577   8.957  70.947  1.00  0.00    -0.331 A  
ENDROOT
BRANCH   8  10
HETATM   10  C   UNL     1     -10.060   7.261  69.998  1.00  0.00    -0.190 A  
HETATM   11  N   UNL     1     -10.717   6.164  70.403  1.00  0.00    -0.261 NA 
HETATM   12  O   UNL     1      -9.751   5.158  70.322  1.00  0.00    -0.171 OA 
HETATM   13  C   UNL     1      -8.602   5.747  69.877  1.00  0.00    -0.127 A  
HETATM   14  N   UNL     1      -8.745   7.033  69.652  1.00  0.00    -0.141 NA 
BRANCH  13  15
HETATM   15  C   UNL     1      -7.410   4.922  69.743  1.00  0.00    -0.056 A  
HETATM   16  C   UNL     1      -7.253   3.797  70.571  1.00  0.00    -0.041 A  
HETATM   17  C   UNL     1      -6.132   2.970  70.457  1.00  0.00    -0.019 A  
HETATM   18  C   UNL     1      -5.150   3.255  69.511  1.00  0.00    -0.007 A  
HETATM   19  C   UNL     1      -5.291   4.366  68.683  1.00  0.00    -0.011 A  
HETATM   20  C   UNL     1      -6.412   5.187  68.803  1.00  0.00    -0.036 A  
HETATM   21  F   UNL     1      -6.505   6.239  67.976  1.00  0.00    -0.042 F  
ENDBRANCH  13  15
ENDBRANCH   8  10
TORSDOF 2
ENDMDL
MODEL      182
REMARK 921   NORMALIZED FREE ENERGY PREDICTED BY IDOCK:   -3.65 KCAL/MOL
REMARK 922        TOTAL FREE ENERGY PREDICTED BY IDOCK:   -4.44 KCAL/MOL
REMARK 923 INTER-LIGAND FREE ENERGY PREDICTED BY IDOCK:   -4.14 KCAL/MOL
REMARK 924 INTRA-LIGAND FREE ENERGY PREDICTED BY IDOCK:   -0.31 KCAL/MOL
REMARK 927      BINDING AFFINITY PREDICTED BY RF-SCORE:    0.00 PKD
ROOT
HETATM    1  O   UNL     1      -8.847   4.214  68.768  1.00  0.00    -0.092 OA 
HETATM    2  C   UNL     1      -7.605   4.729  68.866  1.00  0.00    -0.068 C  
HETATM    3  C   UNL     1      -7.580   6.167  69.224  1.00  0.00    -0.098 A  
HETATM    4  O   UNL     1      -6.592   4.070  68.718  1.00  0.00    -0.042 OA 
HETATM    5  C   UNL     1      -6.537   6.648  70.022  1.00  0.00    -0.048 A  
HETATM    6  C   UNL     1      -6.501   7.996  70.385  1.00  0.00    -0.037 A  
HETATM    7  C   UNL     1      -7.509   8.865  69.956  1.00  0.00    -0.057 A  
HETATM    8  C   UNL     1      -8.554   8.396  69.149  1.00  0.00    -0.134 A  
HETATM    9  C   UNL     1      -8.565   7.045  68.764  1.00  0.00    -0.125 A  
ENDROOT
BRANCH   8  10
HETATM   10  C   UNL     1      -9.656   9.256  68.732  1.00  0.00    -0.154 A  
HETATM   11  N   UNL     1     -10.863   9.291  69.315  1.00  0.00    -0.195 NA 
HETATM   12  O   UNL     1     -11.585  10.182  68.517  1.00  0.00    -0.116 OA 
HETATM   13  C   UNL     1     -10.741  10.597  67.526  1.00  0.00    -0.272 A  
HETATM   14  N   UNL     1      -9.543  10.067  67.624  1.00  0.00    -0.147 NA 
BRANCH  13  15
HETATM   15  C   UNL     1     -11.259  11.508  66.516  1.00  0.00    -0.324 A  
HETATM   16  C   UNL     1     -11.133  11.174  65.156  1.00  0.00    -0.079 A  
HETATM   17  C   UNL     1     -11.635  12.015  64.159  1.00  0.00    -0.460 A  
HETATM   18  C   UNL     1     -12.274  13.203  64.506  1.00  0.00    -0.466 A  
HETATM   19  C   UNL     1     -12.407  13.548  65.849  1.00  0.00    -0.507 A  
HETATM   20  C   UNL     1     -11.902  12.705  66.839  1.00  0.00    -0.355 A  
HETATM   21  F   UNL     1     -12.063  13.078  68.117  1.00  0.00    -0.358 F  
ENDBRANCH  13  15
ENDBRANCH   8  10
TORSDOF 2
ENDMDL
MODEL      183
REMARK 921   NORMALIZED FREE ENERGY PREDICTED BY IDOCK:   -3.58 KCAL/MOL
REMARK 922        TOTAL FREE ENERGY PREDICTED BY IDOCK:   -4.37 KCAL/MOL
REMARK 923 INTER-LIGAND FREE ENERGY PREDICTED BY IDOCK:   -3.99 KCAL/MOL
REMARK 924 INTRA-LIGAND FREE ENERGY PREDICTED BY IDOCK:   -0.37 KCAL/MOL
REMARK 927      BINDING AFFINITY PREDICTED BY RF-SCORE:    0.00 PKD
ROOT
HETATM    1  O   UNL     1      -6.847   7.036  64.294  1.00  0.00    -0.044 OA 
HETATM    2  C   UNL     1      -7.946   7.707  63.893  1.00  0.00    -0.091 C  
HETATM    3  C   UNL     1      -8.605   8.476  64.975  1.00  0.00    -0.162 A  
HETATM    4  O   UNL     1      -8.341   7.720  62.741  1.00  0.00    -0.105 OA 
HETATM    5  C   UNL     1      -9.225   9.689  64.661  1.00  0.00    -0.293 A  
HETATM    6  C   UNL     1      -9.840  10.439  65.666  1.00  0.00    -0.321 A  
HETATM    7  C   UNL     1      -9.831   9.980  66.987  1.00  0.00    -0.238 A  
HETATM    8  C   UNL     1      -9.220   8.762  67.311  1.00  0.00    -0.165 A  
HETATM    9  C   UNL     1      -8.632   8.001  66.288  1.00  0.00    -0.156 A  
ENDROOT
BRANCH   8  10
HETATM   10  C   UNL     1      -9.137   8.279  68.685  1.00  0.00    -0.140 A  
HETATM   11  N   UNL     1      -8.163   8.597  69.551  1.00  0.00    -0.113 NA 
HETATM   12  O   UNL     1      -8.467   7.831  70.679  1.00  0.00    -0.122 OA 
HETATM   13  C   UNL     1      -9.597   7.123  70.383  1.00  0.00    -0.169 A  
HETATM   14  N   UNL     1     -10.052   7.374  69.176  1.00  0.00    -0.184 NA 
BRANCH  13  15
HETATM   15  C   UNL     1     -10.114   6.198  71.381  1.00  0.00    -0.230 A  
HETATM   16  C   UNL     1      -9.672   4.863  71.380  1.00  0.00    -0.237 A  
HETATM   17  C   UNL     1     -10.131   3.953  72.336  1.00  0.00    -0.237 A  
HETATM   18  C   UNL     1     -11.038   4.363  73.310  1.00  0.00    -0.368 A  
HETATM   19  C   UNL     1     -11.485   5.682  73.324  1.00  0.00    -0.059 A  
HETATM   20  C   UNL     1     -11.024   6.586  72.367  1.00  0.00    -0.246 A  
HETATM   21  F   UNL     1     -11.478   7.846  72.429  1.00  0.00    -0.312 F  
ENDBRANCH  13  15
ENDBRANCH   8  10
TORSDOF 2
ENDMDL
MODEL      184
REMARK 921   NORMALIZED FREE ENERGY PREDICTED BY IDOCK:   -3.55 KCAL/MOL
REMARK 922        TOTAL FREE ENERGY PREDICTED BY IDOCK:   -4.34 KCAL/MOL
REMARK 923 INTER-LIGAND FREE ENERGY PREDICTED BY IDOCK:   -4.05 KCAL/MOL
REMARK 924 INTRA-LIGAND FREE ENERGY PREDICTED BY IDOCK:   -0.29 KCAL/MOL
REMARK 927      BINDING AFFINITY PREDICTED BY RF-SCORE:    0.00 PKD
ROOT
HETATM    1  O   UNL     1      -6.220   7.418  66.010  1.00  0.00    -0.039 OA 
HETATM    2  C   UNL     1      -6.775   7.027  67.176  1.00  0.00    -0.060 C  
HETATM    3  C   UNL     1      -8.033   7.737  67.507  1.00  0.00    -0.123 A  
HETATM    4  O   UNL     1      -6.314   6.143  67.875  1.00  0.00    -0.036 OA 
HETATM    5  C   UNL     1      -9.040   7.046  68.187  1.00  0.00    -0.128 A  
HETATM    6  C   UNL     1     -10.240   7.690  68.497  1.00  0.00    -0.220 A  
HETATM    7  C   UNL     1     -10.438   9.023  68.123  1.00  0.00    -0.257 A  
HETATM    8  C   UNL     1      -9.431   9.728  67.449  1.00  0.00    -0.178 A  
HETATM    9  C   UNL     1      -8.217   9.080  67.170  1.00  0.00    -0.110 A  
ENDROOT
BRANCH   8  10
HETATM   10  C   UNL     1      -9.622  11.098  66.988  1.00  0.00    -0.181 A  
HETATM   11  N   UNL     1      -9.796  11.459  65.709  1.00  0.00    -0.223 NA 
HETATM   12  O   UNL     1      -9.839  12.854  65.767  1.00  0.00    -0.264 OA 
HETATM   13  C   UNL     1      -9.684  13.200  67.079  1.00  0.00    -0.241 A  
HETATM   14  N   UNL     1      -9.561  12.157  67.868  1.00  0.00    -0.192 NA 
BRANCH  13  15
HETATM   15  C   UNL     1      -9.647  14.615  67.420  1.00  0.00    -0.215 A  
HETATM   16  C   UNL     1      -8.948  15.507  66.588  1.00  0.00    -0.320 A  
HETATM   17  C   UNL     1      -8.908  16.875  66.873  1.00  0.00    -0.248 A  
HETATM   18  C   UNL     1      -9.567  17.373  67.994  1.00  0.00    -0.276 A  
HETATM   19  C   UNL     1     -10.263  16.501  68.828  1.00  0.00    -0.267 A  
HETATM   20  C   UNL     1     -10.299  15.138  68.539  1.00  0.00    -0.230 A  
HETATM   21  F   UNL     1     -10.991  14.342  69.368  1.00  0.00    -0.240 F  
ENDBRANCH  13  15
ENDBRANCH   8  10
TORSDOF 2
ENDMDL
MODEL      185
REMARK 921   NORMALIZED FREE ENERGY PREDICTED BY IDOCK:   -3.54 KCAL/MOL
REMARK 922        TOTAL FREE ENERGY PREDICTED BY IDOCK:   -4.32 KCAL/MOL
REMARK 923 INTER-LIGAND FREE ENERGY PREDICTED BY IDOCK:   -3.93 KCAL/MOL
REMARK 924 INTRA-LIGAND FREE ENERGY PREDICTED BY IDOCK:   -0.40 KCAL/MOL
REMARK 927      BINDING AFFINITY PREDICTED BY RF-SCORE:    0.00 PKD
ROOT
HETATM    1  O   UNL     1     -10.166   1.979  72.465  1.00  0.00    -0.137 OA 
HETATM    2  C   UNL     1      -9.722   2.958  73.279  1.00  0.00    -0.099 C  
HETATM    3  C   UNL     1     -10.019   4.325  72.789  1.00  0.00    -0.206 A  
HETATM    4  O   UNL     1      -9.167   2.746  74.342  1.00  0.00    -0.080 OA 
HETATM    5  C   UNL     1     -10.294   5.332  73.718  1.00  0.00    -0.278 A  
HETATM    6  C   UNL     1     -10.590   6.624  73.280  1.00  0.00    -0.316 A  
HETATM    7  C   UNL     1     -10.618   6.910  71.911  1.00  0.00    -0.236 A  
HETATM    8  C   UNL     1     -10.335   5.911  70.971  1.00  0.00    -0.281 A  
HETATM    9  C   UNL     1     -10.008   4.623  71.424  1.00  0.00    -0.267 A  
ENDROOT
BRANCH   8  10
HETATM   10  C   UNL     1     -10.414   6.154  69.535  1.00  0.00    -0.254 A  
HETATM   11  N   UNL     1     -11.522   6.533  68.882  1.00  0.00    -0.194 NA 
HETATM   12  O   UNL     1     -11.124   6.544  67.543  1.00  0.00    -0.341 OA 
HETATM   13  C   UNL     1      -9.811   6.168  67.518  1.00  0.00    -0.125 A  
HETATM   14  N   UNL     1      -9.328   5.931  68.717  1.00  0.00    -0.121 NA 
BRANCH  13  15
HETATM   15  C   UNL     1      -9.150   6.053  66.226  1.00  0.00    -0.160 A  
HETATM   16  C   UNL     1      -8.463   7.162  65.701  1.00  0.00    -0.141 A  
HETATM   17  C   UNL     1      -7.799   7.082  64.474  1.00  0.00    -0.118 A  
HETATM   18  C   UNL     1      -7.811   5.891  63.752  1.00  0.00    -0.115 A  
HETATM   19  C   UNL     1      -8.487   4.783  64.259  1.00  0.00    -0.135 A  
HETATM   20  C   UNL     1      -9.148   4.870  65.484  1.00  0.00    -0.153 A  
HETATM   21  F   UNL     1      -9.777   3.773  65.932  1.00  0.00    -0.172 F  
ENDBRANCH  13  15
ENDBRANCH   8  10
TORSDOF 2
ENDMDL
MODEL      186
REMARK 921   NORMALIZED FREE ENERGY PREDICTED BY IDOCK:   -3.51 KCAL/MOL
REMARK 922        TOTAL FREE ENERGY PREDICTED BY IDOCK:   -4.29 KCAL/MOL
REMARK 923 INTER-LIGAND FREE ENERGY PREDICTED BY IDOCK:   -3.90 KCAL/MOL
REMARK 924 INTRA-LIGAND FREE ENERGY PREDICTED BY IDOCK:   -0.39 KCAL/MOL
REMARK 927      BINDING AFFINITY PREDICTED BY RF-SCORE:    0.00 PKD
ROOT
HETATM    1  O   UNL     1      -6.794   7.770  66.432  1.00  0.00    -0.060 OA 
HETATM    2  C   UNL     1      -7.527   8.799  65.961  1.00  0.00    -0.089 C  
HETATM    3  C   UNL     1      -8.460   9.375  66.959  1.00  0.00    -0.127 A  
HETATM    4  O   UNL     1      -7.408   9.248  64.836  1.00  0.00    -0.099 OA 
HETATM    5  C   UNL     1      -8.723  10.748  66.926  1.00  0.00    -0.141 A  
HETATM    6  C   UNL     1      -9.587  11.315  67.865  1.00  0.00    -0.182 A  
HETATM    7  C   UNL     1     -10.185  10.512  68.842  1.00  0.00    -0.223 A  
HETATM    8  C   UNL     1      -9.936   9.134  68.879  1.00  0.00    -0.189 A  
HETATM    9  C   UNL     1      -9.090   8.569  67.911  1.00  0.00    -0.145 A  
ENDROOT
BRANCH   8  10
HETATM   10  C   UNL     1     -10.492   8.275  69.918  1.00  0.00    -0.223 A  
HETATM   11  N   UNL     1     -11.660   8.484  70.541  1.00  0.00    -0.194 NA 
HETATM   12  O   UNL     1     -11.707   7.465  71.496  1.00  0.00    -0.264 OA 
HETATM   13  C   UNL     1     -10.559   6.739  71.356  1.00  0.00    -0.221 A  
HETATM   14  N   UNL     1      -9.788   7.189  70.392  1.00  0.00    -0.176 NA 
BRANCH  13  15
HETATM   15  C   UNL     1     -10.329   5.629  72.268  1.00  0.00    -0.250 A  
HETATM   16  C   UNL     1     -10.300   5.868  73.654  1.00  0.00    -0.257 A  
HETATM   17  C   UNL     1     -10.102   4.823  74.561  1.00  0.00    -0.267 A  
HETATM   18  C   UNL     1      -9.930   3.521  74.097  1.00  0.00    -0.175 A  
HETATM   19  C   UNL     1      -9.956   3.268  72.727  1.00  0.00    -0.215 A  
HETATM   20  C   UNL     1     -10.154   4.315  71.828  1.00  0.00    -0.157 A  
HETATM   21  F   UNL     1     -10.179   4.017  70.520  1.00  0.00    -0.248 F  
ENDBRANCH  13  15
ENDBRANCH   8  10
TORSDOF 2
ENDMDL
MODEL      187
REMARK 921   NORMALIZED FREE ENERGY PREDICTED BY IDOCK:   -3.40 KCAL/MOL
REMARK 922        TOTAL FREE ENERGY PREDICTED BY IDOCK:   -4.17 KCAL/MOL
REMARK 923 INTER-LIGAND FREE ENERGY PREDICTED BY IDOCK:   -4.02 KCAL/MOL
REMARK 924 INTRA-LIGAND FREE ENERGY PREDICTED BY IDOCK:   -0.15 KCAL/MOL
REMARK 927      BINDING AFFINITY PREDICTED BY RF-SCORE:    0.00 PKD
ROOT
HETATM    1  O   UNL     1      -7.017  16.856  68.217  1.00  0.00    -0.160 OA 
HETATM    2  C   UNL     1      -8.136  17.126  67.514  1.00  0.00    -0.184 C  
HETATM    3  C   UNL     1      -9.052  15.968  67.380  1.00  0.00    -0.207 A  
HETATM    4  O   UNL     1      -8.398  18.228  67.067  1.00  0.00    -0.237 OA 
HETATM    5  C   UNL     1     -10.431  16.196  67.357  1.00  0.00    -0.310 A  
HETATM    6  C   UNL     1     -11.314  15.120  67.245  1.00  0.00    -0.305 A  
HETATM    7  C   UNL     1     -10.820  13.814  67.163  1.00  0.00    -0.288 A  
HETATM    8  C   UNL     1      -9.439  13.575  67.176  1.00  0.00    -0.244 A  
HETATM    9  C   UNL     1      -8.560  14.666  67.257  1.00  0.00    -0.231 A  
ENDROOT
BRANCH   8  10
HETATM   10  C   UNL     1      -8.888  12.225  67.153  1.00  0.00    -0.194 A  
HETATM   11  N   UNL     1      -7.600  11.927  66.925  1.00  0.00    -0.129 NA 
HETATM   12  O   UNL     1      -7.586  10.531  66.913  1.00  0.00    -0.103 OA 
HETATM   13  C   UNL     1      -8.870  10.120  67.134  1.00  0.00    -0.132 A  
HETATM   14  N   UNL     1      -9.702  11.123  67.300  1.00  0.00    -0.165 NA 
BRANCH  13  15
HETATM   15  C   UNL     1      -9.149   8.692  67.127  1.00  0.00    -0.156 A  
HETATM   16  C   UNL     1      -8.078   7.779  67.140  1.00  0.00    -0.118 A  
HETATM   17  C   UNL     1      -8.308   6.401  67.154  1.00  0.00    -0.112 A  
HETATM   18  C   UNL     1      -9.612   5.912  67.158  1.00  0.00    -0.136 A  
HETATM   19  C   UNL     1     -10.683   6.803  67.145  1.00  0.00    -0.441 A  
HETATM   20  C   UNL     1     -10.447   8.177  67.130  1.00  0.00    -0.326 A  
HETATM   21  F   UNL     1     -11.512   8.993  67.127  1.00  0.00     0.164 F  
ENDBRANCH  13  15
ENDBRANCH   8  10
TORSDOF 2
ENDMDL
MODEL      188
REMARK 921   NORMALIZED FREE ENERGY PREDICTED BY IDOCK:   -3.32 KCAL/MOL
REMARK 922        TOTAL FREE ENERGY PREDICTED BY IDOCK:   -4.08 KCAL/MOL
REMARK 923 INTER-LIGAND FREE ENERGY PREDICTED BY IDOCK:   -3.70 KCAL/MOL
REMARK 924 INTRA-LIGAND FREE ENERGY PREDICTED BY IDOCK:   -0.38 KCAL/MOL
REMARK 927      BINDING AFFINITY PREDICTED BY RF-SCORE:    0.00 PKD
ROOT
HETATM    1  O   UNL     1      -6.705  12.099  68.972  1.00  0.00    -0.092 OA 
HETATM    2  C   UNL     1      -7.616  12.347  68.008  1.00  0.00    -0.128 C  
HETATM    3  C   UNL     1      -8.937  11.724  68.258  1.00  0.00    -0.180 A  
HETATM    4  O   UNL     1      -7.393  13.053  67.041  1.00  0.00    -0.027 OA 
HETATM    5  C   UNL     1     -10.090  12.393  67.837  1.00  0.00    -0.208 A  
HETATM    6  C   UNL     1     -11.347  11.833  68.074  1.00  0.00    -0.355 A  
HETATM    7  C   UNL     1     -11.454  10.606  68.738  1.00  0.00    -0.330 A  
HETATM    8  C   UNL     1     -10.304   9.924  69.157  1.00  0.00    -0.225 A  
HETATM    9  C   UNL     1      -9.044  10.481  68.886  1.00  0.00    -0.180 A  
ENDROOT
BRANCH   8  10
HETATM   10  C   UNL     1     -10.376   8.674  69.906  1.00  0.00    -0.209 A  
HETATM   11  N   UNL     1     -11.228   8.432  70.912  1.00  0.00    -0.258 NA 
HETATM   12  O   UNL     1     -10.854   7.162  71.358  1.00  0.00    -0.229 OA 
HETATM   13  C   UNL     1      -9.809   6.761  70.575  1.00  0.00    -0.176 A  
HETATM   14  N   UNL     1      -9.488   7.649  69.662  1.00  0.00    -0.157 NA 
BRANCH  13  15
HETATM   15  C   UNL     1      -9.189   5.474  70.857  1.00  0.00    -0.179 A  
HETATM   16  C   UNL     1      -8.299   5.358  71.939  1.00  0.00    -0.123 A  
HETATM   17  C   UNL     1      -7.701   4.134  72.252  1.00  0.00    -0.080 A  
HETATM   18  C   UNL     1      -7.986   3.005  71.487  1.00  0.00    -0.056 A  
HETATM   19  C   UNL     1      -8.866   3.103  70.413  1.00  0.00    -0.149 A  
HETATM   20  C   UNL     1      -9.459   4.328  70.106  1.00  0.00    -0.182 A  
HETATM   21  F   UNL     1     -10.306   4.367  69.066  1.00  0.00    -0.174 F  
ENDBRANCH  13  15
ENDBRANCH   8  10
TORSDOF 2
ENDMDL
MODEL      189
REMARK 921   NORMALIZED FREE ENERGY PREDICTED BY IDOCK:   -3.32 KCAL/MOL
REMARK 922        TOTAL FREE ENERGY PREDICTED BY IDOCK:   -4.08 KCAL/MOL
REMARK 923 INTER-LIGAND FREE ENERGY PREDICTED BY IDOCK:   -3.71 KCAL/MOL
REMARK 924 INTRA-LIGAND FREE ENERGY PREDICTED BY IDOCK:   -0.37 KCAL/MOL
REMARK 927      BINDING AFFINITY PREDICTED BY RF-SCORE:    0.00 PKD
ROOT
HETATM    1  O   UNL     1      -8.995   9.149  63.751  1.00  0.00    -0.140 OA 
HETATM    2  C   UNL     1      -7.823   9.776  63.982  1.00  0.00    -0.141 C  
HETATM    3  C   UNL     1      -7.315   9.606  65.364  1.00  0.00    -0.108 A  
HETATM    4  O   UNL     1      -7.212  10.391  63.127  1.00  0.00    -0.135 OA 
HETATM    5  C   UNL     1      -5.935   9.536  65.573  1.00  0.00    -0.064 A  
HETATM    6  C   UNL     1      -5.433   9.361  66.865  1.00  0.00    -0.043 A  
HETATM    7  C   UNL     1      -6.311   9.250  67.948  1.00  0.00    -0.058 A  
HETATM    8  C   UNL     1      -7.696   9.328  67.751  1.00  0.00    -0.088 A  
HETATM    9  C   UNL     1      -8.188   9.534  66.452  1.00  0.00    -0.115 A  
ENDROOT
BRANCH   8  10
HETATM   10  C   UNL     1      -8.645   9.155  68.845  1.00  0.00    -0.131 A  
HETATM   11  N   UNL     1      -9.482  10.104  69.290  1.00  0.00    -0.208 NA 
HETATM   12  O   UNL     1     -10.105   9.501  70.385  1.00  0.00    -0.235 OA 
HETATM   13  C   UNL     1      -9.581   8.245  70.496  1.00  0.00    -0.167 A  
HETATM   14  N   UNL     1      -8.690   7.982  69.567  1.00  0.00    -0.136 NA 
BRANCH  13  15
HETATM   15  C   UNL     1     -10.029   7.404  71.597  1.00  0.00    -0.193 A  
HETATM   16  C   UNL     1     -10.824   6.277  71.324  1.00  0.00    -0.317 A  
HETATM   17  C   UNL     1     -11.256   5.435  72.354  1.00  0.00    -0.272 A  
HETATM   18  C   UNL     1     -10.898   5.708  73.672  1.00  0.00    -0.261 A  
HETATM   19  C   UNL     1     -10.111   6.821  73.958  1.00  0.00    -0.389 A  
HETATM   20  C   UNL     1      -9.684   7.656  72.927  1.00  0.00    -0.226 A  
HETATM   21  F   UNL     1      -8.921   8.710  73.253  1.00  0.00    -0.287 F  
ENDBRANCH  13  15
ENDBRANCH   8  10
TORSDOF 2
ENDMDL
MODEL      190
REMARK 921   NORMALIZED FREE ENERGY PREDICTED BY IDOCK:   -3.27 KCAL/MOL
REMARK 922        TOTAL FREE ENERGY PREDICTED BY IDOCK:   -4.03 KCAL/MOL
REMARK 923 INTER-LIGAND FREE ENERGY PREDICTED BY IDOCK:   -3.64 KCAL/MOL
REMARK 924 INTRA-LIGAND FREE ENERGY PREDICTED BY IDOCK:   -0.39 KCAL/MOL
REMARK 927      BINDING AFFINITY PREDICTED BY RF-SCORE:    0.00 PKD
ROOT
HETATM    1  O   UNL     1      -6.961  11.601  68.053  1.00  0.00    -0.071 OA 
HETATM    2  C   UNL     1      -8.175  12.028  67.649  1.00  0.00    -0.155 C  
HETATM    3  C   UNL     1      -9.299  11.467  68.435  1.00  0.00    -0.194 A  
HETATM    4  O   UNL     1      -8.337  12.834  66.751  1.00  0.00    -0.113 OA 
HETATM    5  C   UNL     1     -10.430  12.258  68.657  1.00  0.00    -0.228 A  
HETATM    6  C   UNL     1     -11.496  11.756  69.407  1.00  0.00    -0.371 A  
HETATM    7  C   UNL     1     -11.431  10.465  69.941  1.00  0.00    -0.368 A  
HETATM    8  C   UNL     1     -10.305   9.661  69.718  1.00  0.00    -0.266 A  
HETATM    9  C   UNL     1      -9.253  10.164  68.937  1.00  0.00    -0.172 A  
ENDROOT
BRANCH   8  10
HETATM   10  C   UNL     1     -10.173   8.334  70.309  1.00  0.00    -0.196 A  
HETATM   11  N   UNL     1     -11.122   7.387  70.285  1.00  0.00    -0.262 NA 
HETATM   12  O   UNL     1     -10.570   6.354  71.046  1.00  0.00    -0.220 OA 
HETATM   13  C   UNL     1      -9.339   6.779  71.456  1.00  0.00    -0.153 A  
HETATM   14  N   UNL     1      -9.045   7.982  71.018  1.00  0.00    -0.145 NA 
BRANCH  13  15
HETATM   15  C   UNL     1      -8.555   5.901  72.313  1.00  0.00    -0.124 A  
HETATM   16  C   UNL     1      -8.105   4.667  71.809  1.00  0.00    -0.103 A  
HETATM   17  C   UNL     1      -7.333   3.808  72.595  1.00  0.00    -0.058 A  
HETATM   18  C   UNL     1      -6.997   4.169  73.898  1.00  0.00    -0.061 A  
HETATM   19  C   UNL     1      -7.435   5.387  74.411  1.00  0.00    -0.085 A  
HETATM   20  C   UNL     1      -8.205   6.240  73.621  1.00  0.00    -0.113 A  
HETATM   21  F   UNL     1      -8.594   7.406  74.159  1.00  0.00    -0.177 F  
ENDBRANCH  13  15
ENDBRANCH   8  10
TORSDOF 2
ENDMDL
MODEL      191
REMARK 921   NORMALIZED FREE ENERGY PREDICTED BY IDOCK:   -3.26 KCAL/MOL
REMARK 922        TOTAL FREE ENERGY PREDICTED BY IDOCK:   -4.01 KCAL/MOL
REMARK 923 INTER-LIGAND FREE ENERGY PREDICTED BY IDOCK:   -4.01 KCAL/MOL
REMARK 924 INTRA-LIGAND FREE ENERGY PREDICTED BY IDOCK:    0.00 KCAL/MOL
REMARK 927      BINDING AFFINITY PREDICTED BY RF-SCORE:    0.00 PKD
ROOT
HETATM    1  O   UNL     1      -6.393  17.778  67.926  1.00  0.00    -0.171 OA 
HETATM    2  C   UNL     1      -7.514  18.417  67.533  1.00  0.00    -0.219 C  
HETATM    3  C   UNL     1      -8.743  17.598  67.655  1.00  0.00    -0.232 A  
HETATM    4  O   UNL     1      -7.528  19.574  67.154  1.00  0.00    -0.226 OA 
HETATM    5  C   UNL     1      -9.946  18.229  67.985  1.00  0.00    -0.362 A  
HETATM    6  C   UNL     1     -11.115  17.477  68.119  1.00  0.00     0.024 A  
HETATM    7  C   UNL     1     -11.082  16.091  67.929  1.00  0.00    -0.307 A  
HETATM    8  C   UNL     1      -9.883  15.450  67.588  1.00  0.00    -0.220 A  
HETATM    9  C   UNL     1      -8.721  16.220  67.426  1.00  0.00    -0.196 A  
ENDROOT
BRANCH   8  10
HETATM   10  C   UNL     1      -9.796  14.002  67.441  1.00  0.00    -0.240 A  
HETATM   11  N   UNL     1      -9.872  13.123  68.451  1.00  0.00    -0.226 NA 
HETATM   12  O   UNL     1      -9.644  11.892  67.831  1.00  0.00    -0.181 OA 
HETATM   13  C   UNL     1      -9.451  12.149  66.504  1.00  0.00    -0.231 A  
HETATM   14  N   UNL     1      -9.547  13.427  66.214  1.00  0.00    -0.263 NA 
BRANCH  13  15
HETATM   15  C   UNL     1      -9.146  11.032  65.622  1.00  0.00    -0.223 A  
HETATM   16  C   UNL     1      -8.995  11.262  64.243  1.00  0.00     0.103 A  
HETATM   17  C   UNL     1      -8.682  10.217  63.368  1.00  0.00    -0.209 A  
HETATM   18  C   UNL     1      -8.514   8.925  63.860  1.00  0.00    -0.147 A  
HETATM   19  C   UNL     1      -8.660   8.681  65.223  1.00  0.00    -0.206 A  
HETATM   20  C   UNL     1      -8.973   9.727  66.090  1.00  0.00    -0.152 A  
HETATM   21  F   UNL     1      -9.094   9.441  67.395  1.00  0.00    -0.126 F  
ENDBRANCH  13  15
ENDBRANCH   8  10
TORSDOF 2
ENDMDL
MODEL      192
REMARK 921   NORMALIZED FREE ENERGY PREDICTED BY IDOCK:   -3.25 KCAL/MOL
REMARK 922        TOTAL FREE ENERGY PREDICTED BY IDOCK:   -4.00 KCAL/MOL
REMARK 923 INTER-LIGAND FREE ENERGY PREDICTED BY IDOCK:   -3.66 KCAL/MOL
REMARK 924 INTRA-LIGAND FREE ENERGY PREDICTED BY IDOCK:   -0.34 KCAL/MOL
REMARK 927      BINDING AFFINITY PREDICTED BY RF-SCORE:    0.00 PKD
ROOT
HETATM    1  O   UNL     1     -11.851  14.309  69.249  1.00  0.00    -0.291 OA 
HETATM    2  C   UNL     1     -11.651  14.551  67.937  1.00  0.00    -0.344 C  
HETATM    3  C   UNL     1     -11.473  13.325  67.123  1.00  0.00    -0.380 A  
HETATM    4  O   UNL     1     -11.658  15.668  67.453  1.00  0.00    -0.168 OA 
HETATM    5  C   UNL     1     -11.954  13.310  65.810  1.00  0.00    -0.463 A  
HETATM    6  C   UNL     1     -11.811  12.161  65.028  1.00  0.00    -0.357 A  
HETATM    7  C   UNL     1     -11.191  11.025  65.559  1.00  0.00     0.105 A  
HETATM    8  C   UNL     1     -10.697  11.033  66.870  1.00  0.00    -0.325 A  
HETATM    9  C   UNL     1     -10.819  12.203  67.637  1.00  0.00    -0.272 A  
ENDROOT
BRANCH   8  10
HETATM   10  C   UNL     1     -10.101   9.850  67.480  1.00  0.00    -0.197 A  
HETATM   11  N   UNL     1     -10.775   8.743  67.824  1.00  0.00    -0.181 NA 
HETATM   12  O   UNL     1      -9.805   7.949  68.441  1.00  0.00    -0.163 OA 
HETATM   13  C   UNL     1      -8.637   8.656  68.409  1.00  0.00    -0.135 A  
HETATM   14  N   UNL     1      -8.765   9.823  67.818  1.00  0.00    -0.129 NA 
BRANCH  13  15
HETATM   15  C   UNL     1      -7.458   8.071  69.031  1.00  0.00    -0.093 A  
HETATM   16  C   UNL     1      -7.546   7.575  70.344  1.00  0.00    -0.090 A  
HETATM   17  C   UNL     1      -6.440   6.988  70.967  1.00  0.00    -0.044 A  
HETATM   18  C   UNL     1      -5.230   6.887  70.285  1.00  0.00    -0.019 A  
HETATM   19  C   UNL     1      -5.127   7.373  68.984  1.00  0.00    -0.015 A  
HETATM   20  C   UNL     1      -6.234   7.958  68.369  1.00  0.00    -0.048 A  
HETATM   21  F   UNL     1      -6.086   8.403  67.112  1.00  0.00    -0.049 F  
ENDBRANCH  13  15
ENDBRANCH   8  10
TORSDOF 2
ENDMDL
MODEL      193
REMARK 921   NORMALIZED FREE ENERGY PREDICTED BY IDOCK:   -3.20 KCAL/MOL
REMARK 922        TOTAL FREE ENERGY PREDICTED BY IDOCK:   -3.94 KCAL/MOL
REMARK 923 INTER-LIGAND FREE ENERGY PREDICTED BY IDOCK:   -3.59 KCAL/MOL
REMARK 924 INTRA-LIGAND FREE ENERGY PREDICTED BY IDOCK:   -0.36 KCAL/MOL
REMARK 927      BINDING AFFINITY PREDICTED BY RF-SCORE:    0.00 PKD
ROOT
HETATM    1  O   UNL     1     -11.910  14.996  67.535  1.00  0.00    -0.320 OA 
HETATM    2  C   UNL     1     -10.780  15.656  67.862  1.00  0.00    -0.294 C  
HETATM    3  C   UNL     1      -9.561  14.814  67.815  1.00  0.00    -0.209 A  
HETATM    4  O   UNL     1     -10.750  16.844  68.129  1.00  0.00    -0.352 OA 
HETATM    5  C   UNL     1      -8.352  15.396  67.421  1.00  0.00    -0.204 A  
HETATM    6  C   UNL     1      -7.193  14.620  67.355  1.00  0.00    -0.182 A  
HETATM    7  C   UNL     1      -7.242  13.259  67.677  1.00  0.00    -0.165 A  
HETATM    8  C   UNL     1      -8.446  12.668  68.081  1.00  0.00    -0.177 A  
HETATM    9  C   UNL     1      -9.599  13.465  68.174  1.00  0.00    -0.222 A  
ENDROOT
BRANCH   8  10
HETATM   10  C   UNL     1      -8.550  11.242  68.366  1.00  0.00    -0.155 A  
HETATM   11  N   UNL     1      -9.127  10.339  67.559  1.00  0.00    -0.137 NA 
HETATM   12  O   UNL     1      -9.062   9.154  68.295  1.00  0.00    -0.133 OA 
HETATM   13  C   UNL     1      -8.452   9.458  69.479  1.00  0.00    -0.152 A  
HETATM   14  N   UNL     1      -8.108  10.723  69.563  1.00  0.00    -0.053 NA 
BRANCH  13  15
HETATM   15  C   UNL     1      -8.293   8.399  70.465  1.00  0.00    -0.126 A  
HETATM   16  C   UNL     1      -7.000   8.015  70.863  1.00  0.00    -0.045 A  
HETATM   17  C   UNL     1      -6.810   7.016  71.823  1.00  0.00    -0.060 A  
HETATM   18  C   UNL     1      -7.911   6.387  72.401  1.00  0.00    -0.102 A  
HETATM   19  C   UNL     1      -9.197   6.756  72.017  1.00  0.00    -0.143 A  
HETATM   20  C   UNL     1      -9.380   7.753  71.058  1.00  0.00    -0.152 A  
HETATM   21  F   UNL     1     -10.639   8.078  70.730  1.00  0.00    -0.206 F  
ENDBRANCH  13  15
ENDBRANCH   8  10
TORSDOF 2
ENDMDL
MODEL      194
REMARK 921   NORMALIZED FREE ENERGY PREDICTED BY IDOCK:   -3.15 KCAL/MOL
REMARK 922        TOTAL FREE ENERGY PREDICTED BY IDOCK:   -3.89 KCAL/MOL
REMARK 923 INTER-LIGAND FREE ENERGY PREDICTED BY IDOCK:   -3.50 KCAL/MOL
REMARK 924 INTRA-LIGAND FREE ENERGY PREDICTED BY IDOCK:   -0.39 KCAL/MOL
REMARK 927      BINDING AFFINITY PREDICTED BY RF-SCORE:    0.00 PKD
ROOT
HETATM    1  O   UNL     1     -10.400  19.472  69.714  1.00  0.00     0.038 OA 
HETATM    2  C   UNL     1      -9.067  19.617  69.564  1.00  0.00     0.296 C  
HETATM    3  C   UNL     1      -8.538  19.023  68.313  1.00  0.00    -0.366 A  
HETATM    4  O   UNL     1      -8.364  20.216  70.357  1.00  0.00     0.892 OA 
HETATM    5  C   UNL     1      -7.461  19.643  67.673  1.00  0.00    -0.304 A  
HETATM    6  C   UNL     1      -6.954  19.111  66.486  1.00  0.00    -0.222 A  
HETATM    7  C   UNL     1      -7.528  17.961  65.932  1.00  0.00    -0.212 A  
HETATM    8  C   UNL     1      -8.603  17.327  66.570  1.00  0.00    -0.298 A  
HETATM    9  C   UNL     1      -9.084  17.853  67.779  1.00  0.00    -0.258 A  
ENDROOT
BRANCH   8  10
HETATM   10  C   UNL     1      -9.266  16.163  65.993  1.00  0.00    -0.328 A  
HETATM   11  N   UNL     1     -10.190  16.211  65.022  1.00  0.00    -0.506 NA 
HETATM   12  O   UNL     1     -10.584  14.878  64.882  1.00  0.00    -0.414 OA 
HETATM   13  C   UNL     1      -9.859  14.154  65.785  1.00  0.00    -0.271 A  
HETATM   14  N   UNL     1      -9.028  14.896  66.481  1.00  0.00    -0.271 NA 
BRANCH  13  15
HETATM   15  C   UNL     1     -10.107  12.723  65.881  1.00  0.00    -0.286 A  
HETATM   16  C   UNL     1      -9.321  11.834  65.126  1.00  0.00    -0.030 A  
HETATM   17  C   UNL     1      -9.517  10.453  65.209  1.00  0.00    -0.290 A  
HETATM   18  C   UNL     1     -10.502   9.938  66.049  1.00  0.00    -0.112 A  
HETATM   19  C   UNL     1     -11.288  10.805  66.803  1.00  0.00     0.094 A  
HETATM   20  C   UNL     1     -11.088  12.183  66.716  1.00  0.00    -0.300 A  
HETATM   21  F   UNL     1     -11.865  12.975  67.469  1.00  0.00    -0.350 F  
ENDBRANCH  13  15
ENDBRANCH   8  10
TORSDOF 2
ENDMDL
MODEL      195
REMARK 921   NORMALIZED FREE ENERGY PREDICTED BY IDOCK:   -3.14 KCAL/MOL
REMARK 922        TOTAL FREE ENERGY PREDICTED BY IDOCK:   -3.88 KCAL/MOL
REMARK 923 INTER-LIGAND FREE ENERGY PREDICTED BY IDOCK:   -3.81 KCAL/MOL
REMARK 924 INTRA-LIGAND FREE ENERGY PREDICTED BY IDOCK:   -0.08 KCAL/MOL
REMARK 927      BINDING AFFINITY PREDICTED BY RF-SCORE:    0.00 PKD
ROOT
HETATM    1  O   UNL     1      -6.796   7.987  66.484  1.00  0.00    -0.064 OA 
HETATM    2  C   UNL     1      -7.531   9.096  66.260  1.00  0.00    -0.092 C  
HETATM    3  C   UNL     1      -8.486   9.411  67.349  1.00  0.00    -0.125 A  
HETATM    4  O   UNL     1      -7.396   9.802  65.277  1.00  0.00    -0.108 OA 
HETATM    5  C   UNL     1      -8.761  10.750  67.641  1.00  0.00    -0.126 A  
HETATM    6  C   UNL     1      -9.647  11.072  68.672  1.00  0.00    -0.198 A  
HETATM    7  C   UNL     1     -10.254  10.055  69.416  1.00  0.00    -0.239 A  
HETATM    8  C   UNL     1      -9.992   8.709  69.126  1.00  0.00    -0.193 A  
HETATM    9  C   UNL     1      -9.124   8.397  68.068  1.00  0.00    -0.140 A  
ENDROOT
BRANCH   8  10
HETATM   10  C   UNL     1     -10.557   7.623  69.918  1.00  0.00    -0.235 A  
HETATM   11  N   UNL     1     -11.751   7.660  70.528  1.00  0.00    -0.190 NA 
HETATM   12  O   UNL     1     -11.801   6.449  71.221  1.00  0.00    -0.327 OA 
HETATM   13  C   UNL     1     -10.629   5.797  70.962  1.00  0.00    -0.253 A  
HETATM   14  N   UNL     1      -9.840   6.471  70.158  1.00  0.00    -0.166 NA 
BRANCH  13  15
HETATM   15  C   UNL     1     -10.398   4.511  71.604  1.00  0.00    -0.160 A  
HETATM   16  C   UNL     1      -9.417   3.647  71.085  1.00  0.00    -0.234 A  
HETATM   17  C   UNL     1      -9.153   2.413  71.687  1.00  0.00    -0.153 A  
HETATM   18  C   UNL     1      -9.866   2.024  72.819  1.00  0.00    -0.171 A  
HETATM   19  C   UNL     1     -10.841   2.868  73.344  1.00  0.00    -0.300 A  
HETATM   20  C   UNL     1     -11.100   4.098  72.739  1.00  0.00     0.044 A  
HETATM   21  F   UNL     1     -12.042   4.878  73.289  1.00  0.00    -0.374 F  
ENDBRANCH  13  15
ENDBRANCH   8  10
TORSDOF 2
ENDMDL
MODEL      196
REMARK 921   NORMALIZED FREE ENERGY PREDICTED BY IDOCK:   -3.14 KCAL/MOL
REMARK 922        TOTAL FREE ENERGY PREDICTED BY IDOCK:   -3.87 KCAL/MOL
REMARK 923 INTER-LIGAND FREE ENERGY PREDICTED BY IDOCK:   -3.48 KCAL/MOL
REMARK 924 INTRA-LIGAND FREE ENERGY PREDICTED BY IDOCK:   -0.40 KCAL/MOL
REMARK 927      BINDING AFFINITY PREDICTED BY RF-SCORE:    0.00 PKD
ROOT
HETATM    1  O   UNL     1      -6.398  11.653  68.351  1.00  0.00    -0.049 OA 
HETATM    2  C   UNL     1      -6.189  11.464  67.032  1.00  0.00    -0.123 C  
HETATM    3  C   UNL     1      -7.230  10.641  66.373  1.00  0.00    -0.134 A  
HETATM    4  O   UNL     1      -5.257  11.958  66.423  1.00  0.00    -0.332 OA 
HETATM    5  C   UNL     1      -7.577  10.923  65.048  1.00  0.00     0.286 A  
HETATM    6  C   UNL     1      -8.566  10.170  64.411  1.00  0.00    -0.199 A  
HETATM    7  C   UNL     1      -9.214   9.138  65.098  1.00  0.00    -0.218 A  
HETATM    8  C   UNL     1      -8.867   8.841  66.423  1.00  0.00    -0.175 A  
HETATM    9  C   UNL     1      -7.851   9.584  67.044  1.00  0.00    -0.098 A  
ENDROOT
BRANCH   8  10
HETATM   10  C   UNL     1      -9.561   7.815  67.193  1.00  0.00    -0.170 A  
HETATM   11  N   UNL     1     -10.816   7.402  66.963  1.00  0.00    -0.332 NA 
HETATM   12  O   UNL     1     -11.056   6.496  67.999  1.00  0.00    -0.289 OA 
HETATM   13  C   UNL     1      -9.920   6.451  68.756  1.00  0.00    -0.147 A  
HETATM   14  N   UNL     1      -8.970   7.233  68.294  1.00  0.00    -0.126 NA 
BRANCH  13  15
HETATM   15  C   UNL     1      -9.913   5.606  69.941  1.00  0.00    -0.268 A  
HETATM   16  C   UNL     1     -10.803   5.887  70.993  1.00  0.00    -0.339 A  
HETATM   17  C   UNL     1     -10.838   5.085  72.138  1.00  0.00    -0.179 A  
HETATM   18  C   UNL     1      -9.985   3.990  72.248  1.00  0.00    -0.236 A  
HETATM   19  C   UNL     1      -9.098   3.699  71.214  1.00  0.00    -0.180 A  
HETATM   20  C   UNL     1      -9.067   4.503  70.075  1.00  0.00    -0.102 A  
HETATM   21  F   UNL     1      -8.201   4.175  69.104  1.00  0.00    -0.068 F  
ENDBRANCH  13  15
ENDBRANCH   8  10
TORSDOF 2
ENDMDL
MODEL      197
REMARK 921   NORMALIZED FREE ENERGY PREDICTED BY IDOCK:   -3.12 KCAL/MOL
REMARK 922        TOTAL FREE ENERGY PREDICTED BY IDOCK:   -3.85 KCAL/MOL
REMARK 923 INTER-LIGAND FREE ENERGY PREDICTED BY IDOCK:   -3.46 KCAL/MOL
REMARK 924 INTRA-LIGAND FREE ENERGY PREDICTED BY IDOCK:   -0.40 KCAL/MOL
REMARK 927      BINDING AFFINITY PREDICTED BY RF-SCORE:    0.00 PKD
ROOT
HETATM    1  O   UNL     1     -10.401  10.196  65.749  1.00  0.00    -0.234 OA 
HETATM    2  C   UNL     1      -9.359   9.874  64.954  1.00  0.00    -0.268 C  
HETATM    3  C   UNL     1      -8.638   8.651  65.379  1.00  0.00    -0.206 A  
HETATM    4  O   UNL     1      -9.061  10.501  63.954  1.00  0.00    -0.198 OA 
HETATM    5  C   UNL     1      -8.084   7.819  64.402  1.00  0.00    -0.091 A  
HETATM    6  C   UNL     1      -7.412   6.654  64.777  1.00  0.00    -0.095 A  
HETATM    7  C   UNL     1      -7.299   6.315  66.129  1.00  0.00    -0.080 A  
HETATM    8  C   UNL     1      -7.843   7.146  67.117  1.00  0.00    -0.110 A  
HETATM    9  C   UNL     1      -8.489   8.331  66.731  1.00  0.00    -0.122 A  
ENDROOT
BRANCH   8  10
HETATM   10  C   UNL     1      -7.798   6.797  68.533  1.00  0.00    -0.118 A  
HETATM   11  N   UNL     1      -6.793   6.140  69.129  1.00  0.00    -0.060 NA 
HETATM   12  O   UNL     1      -7.248   5.966  70.438  1.00  0.00    -0.068 OA 
HETATM   13  C   UNL     1      -8.488   6.534  70.504  1.00  0.00    -0.138 A  
HETATM   14  N   UNL     1      -8.863   7.069  69.364  1.00  0.00    -0.136 NA 
BRANCH  13  15
HETATM   15  C   UNL     1      -9.218   6.454  71.761  1.00  0.00    -0.143 A  
HETATM   16  C   UNL     1      -9.790   5.230  72.150  1.00  0.00    -0.216 A  
HETATM   17  C   UNL     1     -10.481   5.111  73.360  1.00  0.00    -0.275 A  
HETATM   18  C   UNL     1     -10.608   6.214  74.201  1.00  0.00    -0.141 A  
HETATM   19  C   UNL     1     -10.046   7.433  73.830  1.00  0.00    -0.329 A  
HETATM   20  C   UNL     1      -9.359   7.546  72.621  1.00  0.00    -0.159 A  
HETATM   21  F   UNL     1      -8.829   8.739  72.314  1.00  0.00    -0.271 F  
ENDBRANCH  13  15
ENDBRANCH   8  10
TORSDOF 2
ENDMDL
MODEL      198
REMARK 921   NORMALIZED FREE ENERGY PREDICTED BY IDOCK:   -3.05 KCAL/MOL
REMARK 922        TOTAL FREE ENERGY PREDICTED BY IDOCK:   -3.77 KCAL/MOL
REMARK 923 INTER-LIGAND FREE ENERGY PREDICTED BY IDOCK:   -3.41 KCAL/MOL
REMARK 924 INTRA-LIGAND FREE ENERGY PREDICTED BY IDOCK:   -0.37 KCAL/MOL
REMARK 927      BINDING AFFINITY PREDICTED BY RF-SCORE:    0.00 PKD
ROOT
HETATM    1  O   UNL     1     -11.921  14.956  67.547  1.00  0.00    -0.314 OA 
HETATM    2  C   UNL     1     -10.830  15.668  67.899  1.00  0.00    -0.306 C  
HETATM    3  C   UNL     1      -9.569  14.891  67.855  1.00  0.00    -0.205 A  
HETATM    4  O   UNL     1     -10.865  16.851  68.186  1.00  0.00    -0.362 OA 
HETATM    5  C   UNL     1      -8.387  15.540  67.487  1.00  0.00    -0.190 A  
HETATM    6  C   UNL     1      -7.189  14.826  67.424  1.00  0.00    -0.202 A  
HETATM    7  C   UNL     1      -7.171  13.459  67.723  1.00  0.00    -0.156 A  
HETATM    8  C   UNL     1      -8.348  12.800  68.101  1.00  0.00    -0.172 A  
HETATM    9  C   UNL     1      -9.542  13.535  68.191  1.00  0.00    -0.215 A  
ENDROOT
BRANCH   8  10
HETATM   10  C   UNL     1      -8.383  11.366  68.361  1.00  0.00    -0.153 A  
HETATM   11  N   UNL     1      -8.320  10.805  69.577  1.00  0.00    -0.011 NA 
HETATM   12  O   UNL     1      -8.294   9.436  69.305  1.00  0.00    -0.118 OA 
HETATM   13  C   UNL     1      -8.342   9.302  67.946  1.00  0.00    -0.116 A  
HETATM   14  N   UNL     1      -8.411  10.457  67.325  1.00  0.00    -0.121 NA 
BRANCH  13  15
HETATM   15  C   UNL     1      -8.284   7.962  67.382  1.00  0.00    -0.123 A  
HETATM   16  C   UNL     1      -9.394   7.460  66.679  1.00  0.00    -0.215 A  
HETATM   17  C   UNL     1      -9.366   6.185  66.106  1.00  0.00    -0.128 A  
HETATM   18  C   UNL     1      -8.227   5.393  66.225  1.00  0.00    -0.110 A  
HETATM   19  C   UNL     1      -7.119   5.876  66.918  1.00  0.00    -0.070 A  
HETATM   20  C   UNL     1      -7.154   7.148  67.488  1.00  0.00    -0.088 A  
HETATM   21  F   UNL     1      -6.058   7.570  68.137  1.00  0.00    -0.030 F  
ENDBRANCH  13  15
ENDBRANCH   8  10
TORSDOF 2
ENDMDL
MODEL      199
REMARK 921   NORMALIZED FREE ENERGY PREDICTED BY IDOCK:   -3.04 KCAL/MOL
REMARK 922        TOTAL FREE ENERGY PREDICTED BY IDOCK:   -3.76 KCAL/MOL
REMARK 923 INTER-LIGAND FREE ENERGY PREDICTED BY IDOCK:   -3.36 KCAL/MOL
REMARK 924 INTRA-LIGAND FREE ENERGY PREDICTED BY IDOCK:   -0.40 KCAL/MOL
REMARK 927      BINDING AFFINITY PREDICTED BY RF-SCORE:    0.00 PKD
ROOT
HETATM    1  O   UNL     1      -8.931   4.276  64.575  1.00  0.00    -0.135 OA 
HETATM    2  C   UNL     1      -7.635   3.934  64.724  1.00  0.00    -0.077 C  
HETATM    3  C   UNL     1      -7.220   3.762  66.137  1.00  0.00    -0.064 A  
HETATM    4  O   UNL     1      -6.880   3.739  63.789  1.00  0.00    -0.042 OA 
HETATM    5  C   UNL     1      -6.261   2.794  66.448  1.00  0.00    -0.024 A  
HETATM    6  C   UNL     1      -5.865   2.605  67.773  1.00  0.00    -0.020 A  
HETATM    7  C   UNL     1      -6.432   3.378  68.792  1.00  0.00    -0.033 A  
HETATM    8  C   UNL     1      -7.388   4.358  68.490  1.00  0.00    -0.060 A  
HETATM    9  C   UNL     1      -7.756   4.561  67.151  1.00  0.00    -0.090 A  
ENDROOT
BRANCH   8  10
HETATM   10  C   UNL     1      -8.046   5.141  69.529  1.00  0.00    -0.083 A  
HETATM   11  N   UNL     1      -7.943   4.909  70.846  1.00  0.00    -0.082 NA 
HETATM   12  O   UNL     1      -8.811   5.847  71.411  1.00  0.00    -0.135 OA 
HETATM   13  C   UNL     1      -9.355   6.555  70.378  1.00  0.00    -0.162 A  
HETATM   14  N   UNL     1      -8.907   6.168  69.205  1.00  0.00    -0.124 NA 
BRANCH  13  15
HETATM   15  C   UNL     1     -10.339   7.581  70.688  1.00  0.00    -0.211 A  
HETATM   16  C   UNL     1     -10.001   8.936  70.517  1.00  0.00    -0.243 A  
HETATM   17  C   UNL     1     -10.928   9.948  70.785  1.00  0.00    -0.407 A  
HETATM   18  C   UNL     1     -12.208   9.621  71.226  1.00  0.00    -0.452 A  
HETATM   19  C   UNL     1     -12.558   8.284  71.400  1.00  0.00    -0.295 A  
HETATM   20  C   UNL     1     -11.628   7.279  71.132  1.00  0.00    -0.293 A  
HETATM   21  F   UNL     1     -12.017   6.008  71.307  1.00  0.00    -0.327 F  
ENDBRANCH  13  15
ENDBRANCH   8  10
TORSDOF 2
ENDMDL
MODEL      200
REMARK 921   NORMALIZED FREE ENERGY PREDICTED BY IDOCK:   -2.82 KCAL/MOL
REMARK 922        TOTAL FREE ENERGY PREDICTED BY IDOCK:   -3.52 KCAL/MOL
REMARK 923 INTER-LIGAND FREE ENERGY PREDICTED BY IDOCK:   -3.32 KCAL/MOL
REMARK 924 INTRA-LIGAND FREE ENERGY PREDICTED BY IDOCK:   -0.20 KCAL/MOL
REMARK 927      BINDING AFFINITY PREDICTED BY RF-SCORE:    0.00 PKD
ROOT
HETATM    1  O   UNL     1     -10.081   7.268  66.801  1.00  0.00    -0.224 OA 
HETATM    2  C   UNL     1      -8.904   7.016  66.191  1.00  0.00    -0.147 C  
HETATM    3  C   UNL     1      -7.804   7.913  66.620  1.00  0.00    -0.102 A  
HETATM    4  O   UNL     1      -8.742   6.110  65.394  1.00  0.00    -0.141 OA 
HETATM    5  C   UNL     1      -6.503   7.406  66.680  1.00  0.00    -0.052 A  
HETATM    6  C   UNL     1      -5.453   8.227  67.095  1.00  0.00    -0.037 A  
HETATM    7  C   UNL     1      -5.703   9.556  67.455  1.00  0.00    -0.041 A  
HETATM    8  C   UNL     1      -7.002  10.077  67.389  1.00  0.00    -0.083 A  
HETATM    9  C   UNL     1      -8.045   9.251  66.941  1.00  0.00    -0.108 A  
ENDROOT
BRANCH   8  10
HETATM   10  C   UNL     1      -7.312  11.437  67.813  1.00  0.00    -0.098 A  
HETATM   11  N   UNL     1      -6.462  12.253  68.453  1.00  0.00    -0.053 NA 
HETATM   12  O   UNL     1      -7.236  13.385  68.722  1.00  0.00    -0.101 OA 
HETATM   13  C   UNL     1      -8.481  13.141  68.217  1.00  0.00    -0.161 A  
HETATM   14  N   UNL     1      -8.573  11.965  67.639  1.00  0.00    -0.149 NA 
BRANCH  13  15
HETATM   15  C   UNL     1      -9.511  14.153  68.401  1.00  0.00    -0.214 A  
HETATM   16  C   UNL     1      -9.280  15.219  69.289  1.00  0.00    -0.233 A  
HETATM   17  C   UNL     1     -10.238  16.220  69.476  1.00  0.00    -0.251 A  
HETATM   18  C   UNL     1     -11.441  16.172  68.776  1.00  0.00    -0.340 A  
HETATM   19  C   UNL     1     -11.684  15.123  67.892  1.00  0.00    -0.275 A  
HETATM   20  C   UNL     1     -10.725  14.126  67.711  1.00  0.00    -0.247 A  
HETATM   21  F   UNL     1     -11.004  13.143  66.843  1.00  0.00    -0.263 F  
ENDBRANCH  13  15
ENDBRANCH   8  10
TORSDOF 2
ENDMDL
MODEL      201
REMARK 921   NORMALIZED FREE ENERGY PREDICTED BY IDOCK:   -2.75 KCAL/MOL
REMARK 922        TOTAL FREE ENERGY PREDICTED BY IDOCK:   -3.44 KCAL/MOL
REMARK 923 INTER-LIGAND FREE ENERGY PREDICTED BY IDOCK:   -3.25 KCAL/MOL
REMARK 924 INTRA-LIGAND FREE ENERGY PREDICTED BY IDOCK:   -0.19 KCAL/MOL
REMARK 927      BINDING AFFINITY PREDICTED BY RF-SCORE:    0.00 PKD
ROOT
HETATM    1  O   UNL     1     -10.553  18.900  70.649  1.00  0.00     1.384 OA 
HETATM    2  C   UNL     1      -9.999  19.464  69.556  1.00  0.00    -0.012 C  
HETATM    3  C   UNL     1     -10.039  18.600  68.352  1.00  0.00    -0.426 A  
HETATM    4  O   UNL     1      -9.546  20.593  69.542  1.00  0.00     0.739 OA 
HETATM    5  C   UNL     1     -10.195  19.196  67.097  1.00  0.00    -0.489 A  
HETATM    6  C   UNL     1     -10.249  18.402  65.950  1.00  0.00    -0.250 A  
HETATM    7  C   UNL     1     -10.155  17.010  66.056  1.00  0.00    -0.318 A  
HETATM    8  C   UNL     1      -9.990  16.403  67.307  1.00  0.00    -0.258 A  
HETATM    9  C   UNL     1      -9.905  17.213  68.451  1.00  0.00    -0.296 A  
ENDROOT
BRANCH   8  10
HETATM   10  C   UNL     1      -9.949  14.954  67.465  1.00  0.00    -0.219 A  
HETATM   11  N   UNL     1      -9.418  14.101  66.576  1.00  0.00    -0.287 NA 
HETATM   12  O   UNL     1      -9.700  12.846  67.121  1.00  0.00    -0.212 OA 
HETATM   13  C   UNL     1     -10.375  13.064  68.287  1.00  0.00    -0.252 A  
HETATM   14  N   UNL     1     -10.541  14.341  68.548  1.00  0.00    -0.250 NA 
BRANCH  13  15
HETATM   15  C   UNL     1     -10.833  11.909  69.046  1.00  0.00    -0.235 A  
HETATM   16  C   UNL     1     -10.342  10.631  68.721  1.00  0.00    -0.210 A  
HETATM   17  C   UNL     1     -10.744   9.502  69.441  1.00  0.00    -0.244 A  
HETATM   18  C   UNL     1     -11.642   9.633  70.498  1.00  0.00    -0.341 A  
HETATM   19  C   UNL     1     -12.136  10.891  70.832  1.00  0.00    -0.455 A  
HETATM   20  C   UNL     1     -11.732  12.014  70.109  1.00  0.00    -0.233 A  
HETATM   21  F   UNL     1     -12.231  13.204  70.476  1.00  0.00    -0.390 F  
ENDBRANCH  13  15
ENDBRANCH   8  10
TORSDOF 2
ENDMDL
MODEL      202
REMARK 921   NORMALIZED FREE ENERGY PREDICTED BY IDOCK:   -2.72 KCAL/MOL
REMARK 922        TOTAL FREE ENERGY PREDICTED BY IDOCK:   -3.41 KCAL/MOL
REMARK 923 INTER-LIGAND FREE ENERGY PREDICTED BY IDOCK:   -3.04 KCAL/MOL
REMARK 924 INTRA-LIGAND FREE ENERGY PREDICTED BY IDOCK:   -0.37 KCAL/MOL
REMARK 927      BINDING AFFINITY PREDICTED BY RF-SCORE:    0.00 PKD
ROOT
HETATM    1  O   UNL     1      -9.657  10.043  63.093  1.00  0.00    -0.268 OA 
HETATM    2  C   UNL     1      -8.442  10.620  63.197  1.00  0.00    -0.137 C  
HETATM    3  C   UNL     1      -7.650  10.142  64.356  1.00  0.00    -0.130 A  
HETATM    4  O   UNL     1      -8.012  11.427  62.393  1.00  0.00    -0.093 OA 
HETATM    5  C   UNL     1      -6.261  10.049  64.232  1.00  0.00    -0.132 A  
HETATM    6  C   UNL     1      -5.494   9.588  65.305  1.00  0.00    -0.045 A  
HETATM    7  C   UNL     1      -6.117   9.213  66.500  1.00  0.00    -0.064 A  
HETATM    8  C   UNL     1      -7.508   9.311  66.638  1.00  0.00    -0.093 A  
HETATM    9  C   UNL     1      -8.265   9.805  65.564  1.00  0.00    -0.129 A  
ENDROOT
BRANCH   8  10
HETATM   10  C   UNL     1      -8.199   8.873  67.845  1.00  0.00    -0.110 A  
HETATM   11  N   UNL     1      -8.977   9.653  68.608  1.00  0.00    -0.127 NA 
HETATM   12  O   UNL     1      -9.326   8.822  69.675  1.00  0.00    -0.154 OA 
HETATM   13  C   UNL     1      -8.722   7.618  69.452  1.00  0.00    -0.136 A  
HETATM   14  N   UNL     1      -8.030   7.596  68.336  1.00  0.00    -0.121 NA 
BRANCH  13  15
HETATM   15  C   UNL     1      -8.886   6.568  70.447  1.00  0.00    -0.151 A  
HETATM   16  C   UNL     1      -7.891   6.381  71.424  1.00  0.00    -0.104 A  
HETATM   17  C   UNL     1      -8.024   5.397  72.407  1.00  0.00    -0.103 A  
HETATM   18  C   UNL     1      -9.155   4.584  72.430  1.00  0.00    -0.144 A  
HETATM   19  C   UNL     1     -10.149   4.757  71.470  1.00  0.00    -0.260 A  
HETATM   20  C   UNL     1     -10.010   5.740  70.491  1.00  0.00    -0.195 A  
HETATM   21  F   UNL     1     -10.999   5.872  69.595  1.00  0.00    -0.341 F  
ENDBRANCH  13  15
ENDBRANCH   8  10
TORSDOF 2
ENDMDL
MODEL      203
REMARK 921   NORMALIZED FREE ENERGY PREDICTED BY IDOCK:   -2.60 KCAL/MOL
REMARK 922        TOTAL FREE ENERGY PREDICTED BY IDOCK:   -3.28 KCAL/MOL
REMARK 923 INTER-LIGAND FREE ENERGY PREDICTED BY IDOCK:   -2.97 KCAL/MOL
REMARK 924 INTRA-LIGAND FREE ENERGY PREDICTED BY IDOCK:   -0.31 KCAL/MOL
REMARK 927      BINDING AFFINITY PREDICTED BY RF-SCORE:    0.00 PKD
ROOT
HETATM    1  O   UNL     1      -5.663   9.762  67.574  1.00  0.00    -0.040 OA 
HETATM    2  C   UNL     1      -6.557  10.035  66.602  1.00  0.00    -0.073 C  
HETATM    3  C   UNL     1      -7.900   9.456  66.845  1.00  0.00    -0.105 A  
HETATM    4  O   UNL     1      -6.305  10.729  65.633  1.00  0.00    -0.122 OA 
HETATM    5  C   UNL     1      -9.028  10.160  66.412  1.00  0.00    -0.163 A  
HETATM    6  C   UNL     1     -10.304   9.641  66.642  1.00  0.00    -0.279 A  
HETATM    7  C   UNL     1     -10.455   8.422  67.311  1.00  0.00    -0.373 A  
HETATM    8  C   UNL     1      -9.331   7.705  67.741  1.00  0.00    -0.153 A  
HETATM    9  C   UNL     1      -8.052   8.220  67.477  1.00  0.00    -0.122 A  
ENDROOT
BRANCH   8  10
HETATM   10  C   UNL     1      -9.448   6.461  68.495  1.00  0.00    -0.120 A  
HETATM   11  N   UNL     1     -10.165   5.396  68.108  1.00  0.00    -0.177 NA 
HETATM   12  O   UNL     1     -10.043   4.513  69.184  1.00  0.00    -0.154 OA 
HETATM   13  C   UNL     1      -9.264   5.134  70.118  1.00  0.00    -0.142 A  
HETATM   14  N   UNL     1      -8.864   6.326  69.735  1.00  0.00    -0.139 NA 
BRANCH  13  15
HETATM   15  C   UNL     1      -9.010   4.444  71.374  1.00  0.00    -0.164 A  
HETATM   16  C   UNL     1     -10.042   3.700  71.973  1.00  0.00    -0.199 A  
HETATM   17  C   UNL     1      -9.829   3.008  73.169  1.00  0.00    -0.173 A  
HETATM   18  C   UNL     1      -8.580   3.048  73.784  1.00  0.00    -0.073 A  
HETATM   19  C   UNL     1      -7.548   3.780  73.203  1.00  0.00    -0.073 A  
HETATM   20  C   UNL     1      -7.767   4.469  72.010  1.00  0.00    -0.089 A  
HETATM   21  F   UNL     1      -6.738   5.153  71.487  1.00  0.00    -0.042 F  
ENDBRANCH  13  15
ENDBRANCH   8  10
TORSDOF 2
ENDMDL
MODEL      204
REMARK 921   NORMALIZED FREE ENERGY PREDICTED BY IDOCK:   -2.37 KCAL/MOL
REMARK 922        TOTAL FREE ENERGY PREDICTED BY IDOCK:   -3.01 KCAL/MOL
REMARK 923 INTER-LIGAND FREE ENERGY PREDICTED BY IDOCK:   -2.87 KCAL/MOL
REMARK 924 INTRA-LIGAND FREE ENERGY PREDICTED BY IDOCK:   -0.14 KCAL/MOL
REMARK 927      BINDING AFFINITY PREDICTED BY RF-SCORE:    0.00 PKD
ROOT
HETATM    1  O   UNL     1      -5.819  11.071  70.983  1.00  0.00    -0.325 OA 
HETATM    2  C   UNL     1      -6.862  10.412  70.437  1.00  0.00    -0.065 C  
HETATM    3  C   UNL     1      -7.337  10.998  69.161  1.00  0.00    -0.121 A  
HETATM    4  O   UNL     1      -7.345   9.404  70.919  1.00  0.00    -0.179 OA 
HETATM    5  C   UNL     1      -7.836  10.147  68.170  1.00  0.00    -0.096 A  
HETATM    6  C   UNL     1      -8.276  10.674  66.954  1.00  0.00    -0.123 A  
HETATM    7  C   UNL     1      -8.212  12.052  66.724  1.00  0.00    -0.110 A  
HETATM    8  C   UNL     1      -7.723  12.915  67.713  1.00  0.00    -0.151 A  
HETATM    9  C   UNL     1      -7.312  12.378  68.943  1.00  0.00    -0.031 A  
ENDROOT
BRANCH   8  10
HETATM   10  C   UNL     1      -7.584  14.349  67.488  1.00  0.00    -0.193 A  
HETATM   11  N   UNL     1      -7.941  14.987  66.364  1.00  0.00     0.389 NA 
HETATM   12  O   UNL     1      -7.533  16.303  66.592  1.00  0.00    -0.234 OA 
HETATM   13  C   UNL     1      -6.967  16.332  67.835  1.00  0.00    -0.138 A  
HETATM   14  N   UNL     1      -6.986  15.160  68.429  1.00  0.00    -0.103 NA 
BRANCH  13  15
HETATM   15  C   UNL     1      -6.411  17.590  68.312  1.00  0.00    -0.182 A  
HETATM   16  C   UNL     1      -6.322  17.825  69.696  1.00  0.00    -0.174 A  
HETATM   17  C   UNL     1      -5.776  19.012  70.190  1.00  0.00    -0.267 A  
HETATM   18  C   UNL     1      -5.308  19.984  69.309  1.00  0.00    -0.242 A  
HETATM   19  C   UNL     1      -5.388  19.766  67.935  1.00  0.00    -0.201 A  
HETATM   20  C   UNL     1      -5.936  18.579  67.448  1.00  0.00    -0.162 A  
HETATM   21  F   UNL     1      -5.982  18.414  66.118  1.00  0.00    -0.167 F  
ENDBRANCH  13  15
ENDBRANCH   8  10
TORSDOF 2
ENDMDL
MODEL      205
REMARK 921   NORMALIZED FREE ENERGY PREDICTED BY IDOCK:   -2.36 KCAL/MOL
REMARK 922        TOTAL FREE ENERGY PREDICTED BY IDOCK:   -3.01 KCAL/MOL
REMARK 923 INTER-LIGAND FREE ENERGY PREDICTED BY IDOCK:   -2.62 KCAL/MOL
REMARK 924 INTRA-LIGAND FREE ENERGY PREDICTED BY IDOCK:   -0.39 KCAL/MOL
REMARK 927      BINDING AFFINITY PREDICTED BY RF-SCORE:    0.00 PKD
ROOT
HETATM    1  O   UNL     1      -6.606  10.701  68.461  1.00  0.00    -0.054 OA 
HETATM    2  C   UNL     1      -6.468  10.572  69.797  1.00  0.00    -0.102 C  
HETATM    3  C   UNL     1      -6.611   9.179  70.282  1.00  0.00    -0.052 A  
HETATM    4  O   UNL     1      -6.205  11.504  70.536  1.00  0.00    -0.293 OA 
HETATM    5  C   UNL     1      -5.849   8.762  71.377  1.00  0.00    -0.049 A  
HETATM    6  C   UNL     1      -5.957   7.450  71.843  1.00  0.00    -0.036 A  
HETATM    7  C   UNL     1      -6.822   6.551  71.211  1.00  0.00    -0.059 A  
HETATM    8  C   UNL     1      -7.598   6.961  70.119  1.00  0.00    -0.099 A  
HETATM    9  C   UNL     1      -7.505   8.291  69.678  1.00  0.00    -0.081 A  
ENDROOT
BRANCH   8  10
HETATM   10  C   UNL     1      -8.465   6.038  69.396  1.00  0.00    -0.115 A  
HETATM   11  N   UNL     1      -9.489   5.364  69.939  1.00  0.00    -0.151 NA 
HETATM   12  O   UNL     1      -9.942   4.558  68.892  1.00  0.00    -0.149 OA 
HETATM   13  C   UNL     1      -9.144   4.824  67.816  1.00  0.00    -0.116 A  
HETATM   14  N   UNL     1      -8.232   5.734  68.072  1.00  0.00    -0.104 NA 
BRANCH  13  15
HETATM   15  C   UNL     1      -9.372   4.079  66.586  1.00  0.00    -0.197 A  
HETATM   16  C   UNL     1     -10.290   4.572  65.641  1.00  0.00    -0.274 A  
HETATM   17  C   UNL     1     -10.520   3.894  64.441  1.00  0.00    -0.238 A  
HETATM   18  C   UNL     1      -9.835   2.713  64.165  1.00  0.00    -0.132 A  
HETATM   19  C   UNL     1      -8.922   2.213  65.091  1.00  0.00    -0.124 A  
HETATM   20  C   UNL     1      -8.698   2.893  66.287  1.00  0.00    -0.134 A  
HETATM   21  F   UNL     1      -7.803   2.374  67.141  1.00  0.00    -0.066 F  
ENDBRANCH  13  15
ENDBRANCH   8  10
TORSDOF 2
ENDMDL
MODEL      206
REMARK 921   NORMALIZED FREE ENERGY PREDICTED BY IDOCK:   -2.27 KCAL/MOL
REMARK 922        TOTAL FREE ENERGY PREDICTED BY IDOCK:   -2.91 KCAL/MOL
REMARK 923 INTER-LIGAND FREE ENERGY PREDICTED BY IDOCK:   -2.50 KCAL/MOL
REMARK 924 INTRA-LIGAND FREE ENERGY PREDICTED BY IDOCK:   -0.40 KCAL/MOL
REMARK 927      BINDING AFFINITY PREDICTED BY RF-SCORE:    0.00 PKD
ROOT
HETATM    1  O   UNL     1      -7.260  11.670  67.850  1.00  0.00    -0.075 OA 
HETATM    2  C   UNL     1      -6.815  11.251  66.648  1.00  0.00    -0.130 C  
HETATM    3  C   UNL     1      -7.252   9.880  66.292  1.00  0.00    -0.102 A  
HETATM    4  O   UNL     1      -6.151  11.946  65.899  1.00  0.00     0.309 OA 
HETATM    5  C   UNL     1      -7.512   9.580  64.952  1.00  0.00    -0.111 A  
HETATM    6  C   UNL     1      -7.939   8.299  64.595  1.00  0.00    -0.145 A  
HETATM    7  C   UNL     1      -8.113   7.318  65.578  1.00  0.00    -0.132 A  
HETATM    8  C   UNL     1      -7.846   7.606  66.923  1.00  0.00    -0.111 A  
HETATM    9  C   UNL     1      -7.388   8.888  67.267  1.00  0.00    -0.080 A  
ENDROOT
BRANCH   8  10
HETATM   10  C   UNL     1      -8.073   6.631  67.982  1.00  0.00    -0.110 A  
HETATM   11  N   UNL     1      -8.042   5.300  67.818  1.00  0.00    -0.099 NA 
HETATM   12  O   UNL     1      -8.405   4.809  69.075  1.00  0.00    -0.081 OA 
HETATM   13  C   UNL     1      -8.621   5.893  69.876  1.00  0.00    -0.129 A  
HETATM   14  N   UNL     1      -8.417   7.032  69.255  1.00  0.00    -0.132 NA 
BRANCH  13  15
HETATM   15  C   UNL     1      -9.059   5.663  71.245  1.00  0.00    -0.156 A  
HETATM   16  C   UNL     1      -8.108   5.651  72.281  1.00  0.00    -0.108 A  
HETATM   17  C   UNL     1      -8.494   5.453  73.610  1.00  0.00    -0.111 A  
HETATM   18  C   UNL     1      -9.838   5.267  73.924  1.00  0.00    -0.178 A  
HETATM   19  C   UNL     1     -10.792   5.277  72.910  1.00  0.00    -0.322 A  
HETATM   20  C   UNL     1     -10.400   5.473  71.586  1.00  0.00    -0.219 A  
HETATM   21  F   UNL     1     -11.358   5.483  70.647  1.00  0.00    -0.280 F  
ENDBRANCH  13  15
ENDBRANCH   8  10
TORSDOF 2
ENDMDL
MODEL      207
REMARK 921   NORMALIZED FREE ENERGY PREDICTED BY IDOCK:   -2.17 KCAL/MOL
REMARK 922        TOTAL FREE ENERGY PREDICTED BY IDOCK:   -2.80 KCAL/MOL
REMARK 923 INTER-LIGAND FREE ENERGY PREDICTED BY IDOCK:   -2.60 KCAL/MOL
REMARK 924 INTRA-LIGAND FREE ENERGY PREDICTED BY IDOCK:   -0.19 KCAL/MOL
REMARK 927      BINDING AFFINITY PREDICTED BY RF-SCORE:    0.00 PKD
ROOT
HETATM    1  O   UNL     1      -9.701   9.857  63.010  1.00  0.00    -0.088 OA 
HETATM    2  C   UNL     1      -8.520  10.506  63.073  1.00  0.00    -0.177 C  
HETATM    3  C   UNL     1      -7.550   9.893  64.011  1.00  0.00    -0.138 A  
HETATM    4  O   UNL     1      -8.253  11.480  62.393  1.00  0.00    -0.202 OA 
HETATM    5  C   UNL     1      -6.187   9.942  63.702  1.00  0.00    -0.124 A  
HETATM    6  C   UNL     1      -5.255   9.359  64.563  1.00  0.00    -0.053 A  
HETATM    7  C   UNL     1      -5.684   8.720  65.731  1.00  0.00    -0.050 A  
HETATM    8  C   UNL     1      -7.047   8.672  66.055  1.00  0.00    -0.083 A  
HETATM    9  C   UNL     1      -7.972   9.289  65.198  1.00  0.00    -0.116 A  
ENDROOT
BRANCH   8  10
HETATM   10  C   UNL     1      -7.539   7.964  67.231  1.00  0.00    -0.101 A  
HETATM   11  N   UNL     1      -7.608   8.483  68.465  1.00  0.00    -0.094 NA 
HETATM   12  O   UNL     1      -8.046   7.410  69.246  1.00  0.00    -0.119 OA 
HETATM   13  C   UNL     1      -8.198   6.345  68.404  1.00  0.00    -0.113 A  
HETATM   14  N   UNL     1      -7.911   6.639  67.156  1.00  0.00    -0.108 NA 
BRANCH  13  15
HETATM   15  C   UNL     1      -8.609   5.070  68.973  1.00  0.00    -0.091 A  
HETATM   16  C   UNL     1      -9.295   5.051  70.200  1.00  0.00    -0.215 A  
HETATM   17  C   UNL     1      -9.724   3.846  70.766  1.00  0.00    -0.255 A  
HETATM   18  C   UNL     1      -9.474   2.642  70.112  1.00  0.00    -0.161 A  
HETATM   19  C   UNL     1      -8.795   2.645  68.896  1.00  0.00    -0.151 A  
HETATM   20  C   UNL     1      -8.370   3.850  68.337  1.00  0.00    -0.090 A  
HETATM   21  F   UNL     1      -7.729   3.799  67.160  1.00  0.00    -0.076 F  
ENDBRANCH  13  15
ENDBRANCH   8  10
TORSDOF 2
ENDMDL
MODEL      208
REMARK 921   NORMALIZED FREE ENERGY PREDICTED BY IDOCK:   -2.07 KCAL/MOL
REMARK 922        TOTAL FREE ENERGY PREDICTED BY IDOCK:   -2.68 KCAL/MOL
REMARK 923 INTER-LIGAND FREE ENERGY PREDICTED BY IDOCK:   -2.29 KCAL/MOL
REMARK 924 INTRA-LIGAND FREE ENERGY PREDICTED BY IDOCK:   -0.39 KCAL/MOL
REMARK 927      BINDING AFFINITY PREDICTED BY RF-SCORE:    0.00 PKD
ROOT
HETATM    1  O   UNL     1      -6.154  11.750  68.847  1.00  0.00    -0.049 OA 
HETATM    2  C   UNL     1      -6.004  11.823  70.185  1.00  0.00    -0.162 C  
HETATM    3  C   UNL     1      -5.992  10.503  70.859  1.00  0.00    -0.024 A  
HETATM    4  O   UNL     1      -5.848  12.870  70.786  1.00  0.00    -0.184 OA 
HETATM    5  C   UNL     1      -5.189  10.328  71.990  1.00  0.00     0.031 A  
HETATM    6  C   UNL     1      -5.151   9.089  72.633  1.00  0.00    -0.065 A  
HETATM    7  C   UNL     1      -5.911   8.021  72.143  1.00  0.00    -0.038 A  
HETATM    8  C   UNL     1      -6.726   8.188  71.016  1.00  0.00    -0.042 A  
HETATM    9  C   UNL     1      -6.780   9.446  70.395  1.00  0.00    -0.083 A  
ENDROOT
BRANCH   8  10
HETATM   10  C   UNL     1      -7.484   7.084  70.439  1.00  0.00    -0.085 A  
HETATM   11  N   UNL     1      -7.956   6.036  71.129  1.00  0.00    -0.114 NA 
HETATM   12  O   UNL     1      -8.518   5.222  70.142  1.00  0.00    -0.105 OA 
HETATM   13  C   UNL     1      -8.329   5.860  68.949  1.00  0.00    -0.102 A  
HETATM   14  N   UNL     1      -7.711   7.011  69.081  1.00  0.00    -0.104 NA 
BRANCH  13  15
HETATM   15  C   UNL     1      -8.786   5.201  67.734  1.00  0.00    -0.103 A  
HETATM   16  C   UNL     1      -8.034   4.138  67.201  1.00  0.00    -0.096 A  
HETATM   17  C   UNL     1      -8.453   3.469  66.048  1.00  0.00    -0.112 A  
HETATM   18  C   UNL     1      -9.631   3.851  65.410  1.00  0.00    -0.185 A  
HETATM   19  C   UNL     1     -10.386   4.902  65.926  1.00  0.00    -0.271 A  
HETATM   20  C   UNL     1      -9.962   5.566  67.076  1.00  0.00    -0.174 A  
HETATM   21  F   UNL     1     -10.729   6.565  67.538  1.00  0.00    -0.219 F  
ENDBRANCH  13  15
ENDBRANCH   8  10
TORSDOF 2
ENDMDL
MODEL      209
REMARK 921   NORMALIZED FREE ENERGY PREDICTED BY IDOCK:   -1.88 KCAL/MOL
REMARK 922        TOTAL FREE ENERGY PREDICTED BY IDOCK:   -2.47 KCAL/MOL
REMARK 923 INTER-LIGAND FREE ENERGY PREDICTED BY IDOCK:   -2.33 KCAL/MOL
REMARK 924 INTRA-LIGAND FREE ENERGY PREDICTED BY IDOCK:   -0.14 KCAL/MOL
REMARK 927      BINDING AFFINITY PREDICTED BY RF-SCORE:    0.00 PKD
ROOT
HETATM    1  O   UNL     1     -10.536  18.989  70.879  1.00  0.00     1.547 OA 
HETATM    2  C   UNL     1     -10.151  19.896  69.957  1.00  0.00     0.494 C  
HETATM    3  C   UNL     1     -10.226  19.400  68.562  1.00  0.00    -0.492 A  
HETATM    4  O   UNL     1      -9.814  21.032  70.236  1.00  0.00     1.351 OA 
HETATM    5  C   UNL     1     -10.563  20.297  67.544  1.00  0.00    -0.223 A  
HETATM    6  C   UNL     1     -10.654  19.851  66.224  1.00  0.00    -0.534 A  
HETATM    7  C   UNL     1     -10.414  18.506  65.921  1.00  0.00    -0.379 A  
HETATM    8  C   UNL     1     -10.068  17.601  66.932  1.00  0.00    -0.331 A  
HETATM    9  C   UNL     1      -9.949  18.067  68.252  1.00  0.00    -0.374 A  
ENDROOT
BRANCH   8  10
HETATM   10  C   UNL     1      -9.870  16.181  66.666  1.00  0.00    -0.249 A  
HETATM   11  N   UNL     1      -8.876  15.437  67.172  1.00  0.00    -0.199 NA 
HETATM   12  O   UNL     1      -9.057  14.193  66.563  1.00  0.00    -0.246 OA 
HETATM   13  C   UNL     1     -10.144  14.308  65.745  1.00  0.00    -0.335 A  
HETATM   14  N   UNL     1     -10.685  15.504  65.784  1.00  0.00    -0.339 NA 
BRANCH  13  15
HETATM   15  C   UNL     1     -10.532  13.154  64.947  1.00  0.00    -0.369 A  
HETATM   16  C   UNL     1      -9.810  11.954  65.072  1.00  0.00    -0.234 A  
HETATM   17  C   UNL     1     -10.166  10.820  64.336  1.00  0.00    -0.432 A  
HETATM   18  C   UNL     1     -11.252  10.868  63.465  1.00  0.00     0.515 A  
HETATM   19  C   UNL     1     -11.977  12.049  63.330  1.00  0.00    -0.571 A  
HETATM   20  C   UNL     1     -11.616  13.177  64.066  1.00  0.00    -0.428 A  
HETATM   21  F   UNL     1     -12.352  14.287  63.907  1.00  0.00    -0.503 F  
ENDBRANCH  13  15
ENDBRANCH   8  10
TORSDOF 2
ENDMDL
MODEL      210
REMARK 921   NORMALIZED FREE ENERGY PREDICTED BY IDOCK:   10.88 KCAL/MOL
REMARK 922        TOTAL FREE ENERGY PREDICTED BY IDOCK:   11.78 KCAL/MOL
REMARK 923 INTER-LIGAND FREE ENERGY PREDICTED BY IDOCK:   12.09 KCAL/MOL
REMARK 924 INTRA-LIGAND FREE ENERGY PREDICTED BY IDOCK:   -0.31 KCAL/MOL
REMARK 927      BINDING AFFINITY PREDICTED BY RF-SCORE:    0.00 PKD
ROOT
HETATM    1  O   UNL     1      -6.629   7.017  70.603  1.00  0.00    -0.049 OA 
HETATM    2  C   UNL     1      -7.950   6.765  70.707  1.00  0.00    -0.110 C  
HETATM    3  C   UNL     1      -8.808   7.800  70.082  1.00  0.00    -0.145 A  
HETATM    4  O   UNL     1      -8.402   5.761  71.226  1.00  0.00    -0.123 OA 
HETATM    5  C   UNL     1     -10.008   7.410  69.480  1.00  0.00    -0.179 A  
HETATM    6  C   UNL     1     -10.826   8.365  68.873  1.00  0.00     0.002 A  
HETATM    7  C   UNL     1     -10.442   9.710  68.860  1.00  0.00    -0.234 A  
HETATM    8  C   UNL     1      -9.246  10.113  69.467  1.00  0.00    -0.223 A  
HETATM    9  C   UNL     1      -8.446   9.149  70.102  1.00  0.00    -0.186 A  
ENDROOT
BRANCH   8  10
HETATM   10  C   UNL     1      -8.781  11.495  69.421  1.00  0.00     0.639 A  
HETATM   11  N   UNL     1      -8.957  12.395  70.400  1.00  0.00     4.796 NA 
HETATM   12  O   UNL     1      -8.432  13.571  69.859  1.00  0.00     1.553 OA 
HETATM   13  C   UNL     1      -7.991  13.266  68.603  1.00  0.00    -0.042 A  
HETATM   14  N   UNL     1      -8.172  12.002  68.294  1.00  0.00    -0.156 NA 
BRANCH  13  15
HETATM   15  C   UNL     1      -7.431  14.335  67.789  1.00  0.00    -0.175 A  
HETATM   16  C   UNL     1      -6.444  15.174  68.337  1.00  0.00    -0.107 A  
HETATM   17  C   UNL     1      -5.869  16.198  67.580  1.00  0.00    -0.180 A  
HETATM   18  C   UNL     1      -6.270  16.398  66.260  1.00  0.00     0.952 A  
HETATM   19  C   UNL     1      -7.245  15.575  65.703  1.00  0.00     4.987 A  
HETATM   20  C   UNL     1      -7.816  14.555  66.465  1.00  0.00     0.886 A  
HETATM   21  F   UNL     1      -8.744  13.785  65.879  1.00  0.00     0.188 F  
ENDBRANCH  13  15
ENDBRANCH   8  10
TORSDOF 2
ENDMDL
