MODEL        1
REMARK 921   NORMALIZED FREE ENERGY PREDICTED BY IDOCK:   -5.46 KCAL/MOL
REMARK 922        TOTAL FREE ENERGY PREDICTED BY IDOCK:  -15.94 KCAL/MOL
REMARK 923 INTER-LIGAND FREE ENERGY PREDICTED BY IDOCK:  -11.20 KCAL/MOL
REMARK 924 INTRA-LIGAND FREE ENERGY PREDICTED BY IDOCK:   -4.74 KCAL/MOL
REMARK 927      BINDING AFFINITY PREDICTED BY RF-SCORE:    0.00 PKD
ROOT
HETATM    1  C   UNL     1     -10.977   5.864  71.080  1.00  0.00    -0.260 C  
HETATM    2  O   UNL     1     -11.011   7.173  70.502  1.00  0.00    -0.246 OA 
ENDROOT
BRANCH   2   3
HETATM    3  C   UNL     1      -9.931   7.954  70.757  1.00  0.00    -0.184 C  
HETATM    4  N   UNL     1      -9.318   8.256  69.581  1.00  0.00    -0.158 N  
HETATM    5  O   UNL     1      -9.534   8.285  71.866  1.00  0.00    -0.176 OA 
HETATM    6  H   UNL     1      -9.807   8.046  68.711  1.00  0.00     0.000 HD 
BRANCH   4   7
HETATM    7  C   UNL     1      -7.995   8.864  69.505  1.00  0.00    -0.092 C  
BRANCH   7   8
HETATM    8  C   UNL     1      -6.877   7.810  69.140  1.00  0.00    -0.049 C  
HETATM    9  C   UNL     1      -6.544   6.966  70.387  1.00  0.00    -0.052 C  
HETATM   10  C   UNL     1      -5.581   8.452  68.600  1.00  0.00    -0.037 C  
HETATM   11  C   UNL     1      -7.353   6.826  68.044  1.00  0.00    -0.097 C  
ENDBRANCH   7   8
BRANCH   7  12
HETATM   12  C   UNL     1      -8.091  10.040  68.484  1.00  0.00    -0.103 C  
HETATM   13  N   UNL     1      -8.750   9.783  67.295  1.00  0.00    -0.132 N  
HETATM   14  O   UNL     1      -7.545  11.124  68.670  1.00  0.00    -0.110 OA 
HETATM   15  H   UNL     1      -9.035   8.828  67.079  1.00  0.00     0.000 HD 
BRANCH  13  16
HETATM   16  C   UNL     1      -9.052  10.871  66.323  1.00  0.00    -0.176 C  
BRANCH  16  17
HETATM   17  C   UNL     1     -10.554  10.788  65.914  1.00  0.00    -0.147 C  
HETATM   18  H   UNL     1     -12.193  10.327  66.838  1.00  0.00     0.000 HD 
HETATM   19  O   UNL     1     -11.278  10.378  67.088  1.00  0.00    -0.249 OA 
BRANCH  17  20
HETATM   20  C   UNL     1     -11.113  12.136  65.385  1.00  0.00    -0.317 C  
BRANCH  20  21
HETATM   21  N   UNL     1     -10.883  13.343  66.231  1.00  0.00    -0.287 NA 
BRANCH  21  22
HETATM   22  N   UNL     1     -11.712  13.374  67.405  1.00  0.00    -0.352 N  
HETATM   23  C   UNL     1     -11.173  13.413  68.683  1.00  0.00    -0.269 C  
HETATM   24  H   UNL     1     -12.726  13.366  67.295  1.00  0.00     0.000 HD 
HETATM   25  O   UNL     1      -9.973  13.280  68.905  1.00  0.00    -0.094 OA 
BRANCH  23  26
HETATM   26  C   UNL     1     -12.244  13.545  69.800  1.00  0.00    -0.269 C  
BRANCH  26  27
HETATM   27  N   UNL     1     -12.016  12.495  70.793  1.00  0.00    -0.462 N  
HETATM   28  O   UNL     1     -13.074  10.804  69.678  1.00  0.00    -0.060 OA 
HETATM   29  C   UNL     1     -12.442  11.214  70.640  1.00  0.00    -0.356 C  
HETATM   30  H   UNL     1     -11.512  12.738  71.646  1.00  0.00     0.000 HD 
BRANCH  29  31
HETATM   31  O   UNL     1     -12.040  10.479  71.704  1.00  0.00    -0.294 OA 
HETATM   32  C   UNL     1     -13.008   9.543  72.188  1.00  0.00    -0.412 C  
ENDBRANCH  29  31
ENDBRANCH  26  27
BRANCH  26  33
HETATM   33  C   UNL     1     -12.298  14.966  70.448  1.00  0.00    -0.401 C  
HETATM   34  C   UNL     1     -11.779  16.090  69.528  1.00  0.00    -0.275 C  
HETATM   35  C   UNL     1     -13.753  15.278  70.858  1.00  0.00    -0.363 C  
HETATM   36  C   UNL     1     -11.435  14.992  71.729  1.00  0.00    -0.376 C  
ENDBRANCH  26  33
ENDBRANCH  23  26
ENDBRANCH  21  22
BRANCH  21  37
HETATM   37  C   UNL     1     -10.982  14.629  65.506  1.00  0.00    -0.340 C  
BRANCH  37  38
HETATM   38  C   UNL     1     -10.084  15.767  65.967  1.00  0.00    -0.359 A  
HETATM   39  C   UNL     1     -10.503  17.101  66.048  1.00  0.00    -0.271 A  
HETATM   40  C   UNL     1      -9.659  18.108  66.492  1.00  0.00    -0.318 A  
HETATM   41  C   UNL     1      -8.775  15.476  66.369  1.00  0.00    -0.333 A  
HETATM   42  C   UNL     1      -8.362  17.824  66.919  1.00  0.00    -0.257 A  
HETATM   43  C   UNL     1      -7.931  16.488  66.844  1.00  0.00    -0.260 A  
BRANCH  42  44
HETATM   44  C   UNL     1      -7.529  18.914  67.439  1.00  0.00    -0.229 A  
HETATM   45  C   UNL     1      -6.874  18.842  68.663  1.00  0.00    -0.294 A  
HETATM   46  C   UNL     1      -6.150  19.945  69.104  1.00  0.00    -0.330 A  
HETATM   47  C   UNL     1      -6.106  21.091  68.320  1.00  0.00    -0.349 A  
HETATM   48  C   UNL     1      -6.794  21.090  67.122  1.00  0.00    -0.350 A  
HETATM   49  N   UNL     1      -7.497  20.036  66.670  1.00  0.00    -0.260 NA 
ENDBRANCH  42  44
ENDBRANCH  37  38
ENDBRANCH  21  37
ENDBRANCH  20  21
ENDBRANCH  17  20
ENDBRANCH  16  17
BRANCH  16  50
HETATM   50  C   UNL     1      -8.020  10.934  65.164  1.00  0.00     0.138 C  
BRANCH  50  51
HETATM   51  C   UNL     1      -7.390   9.604  64.837  1.00  0.00    -0.118 A  
HETATM   52  C   UNL     1      -8.165   8.520  64.401  1.00  0.00    -0.153 A  
HETATM   53  C   UNL     1      -6.267   7.052  64.585  1.00  0.00    -0.037 A  
HETATM   54  C   UNL     1      -6.017   9.414  65.031  1.00  0.00    -0.065 A  
HETATM   55  C   UNL     1      -7.618   7.245  64.315  1.00  0.00    -0.116 A  
HETATM   56  C   UNL     1      -5.459   8.142  64.904  1.00  0.00    -0.040 A  
ENDBRANCH  50  51
ENDBRANCH  16  50
ENDBRANCH  13  16
ENDBRANCH   7  12
ENDBRANCH   4   7
ENDBRANCH   2   3
TORSDOF 18
ENDMDL
MODEL        2
REMARK 921   NORMALIZED FREE ENERGY PREDICTED BY IDOCK:   -5.06 KCAL/MOL
REMARK 922        TOTAL FREE ENERGY PREDICTED BY IDOCK:  -15.11 KCAL/MOL
REMARK 923 INTER-LIGAND FREE ENERGY PREDICTED BY IDOCK:  -11.93 KCAL/MOL
REMARK 924 INTRA-LIGAND FREE ENERGY PREDICTED BY IDOCK:   -3.18 KCAL/MOL
REMARK 927      BINDING AFFINITY PREDICTED BY RF-SCORE:    0.00 PKD
ROOT
HETATM    1  C   UNL     1      -5.840  16.808  66.780  1.00  0.00    -0.103 C  
HETATM    2  O   UNL     1      -6.270  15.682  67.551  1.00  0.00    -0.149 OA 
ENDROOT
BRANCH   2   3
HETATM    3  C   UNL     1      -7.226  15.939  68.479  1.00  0.00    -0.128 C  
HETATM    4  N   UNL     1      -8.214  16.674  67.901  1.00  0.00    -0.178 N  
HETATM    5  O   UNL     1      -7.183  15.615  69.658  1.00  0.00    -0.200 OA 
HETATM    6  H   UNL     1      -8.218  16.769  66.886  1.00  0.00     0.000 HD 
BRANCH   4   7
HETATM    7  C   UNL     1      -9.268  17.332  68.665  1.00  0.00    -0.266 C  
BRANCH   7   8
HETATM    8  C   UNL     1      -9.566  18.789  68.130  1.00  0.00    -0.373 C  
HETATM    9  C   UNL     1     -10.028  19.678  69.303  1.00  0.00    -0.344 C  
HETATM   10  C   UNL     1     -10.631  18.826  67.013  1.00  0.00    -0.483 C  
HETATM   11  C   UNL     1      -8.300  19.450  67.533  1.00  0.00    -0.326 C  
ENDBRANCH   7   8
BRANCH   7  12
HETATM   12  C   UNL     1     -10.514  16.395  68.627  1.00  0.00    -0.293 C  
HETATM   13  N   UNL     1     -10.525  15.409  67.657  1.00  0.00    -0.266 N  
HETATM   14  O   UNL     1     -11.486  16.558  69.359  1.00  0.00    -0.200 OA 
HETATM   15  H   UNL     1      -9.798  15.405  66.941  1.00  0.00     0.000 HD 
BRANCH  13  16
HETATM   16  C   UNL     1     -11.576  14.353  67.635  1.00  0.00    -0.370 C  
BRANCH  16  17
HETATM   17  C   UNL     1     -10.924  12.977  67.969  1.00  0.00    -0.250 C  
HETATM   18  H   UNL     1      -9.243  12.423  68.755  1.00  0.00     0.000 HD 
HETATM   19  O   UNL     1      -9.640  13.262  68.551  1.00  0.00    -0.205 OA 
BRANCH  17  20
HETATM   20  C   UNL     1     -11.777  12.124  68.947  1.00  0.00    -0.327 C  
BRANCH  20  21
HETATM   21  N   UNL     1     -11.102  10.967  69.602  1.00  0.00    -0.259 NA 
BRANCH  21  22
HETATM   22  N   UNL     1     -10.436  10.101  68.666  1.00  0.00    -0.192 N  
HETATM   23  C   UNL     1      -9.080   9.824  68.761  1.00  0.00    -0.136 C  
HETATM   24  H   UNL     1     -10.976   9.680  67.911  1.00  0.00     0.000 HD 
HETATM   25  O   UNL     1      -8.334  10.400  69.547  1.00  0.00    -0.162 OA 
BRANCH  23  26
HETATM   26  C   UNL     1      -8.588   8.788  67.713  1.00  0.00    -0.129 C  
BRANCH  26  27
HETATM   27  N   UNL     1      -9.732   7.995  67.264  1.00  0.00    -0.163 N  
HETATM   28  O   UNL     1      -8.707   5.954  67.302  1.00  0.00    -0.110 OA 
HETATM   29  C   UNL     1      -9.695   6.647  67.108  1.00  0.00    -0.142 C  
HETATM   30  H   UNL     1     -10.604   8.482  67.056  1.00  0.00     0.000 HD 
BRANCH  29  31
HETATM   31  O   UNL     1     -10.916   6.206  66.727  1.00  0.00    -0.333 OA 
HETATM   32  C   UNL     1     -10.905   5.022  65.924  1.00  0.00    -0.063 C  
ENDBRANCH  29  31
ENDBRANCH  26  27
BRANCH  26  33
HETATM   33  C   UNL     1      -7.810   9.430  66.518  1.00  0.00    -0.097 C  
HETATM   34  C   UNL     1      -7.776  10.971  66.554  1.00  0.00    -0.154 C  
HETATM   35  C   UNL     1      -6.364   8.890  66.511  1.00  0.00    -0.062 C  
HETATM   36  C   UNL     1      -8.470   9.019  65.183  1.00  0.00    -0.183 C  
ENDBRANCH  26  33
ENDBRANCH  23  26
ENDBRANCH  21  22
BRANCH  21  37
HETATM   37  C   UNL     1     -11.972  10.173  70.496  1.00  0.00    -0.311 C  
BRANCH  37  38
HETATM   38  C   UNL     1     -11.430   8.850  71.015  1.00  0.00    -0.351 A  
HETATM   39  C   UNL     1     -11.835   7.602  70.529  1.00  0.00    -0.102 A  
HETATM   40  C   UNL     1     -11.301   6.418  71.015  1.00  0.00    -0.386 A  
HETATM   41  C   UNL     1     -10.445   8.867  72.010  1.00  0.00    -0.383 A  
HETATM   42  C   UNL     1     -10.301   6.425  71.987  1.00  0.00    -0.222 A  
HETATM   43  C   UNL     1      -9.885   7.672  72.482  1.00  0.00    -0.250 A  
BRANCH  42  44
HETATM   44  C   UNL     1      -9.724   5.149  72.425  1.00  0.00    -0.153 A  
HETATM   45  C   UNL     1      -9.976   3.947  71.772  1.00  0.00    -0.234 A  
HETATM   46  C   UNL     1      -9.432   2.775  72.289  1.00  0.00    -0.177 A  
HETATM   47  C   UNL     1      -8.662   2.831  73.444  1.00  0.00    -0.079 A  
HETATM   48  C   UNL     1      -8.469   4.061  74.043  1.00  0.00    -0.091 A  
HETATM   49  N   UNL     1      -8.980   5.209  73.562  1.00  0.00    -0.118 NA 
ENDBRANCH  42  44
ENDBRANCH  37  38
ENDBRANCH  21  37
ENDBRANCH  20  21
ENDBRANCH  17  20
ENDBRANCH  16  17
BRANCH  16  50
HETATM   50  C   UNL     1     -12.450  14.412  66.352  1.00  0.00    -0.196 C  
BRANCH  50  51
HETATM   51  C   UNL     1     -11.966  13.509  65.245  1.00  0.00    -0.397 A  
HETATM   52  C   UNL     1     -12.824  12.583  64.636  1.00  0.00    -0.325 A  
HETATM   53  C   UNL     1     -10.972  11.601  63.456  1.00  0.00    -0.485 A  
HETATM   54  C   UNL     1     -10.622  13.541  64.854  1.00  0.00    -0.409 A  
HETATM   55  C   UNL     1     -12.324  11.609  63.779  1.00  0.00    -0.298 A  
HETATM   56  C   UNL     1     -10.129  12.589  63.961  1.00  0.00    -0.316 A  
ENDBRANCH  50  51
ENDBRANCH  16  50
ENDBRANCH  13  16
ENDBRANCH   7  12
ENDBRANCH   4   7
ENDBRANCH   2   3
TORSDOF 18
ENDMDL
MODEL        3
REMARK 921   NORMALIZED FREE ENERGY PREDICTED BY IDOCK:   -4.91 KCAL/MOL
REMARK 922        TOTAL FREE ENERGY PREDICTED BY IDOCK:  -14.82 KCAL/MOL
REMARK 923 INTER-LIGAND FREE ENERGY PREDICTED BY IDOCK:  -12.14 KCAL/MOL
REMARK 924 INTRA-LIGAND FREE ENERGY PREDICTED BY IDOCK:   -2.69 KCAL/MOL
REMARK 927      BINDING AFFINITY PREDICTED BY RF-SCORE:    0.00 PKD
ROOT
HETATM    1  C   UNL     1      -5.487   4.832  64.796  1.00  0.00    -0.013 C  
HETATM    2  O   UNL     1      -5.947   5.904  63.967  1.00  0.00    -0.024 OA 
ENDROOT
BRANCH   2   3
HETATM    3  C   UNL     1      -7.118   6.476  64.347  1.00  0.00    -0.064 C  
HETATM    4  N   UNL     1      -7.240   6.374  65.698  1.00  0.00    -0.072 N  
HETATM    5  O   UNL     1      -7.957   6.953  63.595  1.00  0.00    -0.119 OA 
HETATM    6  H   UNL     1      -6.426   6.085  66.239  1.00  0.00     0.000 HD 
BRANCH   4   7
HETATM    7  C   UNL     1      -8.481   6.658  66.409  1.00  0.00    -0.125 C  
BRANCH   7   8
HETATM    8  C   UNL     1      -8.774   5.594  67.540  1.00  0.00    -0.107 C  
HETATM    9  C   UNL     1      -9.929   6.098  68.428  1.00  0.00    -0.162 C  
HETATM   10  C   UNL     1      -7.547   5.287  68.426  1.00  0.00    -0.080 C  
HETATM   11  C   UNL     1      -9.220   4.235  66.947  1.00  0.00    -0.160 C  
ENDBRANCH   7   8
BRANCH   7  12
HETATM   12  C   UNL     1      -8.375   8.118  66.949  1.00  0.00    -0.115 C  
HETATM   13  N   UNL     1      -9.375   8.996  66.576  1.00  0.00    -0.175 N  
HETATM   14  O   UNL     1      -7.414   8.511  67.606  1.00  0.00    -0.091 OA 
HETATM   15  H   UNL     1     -10.063   8.704  65.881  1.00  0.00     0.000 HD 
BRANCH  13  16
HETATM   16  C   UNL     1      -9.470  10.361  67.166  1.00  0.00    -0.159 C  
BRANCH  16  17
HETATM   17  C   UNL     1     -10.876  10.541  67.815  1.00  0.00    -0.294 C  
HETATM   18  H   UNL     1     -12.479   9.457  67.909  1.00  0.00     0.000 HD 
HETATM   19  O   UNL     1     -11.622   9.348  67.514  1.00  0.00     0.628 OA 
BRANCH  17  20
HETATM   20  C   UNL     1     -10.812  10.757  69.351  1.00  0.00    -0.244 C  
BRANCH  20  21
HETATM   21  N   UNL     1     -12.029  11.317  70.007  1.00  0.00    -0.337 NA 
BRANCH  21  22
HETATM   22  N   UNL     1     -11.784  12.566  70.675  1.00  0.00    -0.400 N  
HETATM   23  C   UNL     1     -12.059  13.786  70.072  1.00  0.00    -0.349 C  
HETATM   24  H   UNL     1     -11.396  12.557  71.618  1.00  0.00     0.000 HD 
HETATM   25  O   UNL     1     -12.388  13.889  68.894  1.00  0.00    -0.301 OA 
BRANCH  23  26
HETATM   26  C   UNL     1     -11.816  15.004  71.006  1.00  0.00    -0.323 C  
BRANCH  26  27
HETATM   27  N   UNL     1     -11.640  16.198  70.181  1.00  0.00    -0.380 N  
HETATM   28  O   UNL     1      -9.465  15.826  69.587  1.00  0.00    -0.276 OA 
HETATM   29  C   UNL     1     -10.484  16.499  69.535  1.00  0.00    -0.298 C  
HETATM   30  H   UNL     1     -12.427  16.840  70.086  1.00  0.00     0.000 HD 
BRANCH  29  31
HETATM   31  O   UNL     1     -10.651  17.639  68.824  1.00  0.00    -0.315 OA 
HETATM   32  C   UNL     1      -9.603  17.927  67.894  1.00  0.00    -0.286 C  
ENDBRANCH  29  31
ENDBRANCH  26  27
BRANCH  26  33
HETATM   33  C   UNL     1     -12.930  15.193  72.086  1.00  0.00    -0.440 C  
HETATM   34  C   UNL     1     -12.618  16.299  73.115  1.00  0.00    -0.520 C  
HETATM   35  C   UNL     1     -14.265  15.516  71.383  1.00  0.00    -0.399 C  
HETATM   36  C   UNL     1     -13.122  13.878  72.875  1.00  0.00    -0.403 C  
ENDBRANCH  26  33
ENDBRANCH  23  26
ENDBRANCH  21  22
BRANCH  21  37
HETATM   37  C   UNL     1     -12.720  10.381  70.921  1.00  0.00    -0.385 C  
BRANCH  37  38
HETATM   38  C   UNL     1     -12.004   9.087  71.276  1.00  0.00    -0.374 A  
HETATM   39  C   UNL     1     -10.704   9.036  71.795  1.00  0.00    -0.437 A  
HETATM   40  C   UNL     1     -10.093   7.836  72.125  1.00  0.00    -0.265 A  
HETATM   41  C   UNL     1     -12.682   7.873  71.114  1.00  0.00    -0.175 A  
HETATM   42  C   UNL     1     -10.769   6.623  71.991  1.00  0.00    -0.247 A  
HETATM   43  C   UNL     1     -12.075   6.661  71.473  1.00  0.00    -0.406 A  
BRANCH  42  44
HETATM   44  C   UNL     1     -10.102   5.386  72.412  1.00  0.00    -0.182 A  
HETATM   45  C   UNL     1      -8.894   4.962  71.871  1.00  0.00    -0.140 A  
HETATM   46  C   UNL     1      -8.360   3.747  72.289  1.00  0.00    -0.089 A  
HETATM   47  C   UNL     1      -9.048   2.985  73.225  1.00  0.00    -0.096 A  
HETATM   48  C   UNL     1     -10.251   3.468  73.705  1.00  0.00    -0.142 A  
HETATM   49  N   UNL     1     -10.786   4.641  73.321  1.00  0.00    -0.218 NA 
ENDBRANCH  42  44
ENDBRANCH  37  38
ENDBRANCH  21  37
ENDBRANCH  20  21
ENDBRANCH  17  20
ENDBRANCH  16  17
BRANCH  16  50
HETATM   50  C   UNL     1      -9.018  11.469  66.176  1.00  0.00    -0.201 C  
BRANCH  50  51
HETATM   51  C   UNL     1     -10.129  11.995  65.303  1.00  0.00    -0.289 A  
HETATM   52  C   UNL     1     -10.684  11.212  64.282  1.00  0.00    -0.403 A  
HETATM   53  C   UNL     1     -11.928  13.104  63.468  1.00  0.00    -0.580 A  
HETATM   54  C   UNL     1     -10.580  13.311  65.463  1.00  0.00    -0.295 A  
HETATM   55  C   UNL     1     -11.545  11.773  63.345  1.00  0.00    -0.419 A  
HETATM   56  C   UNL     1     -11.477  13.861  64.547  1.00  0.00    -0.393 A  
ENDBRANCH  50  51
ENDBRANCH  16  50
ENDBRANCH  13  16
ENDBRANCH   7  12
ENDBRANCH   4   7
ENDBRANCH   2   3
TORSDOF 18
ENDMDL
MODEL        4
REMARK 921   NORMALIZED FREE ENERGY PREDICTED BY IDOCK:   -4.88 KCAL/MOL
REMARK 922        TOTAL FREE ENERGY PREDICTED BY IDOCK:  -14.76 KCAL/MOL
REMARK 923 INTER-LIGAND FREE ENERGY PREDICTED BY IDOCK:  -12.31 KCAL/MOL
REMARK 924 INTRA-LIGAND FREE ENERGY PREDICTED BY IDOCK:   -2.45 KCAL/MOL
REMARK 927      BINDING AFFINITY PREDICTED BY RF-SCORE:    0.00 PKD
ROOT
HETATM    1  C   UNL     1      -5.335  17.860  66.135  1.00  0.00    -0.192 C  
HETATM    2  O   UNL     1      -5.589  16.919  67.182  1.00  0.00    -0.136 OA 
ENDROOT
BRANCH   2   3
HETATM    3  C   UNL     1      -6.494  17.310  68.114  1.00  0.00    -0.162 C  
HETATM    4  N   UNL     1      -7.738  17.269  67.564  1.00  0.00    -0.174 N  
HETATM    5  O   UNL     1      -6.235  17.695  69.246  1.00  0.00    -0.217 OA 
HETATM    6  H   UNL     1      -7.856  16.803  66.665  1.00  0.00     0.000 HD 
BRANCH   4   7
HETATM    7  C   UNL     1      -8.910  17.859  68.200  1.00  0.00    -0.265 C  
BRANCH   7   8
HETATM    8  C   UNL     1      -9.602  18.942  67.281  1.00  0.00    -0.346 C  
HETATM    9  C   UNL     1     -10.356  19.956  68.166  1.00  0.00    -0.533 C  
HETATM   10  C   UNL     1     -10.582  18.338  66.251  1.00  0.00    -0.320 C  
HETATM   11  C   UNL     1      -8.563  19.744  66.460  1.00  0.00    -0.396 C  
ENDBRANCH   7   8
BRANCH   7  12
HETATM   12  C   UNL     1      -9.859  16.683  68.588  1.00  0.00    -0.252 C  
HETATM   13  N   UNL     1      -9.791  15.542  67.810  1.00  0.00    -0.213 N  
HETATM   14  O   UNL     1     -10.693  16.775  69.485  1.00  0.00    -0.330 OA 
HETATM   15  H   UNL     1      -9.229  15.551  66.959  1.00  0.00     0.000 HD 
BRANCH  13  16
HETATM   16  C   UNL     1     -10.522  14.299  68.187  1.00  0.00    -0.246 C  
BRANCH  16  17
HETATM   17  C   UNL     1      -9.584  13.071  67.977  1.00  0.00    -0.224 C  
HETATM   18  H   UNL     1      -7.712  12.713  68.326  1.00  0.00     0.000 HD 
HETATM   19  O   UNL     1      -8.284  13.461  68.454  1.00  0.00    -0.153 OA 
BRANCH  17  20
HETATM   20  C   UNL     1     -10.070  11.801  68.726  1.00  0.00    -0.140 C  
BRANCH  20  21
HETATM   21  N   UNL     1      -9.987  10.507  67.990  1.00  0.00    -0.153 NA 
BRANCH  21  22
HETATM   22  N   UNL     1     -10.796   9.474  68.576  1.00  0.00    -0.397 N  
HETATM   23  C   UNL     1     -10.710   9.151  69.923  1.00  0.00    -0.231 C  
HETATM   24  H   UNL     1     -11.451   8.962  67.986  1.00  0.00     0.000 HD 
HETATM   25  O   UNL     1      -9.852   9.615  70.667  1.00  0.00    -0.265 OA 
BRANCH  23  26
HETATM   26  C   UNL     1     -11.743   8.079  70.368  1.00  0.00     0.007 C  
BRANCH  26  27
HETATM   27  N   UNL     1     -11.067   6.785  70.456  1.00  0.00    -0.278 N  
HETATM   28  O   UNL     1     -11.274   6.197  68.258  1.00  0.00    -0.323 OA 
HETATM   29  C   UNL     1     -10.882   5.963  69.391  1.00  0.00    -0.352 C  
HETATM   30  H   UNL     1     -10.716   6.485  71.366  1.00  0.00     0.000 HD 
BRANCH  29  31
HETATM   31  O   UNL     1     -10.189   4.869  69.786  1.00  0.00    -0.252 OA 
HETATM   32  C   UNL     1      -9.997   4.756  71.199  1.00  0.00    -0.202 C  
ENDBRANCH  29  31
ENDBRANCH  26  27
BRANCH  26  33
HETATM   33  C   UNL     1     -12.491   8.444  71.691  1.00  0.00    -0.363 C  
HETATM   34  C   UNL     1     -12.667   9.961  71.909  1.00  0.00    -0.501 C  
HETATM   35  C   UNL     1     -13.878   7.768  71.689  1.00  0.00    -0.465 C  
HETATM   36  C   UNL     1     -11.706   7.898  72.904  1.00  0.00    -0.239 C  
ENDBRANCH  26  33
ENDBRANCH  23  26
ENDBRANCH  21  22
BRANCH  21  37
HETATM   37  C   UNL     1      -8.611  10.012  67.771  1.00  0.00    -0.118 C  
BRANCH  37  38
HETATM   38  C   UNL     1      -8.443   8.557  67.360  1.00  0.00    -0.127 A  
HETATM   39  C   UNL     1      -8.940   8.026  66.164  1.00  0.00    -0.215 A  
HETATM   40  C   UNL     1      -8.749   6.697  65.816  1.00  0.00    -0.126 A  
HETATM   41  C   UNL     1      -7.725   7.697  68.199  1.00  0.00    -0.119 A  
HETATM   42  C   UNL     1      -8.013   5.839  66.632  1.00  0.00    -0.102 A  
HETATM   43  C   UNL     1      -7.507   6.361  67.835  1.00  0.00    -0.094 A  
BRANCH  42  44
HETATM   44  C   UNL     1      -7.786   4.458  66.192  1.00  0.00    -0.094 A  
HETATM   45  C   UNL     1      -8.805   3.647  65.705  1.00  0.00    -0.126 A  
HETATM   46  C   UNL     1      -8.509   2.331  65.361  1.00  0.00    -0.100 A  
HETATM   47  C   UNL     1      -7.213   1.858  65.521  1.00  0.00    -0.053 A  
HETATM   48  C   UNL     1      -6.259   2.721  66.024  1.00  0.00    -0.024 A  
HETATM   49  N   UNL     1      -6.516   3.998  66.359  1.00  0.00    -0.036 NA 
ENDBRANCH  42  44
ENDBRANCH  37  38
ENDBRANCH  21  37
ENDBRANCH  20  21
ENDBRANCH  17  20
ENDBRANCH  16  17
BRANCH  16  50
HETATM   50  C   UNL     1     -11.928  14.216  67.535  1.00  0.00    -0.419 C  
BRANCH  50  51
HETATM   51  C   UNL     1     -11.904  13.784  66.090  1.00  0.00    -0.424 A  
HETATM   52  C   UNL     1     -11.879  14.724  65.051  1.00  0.00    -0.343 A  
HETATM   53  C   UNL     1     -12.224  12.982  63.428  1.00  0.00    -0.552 A  
HETATM   54  C   UNL     1     -11.972  12.424  65.766  1.00  0.00    -0.437 A  
HETATM   55  C   UNL     1     -12.080  14.331  63.732  1.00  0.00    -0.114 A  
HETATM   56  C   UNL     1     -12.131  12.026  64.438  1.00  0.00    -0.375 A  
ENDBRANCH  50  51
ENDBRANCH  16  50
ENDBRANCH  13  16
ENDBRANCH   7  12
ENDBRANCH   4   7
ENDBRANCH   2   3
TORSDOF 18
ENDMDL
MODEL        5
REMARK 921   NORMALIZED FREE ENERGY PREDICTED BY IDOCK:   -4.84 KCAL/MOL
REMARK 922        TOTAL FREE ENERGY PREDICTED BY IDOCK:  -14.67 KCAL/MOL
REMARK 923 INTER-LIGAND FREE ENERGY PREDICTED BY IDOCK:  -11.29 KCAL/MOL
REMARK 924 INTRA-LIGAND FREE ENERGY PREDICTED BY IDOCK:   -3.38 KCAL/MOL
REMARK 927      BINDING AFFINITY PREDICTED BY RF-SCORE:    0.00 PKD
ROOT
HETATM    1  C   UNL     1      -5.878  18.000  66.131  1.00  0.00    -0.196 C  
HETATM    2  O   UNL     1      -5.857  16.606  66.452  1.00  0.00    -0.291 OA 
ENDROOT
BRANCH   2   3
HETATM    3  C   UNL     1      -6.667  16.228  67.473  1.00  0.00    -0.161 C  
HETATM    4  N   UNL     1      -7.749  15.582  66.960  1.00  0.00    -0.221 N  
HETATM    5  O   UNL     1      -6.488  16.477  68.657  1.00  0.00    -0.133 OA 
HETATM    6  H   UNL     1      -7.731  15.308  65.978  1.00  0.00     0.000 HD 
BRANCH   4   7
HETATM    7  C   UNL     1      -8.934  15.264  67.748  1.00  0.00    -0.177 C  
BRANCH   7   8
HETATM    8  C   UNL     1     -10.206  16.062  67.256  1.00  0.00    -0.277 C  
HETATM    9  C   UNL     1     -10.508  15.686  65.791  1.00  0.00    -0.383 C  
HETATM   10  C   UNL     1     -10.049  17.594  67.367  1.00  0.00    -0.331 C  
HETATM   11  C   UNL     1     -11.464  15.702  68.083  1.00  0.00    -0.325 C  
ENDBRANCH   7   8
BRANCH   7  12
HETATM   12  C   UNL     1      -9.118  13.715  67.691  1.00  0.00    -0.207 C  
HETATM   13  N   UNL     1      -8.551  13.058  66.615  1.00  0.00    -0.428 N  
HETATM   14  O   UNL     1      -9.799  13.100  68.507  1.00  0.00    -0.218 OA 
HETATM   15  H   UNL     1      -8.149  13.603  65.852  1.00  0.00     0.000 HD 
BRANCH  13  16
HETATM   16  C   UNL     1      -8.514  11.570  66.546  1.00  0.00    -0.160 C  
BRANCH  16  17
HETATM   17  C   UNL     1      -7.104  11.073  66.990  1.00  0.00    -0.118 C  
HETATM   18  H   UNL     1      -5.355  11.892  67.130  1.00  0.00     0.000 HD 
HETATM   19  O   UNL     1      -6.213  12.195  66.860  1.00  0.00    -0.141 OA 
BRANCH  17  20
HETATM   20  C   UNL     1      -7.082  10.538  68.447  1.00  0.00    -0.078 C  
BRANCH  20  21
HETATM   21  N   UNL     1      -7.823   9.271  68.715  1.00  0.00    -0.087 NA 
BRANCH  21  22
HETATM   22  N   UNL     1      -8.493   9.271  69.987  1.00  0.00    -0.156 N  
HETATM   23  C   UNL     1      -9.770   8.750  70.142  1.00  0.00    -0.172 C  
HETATM   24  H   UNL     1      -8.017   9.664  70.798  1.00  0.00     0.000 HD 
HETATM   25  O   UNL     1     -10.465   8.391  69.196  1.00  0.00    -0.220 OA 
BRANCH  23  26
HETATM   26  C   UNL     1     -10.264   8.756  71.616  1.00  0.00    -0.324 C  
BRANCH  26  27
HETATM   27  N   UNL     1     -11.725   8.703  71.621  1.00  0.00    -0.291 N  
HETATM   28  O   UNL     1     -12.100  10.955  71.546  1.00  0.00    -0.225 OA 
HETATM   29  C   UNL     1     -12.515   9.806  71.574  1.00  0.00    -0.403 C  
HETATM   30  H   UNL     1     -12.175   7.788  71.662  1.00  0.00     0.000 HD 
BRANCH  29  31
HETATM   31  O   UNL     1     -13.814   9.426  71.548  1.00  0.00    -0.336 OA 
HETATM   32  C   UNL     1     -14.028   8.013  71.600  1.00  0.00    -0.400 C  
ENDBRANCH  29  31
ENDBRANCH  26  27
BRANCH  26  33
HETATM   33  C   UNL     1      -9.630   7.626  72.491  1.00  0.00    -0.230 C  
HETATM   34  C   UNL     1      -8.910   6.535  71.673  1.00  0.00    -0.135 C  
HETATM   35  C   UNL     1      -8.630   8.259  73.482  1.00  0.00    -0.269 C  
HETATM   36  C   UNL     1     -10.730   6.925  73.318  1.00  0.00    -0.349 C  
ENDBRANCH  26  33
ENDBRANCH  23  26
ENDBRANCH  21  22
BRANCH  21  37
HETATM   37  C   UNL     1      -7.014   8.042  68.567  1.00  0.00    -0.072 C  
BRANCH  37  38
HETATM   38  C   UNL     1      -7.571   6.934  67.686  1.00  0.00    -0.110 A  
HETATM   39  C   UNL     1      -8.478   7.155  66.643  1.00  0.00    -0.121 A  
HETATM   40  C   UNL     1      -8.948   6.119  65.850  1.00  0.00    -0.133 A  
HETATM   41  C   UNL     1      -7.135   5.621  67.896  1.00  0.00    -0.071 A  
HETATM   42  C   UNL     1      -8.501   4.811  66.034  1.00  0.00    -0.116 A  
HETATM   43  C   UNL     1      -7.588   4.577  67.077  1.00  0.00    -0.086 A  
BRANCH  42  44
HETATM   44  C   UNL     1      -8.980   3.760  65.129  1.00  0.00    -0.132 A  
HETATM   45  C   UNL     1     -10.213   3.823  64.491  1.00  0.00    -0.209 A  
HETATM   46  C   UNL     1     -10.611   2.755  63.693  1.00  0.00    -0.183 A  
HETATM   47  C   UNL     1      -9.777   1.652  63.561  1.00  0.00    -0.118 A  
HETATM   48  C   UNL     1      -8.572   1.659  64.239  1.00  0.00    -0.084 A  
HETATM   49  N   UNL     1      -8.162   2.680  65.012  1.00  0.00    -0.086 NA 
ENDBRANCH  42  44
ENDBRANCH  37  38
ENDBRANCH  21  37
ENDBRANCH  20  21
ENDBRANCH  17  20
ENDBRANCH  16  17
BRANCH  16  50
HETATM   50  C   UNL     1      -9.046  11.026  65.192  1.00  0.00    -0.199 C  
BRANCH  50  51
HETATM   51  C   UNL     1     -10.362  11.628  64.769  1.00  0.00    -0.331 A  
HETATM   52  C   UNL     1     -10.595  12.005  63.439  1.00  0.00    -0.478 A  
HETATM   53  C   UNL     1     -12.658  13.070  64.072  1.00  0.00    -0.289 A  
HETATM   54  C   UNL     1     -11.354  11.882  65.724  1.00  0.00    -0.354 A  
HETATM   55  C   UNL     1     -11.715  12.756  63.100  1.00  0.00    -0.256 A  
HETATM   56  C   UNL     1     -12.498  12.600  65.375  1.00  0.00    -0.421 A  
ENDBRANCH  50  51
ENDBRANCH  16  50
ENDBRANCH  13  16
ENDBRANCH   7  12
ENDBRANCH   4   7
ENDBRANCH   2   3
TORSDOF 18
ENDMDL
MODEL        6
REMARK 921   NORMALIZED FREE ENERGY PREDICTED BY IDOCK:   -4.82 KCAL/MOL
REMARK 922        TOTAL FREE ENERGY PREDICTED BY IDOCK:  -14.62 KCAL/MOL
REMARK 923 INTER-LIGAND FREE ENERGY PREDICTED BY IDOCK:  -12.08 KCAL/MOL
REMARK 924 INTRA-LIGAND FREE ENERGY PREDICTED BY IDOCK:   -2.54 KCAL/MOL
REMARK 927      BINDING AFFINITY PREDICTED BY RF-SCORE:    0.00 PKD
ROOT
HETATM    1  C   UNL     1      -5.310  18.229  65.293  1.00  0.00    -0.160 C  
HETATM    2  O   UNL     1      -5.607  17.096  66.114  1.00  0.00    -0.321 OA 
ENDROOT
BRANCH   2   3
HETATM    3  C   UNL     1      -6.365  17.351  67.211  1.00  0.00    -0.145 C  
HETATM    4  N   UNL     1      -7.671  17.416  66.839  1.00  0.00    -0.201 N  
HETATM    5  O   UNL     1      -5.941  17.550  68.341  1.00  0.00    -0.162 OA 
HETATM    6  H   UNL     1      -7.926  17.099  65.903  1.00  0.00     0.000 HD 
BRANCH   4   7
HETATM    7  C   UNL     1      -8.725  17.917  67.713  1.00  0.00    -0.250 C  
BRANCH   7   8
HETATM    8  C   UNL     1      -9.558  19.075  67.034  1.00  0.00    -0.364 C  
HETATM    9  C   UNL     1     -10.257  19.909  68.127  1.00  0.00    -0.564 C  
HETATM   10  C   UNL     1     -10.615  18.563  66.031  1.00  0.00    -0.368 C  
HETATM   11  C   UNL     1      -8.651  20.044  66.238  1.00  0.00    -0.337 C  
ENDBRANCH   7   8
BRANCH   7  12
HETATM   12  C   UNL     1      -9.597  16.691  68.127  1.00  0.00    -0.228 C  
HETATM   13  N   UNL     1      -9.665  15.642  67.229  1.00  0.00    -0.218 N  
HETATM   14  O   UNL     1     -10.265  16.673  69.157  1.00  0.00    -0.278 OA 
HETATM   15  H   UNL     1      -9.257  15.751  66.301  1.00  0.00     0.000 HD 
BRANCH  13  16
HETATM   16  C   UNL     1     -10.324  14.354  67.588  1.00  0.00    -0.237 C  
BRANCH  16  17
HETATM   17  C   UNL     1      -9.298  13.191  67.421  1.00  0.00    -0.213 C  
HETATM   18  H   UNL     1      -7.463  13.074  66.812  1.00  0.00     0.000 HD 
HETATM   19  O   UNL     1      -8.088  13.782  66.914  1.00  0.00    -0.058 OA 
BRANCH  17  20
HETATM   20  C   UNL     1      -9.011  12.440  68.748  1.00  0.00     0.158 C  
BRANCH  20  21
HETATM   21  N   UNL     1      -9.159  10.956  68.732  1.00  0.00    -0.175 NA 
BRANCH  21  22
HETATM   22  N   UNL     1      -9.576  10.418  69.998  1.00  0.00    -0.376 N  
HETATM   23  C   UNL     1     -10.602   9.489  70.098  1.00  0.00    -0.254 C  
HETATM   24  H   UNL     1      -9.105  10.729  70.848  1.00  0.00     0.000 HD 
HETATM   25  O   UNL     1     -11.311   9.173  69.147  1.00  0.00     0.084 OA 
BRANCH  23  26
HETATM   26  C   UNL     1     -10.821   8.965  71.544  1.00  0.00    -0.326 C  
BRANCH  26  27
HETATM   27  N   UNL     1     -12.209   8.525  71.678  1.00  0.00    -0.306 N  
HETATM   28  O   UNL     1     -13.132  10.582  72.049  1.00  0.00    -0.467 OA 
HETATM   29  C   UNL     1     -13.245   9.373  71.907  1.00  0.00    -0.429 C  
HETATM   30  H   UNL     1     -12.410   7.528  71.595  1.00  0.00     0.000 HD 
BRANCH  29  31
HETATM   31  O   UNL     1     -14.401   8.670  71.936  1.00  0.00    -0.423 OA 
HETATM   32  C   UNL     1     -14.272   7.286  71.600  1.00  0.00    -0.409 C  
ENDBRANCH  29  31
ENDBRANCH  26  27
BRANCH  26  33
HETATM   33  C   UNL     1      -9.807   7.851  71.964  1.00  0.00    -0.250 C  
HETATM   34  C   UNL     1      -9.816   6.619  71.037  1.00  0.00    -0.196 C  
HETATM   35  C   UNL     1      -8.385   8.452  71.998  1.00  0.00    -0.231 C  
HETATM   36  C   UNL     1     -10.138   7.352  73.389  1.00  0.00    -0.389 C  
ENDBRANCH  26  33
ENDBRANCH  23  26
ENDBRANCH  21  22
BRANCH  21  37
HETATM   37  C   UNL     1      -7.971  10.226  68.237  1.00  0.00    -0.106 C  
BRANCH  37  38
HETATM   38  C   UNL     1      -8.198   8.866  67.596  1.00  0.00    -0.110 A  
HETATM   39  C   UNL     1      -8.729   8.692  66.312  1.00  0.00    -0.165 A  
HETATM   40  C   UNL     1      -8.902   7.434  65.755  1.00  0.00    -0.106 A  
HETATM   41  C   UNL     1      -7.827   7.715  68.302  1.00  0.00    -0.121 A  
HETATM   42  C   UNL     1      -8.513   6.284  66.440  1.00  0.00    -0.125 A  
HETATM   43  C   UNL     1      -7.976   6.445  67.728  1.00  0.00    -0.114 A  
BRANCH  42  44
HETATM   44  C   UNL     1      -8.658   4.980  65.783  1.00  0.00    -0.131 A  
HETATM   45  C   UNL     1      -7.595   4.319  65.178  1.00  0.00    -0.078 A  
HETATM   46  C   UNL     1      -7.835   3.112  64.529  1.00  0.00    -0.078 A  
HETATM   47  C   UNL     1      -9.126   2.602  64.491  1.00  0.00    -0.127 A  
HETATM   48  C   UNL     1     -10.133   3.325  65.104  1.00  0.00     0.178 A  
HETATM   49  N   UNL     1      -9.927   4.491  65.741  1.00  0.00    -0.220 NA 
ENDBRANCH  42  44
ENDBRANCH  37  38
ENDBRANCH  21  37
ENDBRANCH  20  21
ENDBRANCH  17  20
ENDBRANCH  16  17
BRANCH  16  50
HETATM   50  C   UNL     1     -11.697  14.173  66.885  1.00  0.00    -0.437 C  
BRANCH  50  51
HETATM   51  C   UNL     1     -11.666  13.202  65.731  1.00  0.00    -0.415 A  
HETATM   52  C   UNL     1     -11.323  11.856  65.923  1.00  0.00    -0.365 A  
HETATM   53  C   UNL     1     -11.261  11.504  63.544  1.00  0.00    -0.412 A  
HETATM   54  C   UNL     1     -11.918  13.654  64.430  1.00  0.00    -0.476 A  
HETATM   55  C   UNL     1     -11.082  11.023  64.836  1.00  0.00    -0.027 A  
HETATM   56  C   UNL     1     -11.716  12.805  63.341  1.00  0.00    -0.556 A  
ENDBRANCH  50  51
ENDBRANCH  16  50
ENDBRANCH  13  16
ENDBRANCH   7  12
ENDBRANCH   4   7
ENDBRANCH   2   3
TORSDOF 18
ENDMDL
MODEL        7
REMARK 921   NORMALIZED FREE ENERGY PREDICTED BY IDOCK:   -4.81 KCAL/MOL
REMARK 922        TOTAL FREE ENERGY PREDICTED BY IDOCK:  -14.60 KCAL/MOL
REMARK 923 INTER-LIGAND FREE ENERGY PREDICTED BY IDOCK:  -13.63 KCAL/MOL
REMARK 924 INTRA-LIGAND FREE ENERGY PREDICTED BY IDOCK:   -0.97 KCAL/MOL
REMARK 927      BINDING AFFINITY PREDICTED BY RF-SCORE:    0.00 PKD
ROOT
HETATM    1  C   UNL     1      -5.973  20.386  69.593  1.00  0.00    -0.349 C  
HETATM    2  O   UNL     1      -6.437  19.055  69.843  1.00  0.00    -0.217 OA 
ENDROOT
BRANCH   2   3
HETATM    3  C   UNL     1      -7.192  18.504  68.860  1.00  0.00    -0.279 C  
HETATM    4  N   UNL     1      -8.425  19.079  68.876  1.00  0.00    -0.307 N  
HETATM    5  O   UNL     1      -6.845  17.597  68.116  1.00  0.00    -0.196 OA 
HETATM    6  H   UNL     1      -8.563  19.916  69.442  1.00  0.00     0.000 HD 
BRANCH   4   7
HETATM    7  C   UNL     1      -9.559  18.554  68.125  1.00  0.00    -0.327 C  
BRANCH   7   8
HETATM    8  C   UNL     1      -9.316  18.615  66.565  1.00  0.00    -0.323 C  
HETATM    9  C   UNL     1      -8.761  17.260  66.081  1.00  0.00    -0.198 C  
HETATM   10  C   UNL     1      -8.350  19.742  66.138  1.00  0.00    -0.368 C  
HETATM   11  C   UNL     1     -10.632  18.866  65.789  1.00  0.00    -0.358 C  
ENDBRANCH   7   8
BRANCH   7  12
HETATM   12  C   UNL     1      -9.826  17.109  68.651  1.00  0.00    -0.300 C  
HETATM   13  N   UNL     1     -11.060  16.558  68.361  1.00  0.00    -0.359 N  
HETATM   14  O   UNL     1      -9.026  16.506  69.360  1.00  0.00    -0.147 OA 
HETATM   15  H   UNL     1     -11.780  17.140  67.932  1.00  0.00     0.000 HD 
BRANCH  13  16
HETATM   16  C   UNL     1     -11.362  15.129  68.662  1.00  0.00    -0.310 C  
BRANCH  16  17
HETATM   17  C   UNL     1     -11.038  14.263  67.406  1.00  0.00    -0.304 C  
HETATM   18  H   UNL     1     -10.933  14.612  65.503  1.00  0.00     0.000 HD 
HETATM   19  O   UNL     1     -11.130  15.140  66.268  1.00  0.00    -0.337 OA 
BRANCH  17  20
HETATM   20  C   UNL     1      -9.631  13.611  67.466  1.00  0.00    -0.220 C  
BRANCH  20  21
HETATM   21  N   UNL     1      -9.574  12.121  67.453  1.00  0.00    -0.176 NA 
BRANCH  21  22
HETATM   22  N   UNL     1      -9.792  11.539  68.749  1.00  0.00    -0.339 N  
HETATM   23  C   UNL     1     -10.907  10.759  69.025  1.00  0.00    -0.235 C  
HETATM   24  H   UNL     1      -9.109  11.704  69.488  1.00  0.00     0.000 HD 
HETATM   25  O   UNL     1     -11.842  10.632  68.241  1.00  0.00    -0.466 OA 
BRANCH  23  26
HETATM   26  C   UNL     1     -10.894  10.147  70.453  1.00  0.00    -0.301 C  
BRANCH  26  27
HETATM   27  N   UNL     1     -12.222   9.609  70.744  1.00  0.00    -0.421 N  
HETATM   28  O   UNL     1     -12.985  11.369  71.986  1.00  0.00    -0.442 OA 
HETATM   29  C   UNL     1     -13.155  10.272  71.476  1.00  0.00    -0.433 C  
HETATM   30  H   UNL     1     -12.460   8.687  70.378  1.00  0.00     0.000 HD 
BRANCH  29  31
HETATM   31  O   UNL     1     -14.289   9.534  71.529  1.00  0.00     0.006 OA 
HETATM   32  C   UNL     1     -14.084   8.123  71.647  1.00  0.00    -0.426 C  
ENDBRANCH  29  31
ENDBRANCH  26  27
BRANCH  26  33
HETATM   33  C   UNL     1      -9.768   9.084  70.665  1.00  0.00    -0.287 C  
HETATM   34  C   UNL     1      -8.341   9.646  70.499  1.00  0.00    -0.134 C  
HETATM   35  C   UNL     1      -9.912   8.474  72.076  1.00  0.00    -0.383 C  
HETATM   36  C   UNL     1      -9.929   7.938  69.641  1.00  0.00    -0.191 C  
ENDBRANCH  26  33
ENDBRANCH  23  26
ENDBRANCH  21  22
BRANCH  21  37
HETATM   37  C   UNL     1      -8.349  11.558  66.844  1.00  0.00    -0.166 C  
BRANCH  37  38
HETATM   38  C   UNL     1      -8.293  10.052  66.641  1.00  0.00    -0.125 A  
HETATM   39  C   UNL     1      -7.233   9.249  67.079  1.00  0.00    -0.087 A  
HETATM   40  C   UNL     1      -7.228   7.875  66.892  1.00  0.00    -0.089 A  
HETATM   41  C   UNL     1      -9.369   9.414  66.013  1.00  0.00    -0.279 A  
HETATM   42  C   UNL     1      -8.306   7.227  66.290  1.00  0.00    -0.129 A  
HETATM   43  C   UNL     1      -9.377   8.022  65.848  1.00  0.00    -0.093 A  
BRANCH  42  44
HETATM   44  C   UNL     1      -8.281   5.765  66.170  1.00  0.00    -0.111 A  
HETATM   45  C   UNL     1      -7.173   5.067  65.703  1.00  0.00    -0.068 A  
HETATM   46  C   UNL     1      -7.257   3.685  65.569  1.00  0.00    -0.071 A  
HETATM   47  C   UNL     1      -8.442   3.038  65.894  1.00  0.00    -0.110 A  
HETATM   48  C   UNL     1      -9.504   3.802  66.339  1.00  0.00    -0.183 A  
HETATM   49  N   UNL     1      -9.448   5.138  66.482  1.00  0.00    -0.139 NA 
ENDBRANCH  42  44
ENDBRANCH  37  38
ENDBRANCH  21  37
ENDBRANCH  20  21
ENDBRANCH  17  20
ENDBRANCH  16  17
BRANCH  16  50
HETATM   50  C   UNL     1     -12.770  14.940  69.289  1.00  0.00     0.253 C  
BRANCH  50  51
HETATM   51  C   UNL     1     -12.804  15.153  70.782  1.00  0.00    -0.473 A  
HETATM   52  C   UNL     1     -14.019  15.273  71.471  1.00  0.00    -0.627 A  
HETATM   53  C   UNL     1     -12.851  15.907  73.477  1.00  0.00    -0.705 A  
HETATM   54  C   UNL     1     -11.608  15.301  71.494  1.00  0.00    -0.456 A  
HETATM   55  C   UNL     1     -14.044  15.687  72.798  1.00  0.00    -0.442 A  
HETATM   56  C   UNL     1     -11.634  15.677  72.838  1.00  0.00    -0.408 A  
ENDBRANCH  50  51
ENDBRANCH  16  50
ENDBRANCH  13  16
ENDBRANCH   7  12
ENDBRANCH   4   7
ENDBRANCH   2   3
TORSDOF 18
ENDMDL
MODEL        8
REMARK 921   NORMALIZED FREE ENERGY PREDICTED BY IDOCK:   -4.71 KCAL/MOL
REMARK 922        TOTAL FREE ENERGY PREDICTED BY IDOCK:  -14.40 KCAL/MOL
REMARK 923 INTER-LIGAND FREE ENERGY PREDICTED BY IDOCK:  -11.59 KCAL/MOL
REMARK 924 INTRA-LIGAND FREE ENERGY PREDICTED BY IDOCK:   -2.80 KCAL/MOL
REMARK 927      BINDING AFFINITY PREDICTED BY RF-SCORE:    0.00 PKD
ROOT
HETATM    1  C   UNL     1      -7.790   3.353  65.551  1.00  0.00    -0.085 C  
HETATM    2  O   UNL     1      -8.386   4.501  64.940  1.00  0.00    -0.113 OA 
ENDROOT
BRANCH   2   3
HETATM    3  C   UNL     1      -8.758   5.491  65.791  1.00  0.00    -0.151 C  
HETATM    4  N   UNL     1      -7.646   6.000  66.387  1.00  0.00    -0.093 N  
HETATM    5  O   UNL     1      -9.908   5.832  66.032  1.00  0.00    -0.097 OA 
HETATM    6  H   UNL     1      -6.734   5.741  66.013  1.00  0.00     0.000 HD 
BRANCH   4   7
HETATM    7  C   UNL     1      -7.698   6.900  67.533  1.00  0.00    -0.111 C  
BRANCH   7   8
HETATM    8  C   UNL     1      -6.467   6.695  68.503  1.00  0.00    -0.049 C  
HETATM    9  C   UNL     1      -5.160   6.745  67.686  1.00  0.00    -0.008 C  
HETATM   10  C   UNL     1      -6.523   5.370  69.294  1.00  0.00    -0.038 C  
HETATM   11  C   UNL     1      -6.380   7.820  69.563  1.00  0.00    -0.034 C  
ENDBRANCH   7   8
BRANCH   7  12
HETATM   12  C   UNL     1      -7.805   8.351  66.971  1.00  0.00    -0.096 C  
HETATM   13  N   UNL     1      -9.072   8.899  66.896  1.00  0.00    -0.129 N  
HETATM   14  O   UNL     1      -6.835   8.963  66.533  1.00  0.00    -0.076 OA 
HETATM   15  H   UNL     1      -9.883   8.312  67.089  1.00  0.00     0.000 HD 
BRANCH  13  16
HETATM   16  C   UNL     1      -9.279  10.331  66.539  1.00  0.00    -0.153 C  
BRANCH  16  17
HETATM   17  C   UNL     1     -10.410  10.923  67.434  1.00  0.00    -0.211 C  
HETATM   18  H   UNL     1     -12.335  10.720  67.506  1.00  0.00     0.000 HD 
HETATM   19  O   UNL     1     -11.646  10.359  66.961  1.00  0.00    -0.080 OA 
BRANCH  17  20
HETATM   20  C   UNL     1     -10.219  10.604  68.941  1.00  0.00    -0.201 C  
BRANCH  20  21
HETATM   21  N   UNL     1     -11.309  11.031  69.867  1.00  0.00    -0.285 NA 
BRANCH  21  22
HETATM   22  N   UNL     1     -11.171  12.392  70.307  1.00  0.00    -0.187 N  
HETATM   23  C   UNL     1     -11.861  13.432  69.700  1.00  0.00    -0.331 C  
HETATM   24  H   UNL     1     -10.549  12.600  71.088  1.00  0.00     0.000 HD 
HETATM   25  O   UNL     1     -12.513  13.289  68.670  1.00  0.00    -0.013 OA 
BRANCH  23  26
HETATM   26  C   UNL     1     -11.647  14.804  70.397  1.00  0.00    -0.279 C  
BRANCH  26  27
HETATM   27  N   UNL     1     -11.744  15.861  69.391  1.00  0.00    -0.360 N  
HETATM   28  O   UNL     1      -9.515  16.348  69.263  1.00  0.00    -0.246 OA 
HETATM   29  C   UNL     1     -10.668  16.533  68.904  1.00  0.00    -0.337 C  
HETATM   30  H   UNL     1     -12.668  16.107  69.037  1.00  0.00     0.000 HD 
BRANCH  29  31
HETATM   31  O   UNL     1     -11.080  17.412  67.960  1.00  0.00    -0.259 OA 
HETATM   32  C   UNL     1     -10.133  17.660  66.916  1.00  0.00    -0.331 C  
ENDBRANCH  29  31
ENDBRANCH  26  27
BRANCH  26  33
HETATM   33  C   UNL     1     -12.611  15.049  71.603  1.00  0.00    -0.409 C  
HETATM   34  C   UNL     1     -12.986  13.764  72.371  1.00  0.00    -0.440 C  
HETATM   35  C   UNL     1     -11.954  16.049  72.578  1.00  0.00    -0.649 C  
HETATM   36  C   UNL     1     -13.928  15.680  71.101  1.00  0.00    -0.072 C  
ENDBRANCH  26  33
ENDBRANCH  23  26
ENDBRANCH  21  22
BRANCH  21  37
HETATM   37  C   UNL     1     -11.511  10.139  71.029  1.00  0.00    -0.354 C  
BRANCH  37  38
HETATM   38  C   UNL     1     -11.119   8.678  70.873  1.00  0.00    -0.310 A  
HETATM   39  C   UNL     1     -11.906   7.731  70.207  1.00  0.00     0.115 A  
HETATM   40  C   UNL     1     -11.503   6.411  70.070  1.00  0.00    -0.496 A  
HETATM   41  C   UNL     1      -9.890   8.249  71.389  1.00  0.00    -0.240 A  
HETATM   42  C   UNL     1     -10.270   5.980  70.557  1.00  0.00    -0.262 A  
HETATM   43  C   UNL     1      -9.470   6.922  71.225  1.00  0.00    -0.165 A  
BRANCH  42  44
HETATM   44  C   UNL     1      -9.862   4.589  70.331  1.00  0.00    -0.232 A  
HETATM   45  C   UNL     1      -9.648   4.064  69.061  1.00  0.00    -0.223 A  
HETATM   46  C   UNL     1      -9.317   2.719  68.937  1.00  0.00    -0.220 A  
HETATM   47  C   UNL     1      -9.218   1.931  70.078  1.00  0.00    -0.173 A  
HETATM   48  C   UNL     1      -9.459   2.523  71.303  1.00  0.00    -0.150 A  
HETATM   49  N   UNL     1      -9.775   3.822  71.451  1.00  0.00    -0.169 NA 
ENDBRANCH  42  44
ENDBRANCH  37  38
ENDBRANCH  21  37
ENDBRANCH  20  21
ENDBRANCH  17  20
ENDBRANCH  16  17
BRANCH  16  50
HETATM   50  C   UNL     1      -9.424  10.546  65.008  1.00  0.00    -0.296 C  
BRANCH  50  51
HETATM   51  C   UNL     1     -10.251  11.752  64.638  1.00  0.00    -0.326 A  
HETATM   52  C   UNL     1      -9.996  13.009  65.202  1.00  0.00    -0.170 A  
HETATM   53  C   UNL     1     -12.011  13.888  64.224  1.00  0.00    -0.477 A  
HETATM   54  C   UNL     1     -11.339  11.612  63.767  1.00  0.00    -0.482 A  
HETATM   55  C   UNL     1     -10.892  14.059  65.030  1.00  0.00    -0.401 A  
HETATM   56  C   UNL     1     -12.214  12.679  63.561  1.00  0.00    -0.638 A  
ENDBRANCH  50  51
ENDBRANCH  16  50
ENDBRANCH  13  16
ENDBRANCH   7  12
ENDBRANCH   4   7
ENDBRANCH   2   3
TORSDOF 18
ENDMDL
MODEL        9
REMARK 921   NORMALIZED FREE ENERGY PREDICTED BY IDOCK:   -4.62 KCAL/MOL
REMARK 922        TOTAL FREE ENERGY PREDICTED BY IDOCK:  -14.22 KCAL/MOL
REMARK 923 INTER-LIGAND FREE ENERGY PREDICTED BY IDOCK:  -11.56 KCAL/MOL
REMARK 924 INTRA-LIGAND FREE ENERGY PREDICTED BY IDOCK:   -2.65 KCAL/MOL
REMARK 927      BINDING AFFINITY PREDICTED BY RF-SCORE:    0.00 PKD
ROOT
HETATM    1  C   UNL     1     -10.818   4.221  64.895  1.00  0.00    -0.076 C  
HETATM    2  O   UNL     1      -9.551   4.362  64.245  1.00  0.00    -0.149 OA 
ENDROOT
BRANCH   2   3
HETATM    3  C   UNL     1      -8.608   5.044  64.943  1.00  0.00    -0.150 C  
HETATM    4  N   UNL     1      -8.760   6.374  64.704  1.00  0.00    -0.335 N  
HETATM    5  O   UNL     1      -7.727   4.544  65.629  1.00  0.00    -0.091 OA 
HETATM    6  H   UNL     1      -9.606   6.689  64.231  1.00  0.00     0.000 HD 
BRANCH   4   7
HETATM    7  C   UNL     1      -7.768   7.371  65.091  1.00  0.00    -0.112 C  
BRANCH   7   8
HETATM    8  C   UNL     1      -7.173   8.133  63.841  1.00  0.00    -0.091 C  
HETATM    9  C   UNL     1      -5.807   7.520  63.474  1.00  0.00    -0.049 C  
HETATM   10  C   UNL     1      -7.005   9.650  64.071  1.00  0.00    -0.113 C  
HETATM   11  C   UNL     1      -8.082   7.989  62.597  1.00  0.00    -0.152 C  
ENDBRANCH   7   8
BRANCH   7  12
HETATM   12  C   UNL     1      -8.454   8.320  66.123  1.00  0.00    -0.134 C  
HETATM   13  N   UNL     1      -7.825   8.473  67.345  1.00  0.00    -0.098 N  
HETATM   14  O   UNL     1      -9.542   8.850  65.912  1.00  0.00    -0.253 OA 
HETATM   15  H   UNL     1      -7.024   7.883  67.572  1.00  0.00     0.000 HD 
BRANCH  13  16
HETATM   16  C   UNL     1      -8.294   9.480  68.338  1.00  0.00    -0.118 C  
BRANCH  16  17
HETATM   17  C   UNL     1      -9.632   8.990  68.971  1.00  0.00    -0.160 C  
HETATM   18  H   UNL     1     -10.274   7.294  69.652  1.00  0.00     0.000 HD 
HETATM   19  O   UNL     1      -9.459   7.592  69.266  1.00  0.00    -0.158 OA 
BRANCH  17  20
HETATM   20  C   UNL     1     -10.013   9.766  70.260  1.00  0.00    -0.253 C  
BRANCH  20  21
HETATM   21  N   UNL     1     -11.435  10.194  70.397  1.00  0.00    -0.299 NA 
BRANCH  21  22
HETATM   22  N   UNL     1     -11.590  11.622  70.453  1.00  0.00    -0.503 N  
HETATM   23  C   UNL     1     -12.004  12.358  69.351  1.00  0.00    -0.260 C  
HETATM   24  H   UNL     1     -11.390  12.108  71.326  1.00  0.00     0.000 HD 
HETATM   25  O   UNL     1     -12.125  11.872  68.231  1.00  0.00    -0.485 OA 
BRANCH  23  26
HETATM   26  C   UNL     1     -12.203  13.868  69.658  1.00  0.00    -0.321 C  
BRANCH  26  27
HETATM   27  N   UNL     1     -12.151  14.063  71.107  1.00  0.00    -0.435 N  
HETATM   28  O   UNL     1     -14.377  14.466  71.427  1.00  0.00    -0.364 OA 
HETATM   29  C   UNL     1     -13.244  14.334  71.866  1.00  0.00    -0.375 C  
HETATM   30  H   UNL     1     -11.246  13.991  71.571  1.00  0.00     0.000 HD 
BRANCH  29  31
HETATM   31  O   UNL     1     -12.877  14.414  73.166  1.00  0.00    -0.484 OA 
HETATM   32  C   UNL     1     -12.076  15.552  73.496  1.00  0.00    -0.501 C  
ENDBRANCH  29  31
ENDBRANCH  26  27
BRANCH  26  33
HETATM   33  C   UNL     1     -11.197  14.796  68.902  1.00  0.00    -0.282 C  
HETATM   34  C   UNL     1      -9.737  14.301  68.950  1.00  0.00    -0.118 C  
HETATM   35  C   UNL     1     -11.642  14.926  67.430  1.00  0.00    -0.347 C  
HETATM   36  C   UNL     1     -11.220  16.210  69.525  1.00  0.00    -0.337 C  
ENDBRANCH  26  33
ENDBRANCH  23  26
ENDBRANCH  21  22
BRANCH  21  37
HETATM   37  C   UNL     1     -12.162   9.561  71.519  1.00  0.00    -0.386 C  
BRANCH  37  38
HETATM   38  C   UNL     1     -11.700   8.183  71.969  1.00  0.00    -0.389 A  
HETATM   39  C   UNL     1     -12.238   6.987  71.480  1.00  0.00    -0.407 A  
HETATM   40  C   UNL     1     -11.775   5.749  71.902  1.00  0.00    -0.117 A  
HETATM   41  C   UNL     1     -10.657   8.090  72.898  1.00  0.00    -0.399 A  
HETATM   42  C   UNL     1     -10.720   5.646  72.807  1.00  0.00    -0.283 A  
HETATM   43  C   UNL     1     -10.170   6.840  73.304  1.00  0.00    -0.271 A  
BRANCH  42  44
HETATM   44  C   UNL     1     -10.225   4.314  73.175  1.00  0.00    -0.159 A  
HETATM   45  C   UNL     1     -11.057   3.310  73.657  1.00  0.00    -0.316 A  
HETATM   46  C   UNL     1     -10.494   2.095  74.034  1.00  0.00    -0.200 A  
HETATM   47  C   UNL     1      -9.120   1.917  73.931  1.00  0.00    -0.067 A  
HETATM   48  C   UNL     1      -8.359   2.968  73.456  1.00  0.00    -0.073 A  
HETATM   49  N   UNL     1      -8.878   4.151  73.080  1.00  0.00    -0.102 NA 
ENDBRANCH  42  44
ENDBRANCH  37  38
ENDBRANCH  21  37
ENDBRANCH  20  21
ENDBRANCH  17  20
ENDBRANCH  16  17
BRANCH  16  50
HETATM   50  C   UNL     1      -8.286  10.924  67.767  1.00  0.00    -0.116 C  
BRANCH  50  51
HETATM   51  C   UNL     1      -7.164  11.782  68.298  1.00  0.00    -0.084 A  
HETATM   52  C   UNL     1      -6.713  11.653  69.618  1.00  0.00    -0.059 A  
HETATM   53  C   UNL     1      -5.343  13.615  69.372  1.00  0.00    -0.083 A  
HETATM   54  C   UNL     1      -6.599  12.774  67.487  1.00  0.00    -0.158 A  
HETATM   55  C   UNL     1      -5.840  12.587  70.165  1.00  0.00    -0.160 A  
HETATM   56  C   UNL     1      -5.691  13.686  68.025  1.00  0.00    -0.129 A  
ENDBRANCH  50  51
ENDBRANCH  16  50
ENDBRANCH  13  16
ENDBRANCH   7  12
ENDBRANCH   4   7
ENDBRANCH   2   3
TORSDOF 18
ENDMDL
MODEL       10
REMARK 921   NORMALIZED FREE ENERGY PREDICTED BY IDOCK:   -4.31 KCAL/MOL
REMARK 922        TOTAL FREE ENERGY PREDICTED BY IDOCK:  -13.58 KCAL/MOL
REMARK 923 INTER-LIGAND FREE ENERGY PREDICTED BY IDOCK:  -12.38 KCAL/MOL
REMARK 924 INTRA-LIGAND FREE ENERGY PREDICTED BY IDOCK:   -1.20 KCAL/MOL
REMARK 927      BINDING AFFINITY PREDICTED BY RF-SCORE:    0.00 PKD
ROOT
HETATM    1  C   UNL     1      -9.471   2.537  70.650  1.00  0.00    -0.127 C  
HETATM    2  O   UNL     1      -9.909   3.815  71.119  1.00  0.00    -0.181 OA 
ENDROOT
BRANCH   2   3
HETATM    3  C   UNL     1     -10.077   4.763  70.162  1.00  0.00    -0.240 C  
HETATM    4  N   UNL     1      -9.048   4.682  69.276  1.00  0.00    -0.101 N  
HETATM    5  O   UNL     1     -10.973   5.595  70.130  1.00  0.00    -0.313 OA 
HETATM    6  H   UNL     1      -8.435   3.868  69.317  1.00  0.00     0.000 HD 
BRANCH   4   7
HETATM    7  C   UNL     1      -8.780   5.704  68.270  1.00  0.00    -0.106 C  
BRANCH   7   8
HETATM    8  C   UNL     1      -9.493   5.386  66.897  1.00  0.00    -0.138 C  
HETATM    9  C   UNL     1      -9.631   3.858  66.735  1.00  0.00    -0.222 C  
HETATM   10  C   UNL     1      -8.751   5.962  65.672  1.00  0.00    -0.149 C  
HETATM   11  C   UNL     1     -10.923   5.976  66.844  1.00  0.00    -0.350 C  
ENDBRANCH   7   8
BRANCH   7  12
HETATM   12  C   UNL     1      -9.207   7.073  68.885  1.00  0.00    -0.136 C  
HETATM   13  N   UNL     1      -8.537   7.483  70.023  1.00  0.00    -0.138 N  
HETATM   14  O   UNL     1     -10.146   7.731  68.445  1.00  0.00    -0.180 OA 
HETATM   15  H   UNL     1      -7.890   6.840  70.480  1.00  0.00     0.000 HD 
BRANCH  13  16
HETATM   16  C   UNL     1      -8.739   8.844  70.595  1.00  0.00    -0.197 C  
BRANCH  16  17
HETATM   17  C   UNL     1      -7.392   9.627  70.540  1.00  0.00    -0.131 C  
HETATM   18  H   UNL     1      -5.538   9.169  70.861  1.00  0.00     0.000 HD 
HETATM   19  O   UNL     1      -6.359   8.692  70.895  1.00  0.00    -0.037 OA 
BRANCH  17  20
HETATM   20  C   UNL     1      -7.103  10.237  69.141  1.00  0.00    -0.074 C  
BRANCH  20  21
HETATM   21  N   UNL     1      -7.753  11.542  68.825  1.00  0.00    -0.137 NA 
BRANCH  21  22
HETATM   22  N   UNL     1      -8.382  11.557  67.532  1.00  0.00    -0.138 N  
HETATM   23  C   UNL     1      -9.754  11.710  67.387  1.00  0.00    -0.176 C  
HETATM   24  H   UNL     1      -7.804  11.454  66.699  1.00  0.00     0.000 HD 
HETATM   25  O   UNL     1     -10.531  11.696  68.336  1.00  0.00    -0.197 OA 
BRANCH  23  26
HETATM   26  C   UNL     1     -10.210  11.802  65.904  1.00  0.00    -0.237 C  
BRANCH  26  27
HETATM   27  N   UNL     1      -9.905  13.141  65.402  1.00  0.00    -0.485 N  
HETATM   28  O   UNL     1     -11.961  14.067  65.770  1.00  0.00    -0.367 OA 
HETATM   29  C   UNL     1     -10.804  14.159  65.389  1.00  0.00    -0.337 C  
HETATM   30  H   UNL     1      -8.967  13.319  65.042  1.00  0.00     0.000 HD 
BRANCH  29  31
HETATM   31  O   UNL     1     -10.208  15.276  64.909  1.00  0.00    -0.336 OA 
HETATM   32  C   UNL     1     -11.020  16.453  64.944  1.00  0.00    -0.263 C  
ENDBRANCH  29  31
ENDBRANCH  26  27
BRANCH  26  33
HETATM   33  C   UNL     1      -9.609  10.680  64.996  1.00  0.00    -0.319 C  
HETATM   34  C   UNL     1      -8.081  10.783  64.808  1.00  0.00     0.089 C  
HETATM   35  C   UNL     1      -9.954   9.303  65.601  1.00  0.00    -0.130 C  
HETATM   36  C   UNL     1     -10.246  10.748  63.590  1.00  0.00    -0.327 C  
ENDBRANCH  26  33
ENDBRANCH  23  26
ENDBRANCH  21  22
BRANCH  21  37
HETATM   37  C   UNL     1      -6.871  12.719  68.974  1.00  0.00    -0.081 C  
BRANCH  37  38
HETATM   38  C   UNL     1      -7.447  14.081  68.616  1.00  0.00    -0.125 A  
HETATM   39  C   UNL     1      -8.387  14.756  69.404  1.00  0.00     0.014 A  
HETATM   40  C   UNL     1      -8.874  16.007  69.052  1.00  0.00    -0.244 A  
HETATM   41  C   UNL     1      -6.997  14.721  67.456  1.00  0.00    -0.198 A  
HETATM   42  C   UNL     1      -8.413  16.664  67.912  1.00  0.00    -0.194 A  
HETATM   43  C   UNL     1      -7.468  15.997  67.115  1.00  0.00    -0.253 A  
BRANCH  42  44
HETATM   44  C   UNL     1      -8.913  18.011  67.616  1.00  0.00    -0.251 A  
HETATM   45  C   UNL     1      -9.810  18.679  68.443  1.00  0.00    -0.424 A  
HETATM   46  C   UNL     1     -10.274  19.932  68.056  1.00  0.00    -0.572 A  
HETATM   47  C   UNL     1      -9.841  20.481  66.856  1.00  0.00    -0.506 A  
HETATM   48  C   UNL     1      -8.959  19.750  66.083  1.00  0.00    -0.336 A  
HETATM   49  N   UNL     1      -8.492  18.539  66.435  1.00  0.00    -0.355 NA 
ENDBRANCH  42  44
ENDBRANCH  37  38
ENDBRANCH  21  37
ENDBRANCH  20  21
ENDBRANCH  17  20
ENDBRANCH  16  17
BRANCH  16  50
HETATM   50  C   UNL     1      -9.463   8.808  71.969  1.00  0.00    -0.336 C  
BRANCH  50  51
HETATM   51  C   UNL     1     -10.960   8.964  71.872  1.00  0.00    -0.439 A  
HETATM   52  C   UNL     1     -11.827   7.976  72.358  1.00  0.00    -0.429 A  
HETATM   53  C   UNL     1     -13.709   9.096  71.362  1.00  0.00    -0.326 A  
HETATM   54  C   UNL     1     -11.506  10.081  71.228  1.00  0.00    -0.390 A  
HETATM   55  C   UNL     1     -13.187   8.019  72.070  1.00  0.00    -0.279 A  
HETATM   56  C   UNL     1     -12.877  10.145  70.975  1.00  0.00    -0.474 A  
ENDBRANCH  50  51
ENDBRANCH  16  50
ENDBRANCH  13  16
ENDBRANCH   7  12
ENDBRANCH   4   7
ENDBRANCH   2   3
TORSDOF 18
ENDMDL
MODEL       11
REMARK 921   NORMALIZED FREE ENERGY PREDICTED BY IDOCK:   -4.06 KCAL/MOL
REMARK 922        TOTAL FREE ENERGY PREDICTED BY IDOCK:  -13.08 KCAL/MOL
REMARK 923 INTER-LIGAND FREE ENERGY PREDICTED BY IDOCK:  -10.18 KCAL/MOL
REMARK 924 INTRA-LIGAND FREE ENERGY PREDICTED BY IDOCK:   -2.90 KCAL/MOL
REMARK 927      BINDING AFFINITY PREDICTED BY RF-SCORE:    0.00 PKD
ROOT
HETATM    1  C   UNL     1      -9.461  16.569  67.215  1.00  0.00    -0.235 C  
HETATM    2  O   UNL     1      -9.315  15.495  66.281  1.00  0.00    -0.268 OA 
ENDROOT
BRANCH   2   3
HETATM    3  C   UNL     1     -10.332  14.596  66.260  1.00  0.00    -0.294 C  
HETATM    4  N   UNL     1      -9.811  13.340  66.301  1.00  0.00    -0.282 N  
HETATM    5  O   UNL     1     -11.521  14.865  66.160  1.00  0.00    -0.341 OA 
HETATM    6  H   UNL     1      -8.822  13.232  66.522  1.00  0.00     0.000 HD 
BRANCH   4   7
HETATM    7  C   UNL     1     -10.600  12.141  66.042  1.00  0.00    -0.257 C  
BRANCH   7   8
HETATM    8  C   UNL     1      -9.778  11.049  65.251  1.00  0.00    -0.286 C  
HETATM    9  C   UNL     1      -8.274  11.231  65.544  1.00  0.00     0.199 C  
HETATM   10  C   UNL     1     -10.007  11.094  63.725  1.00  0.00    -0.401 C  
HETATM   11  C   UNL     1     -10.154   9.615  65.696  1.00  0.00    -0.231 C  
ENDBRANCH   7   8
BRANCH   7  12
HETATM   12  C   UNL     1     -11.129  11.637  67.421  1.00  0.00    -0.281 C  
HETATM   13  N   UNL     1     -10.210  11.559  68.451  1.00  0.00    -0.199 N  
HETATM   14  O   UNL     1     -12.281  11.245  67.583  1.00  0.00    -0.423 OA 
HETATM   15  H   UNL     1      -9.222  11.711  68.252  1.00  0.00     0.000 HD 
BRANCH  13  16
HETATM   16  C   UNL     1     -10.634  11.257  69.848  1.00  0.00     0.313 C  
BRANCH  16  17
HETATM   17  C   UNL     1     -10.182   9.811  70.217  1.00  0.00    -0.289 C  
HETATM   18  H   UNL     1     -10.417   8.065  69.412  1.00  0.00     0.000 HD 
HETATM   19  O   UNL     1     -10.693   8.945  69.187  1.00  0.00    -0.217 OA 
BRANCH  17  20
HETATM   20  C   UNL     1      -8.640   9.666  70.321  1.00  0.00    -0.197 C  
BRANCH  20  21
HETATM   21  N   UNL     1      -7.844  10.011  69.107  1.00  0.00    -0.102 NA 
BRANCH  21  22
HETATM   22  N   UNL     1      -7.670   8.898  68.215  1.00  0.00    -0.095 N  
HETATM   23  C   UNL     1      -7.072   7.715  68.626  1.00  0.00    -0.080 C  
HETATM   24  H   UNL     1      -7.994   8.979  67.251  1.00  0.00     0.000 HD 
HETATM   25  O   UNL     1      -6.528   7.587  69.718  1.00  0.00    -0.034 OA 
BRANCH  23  26
HETATM   26  C   UNL     1      -7.077   6.609  67.534  1.00  0.00    -0.084 C  
BRANCH  26  27
HETATM   27  N   UNL     1      -8.463   6.234  67.254  1.00  0.00    -0.109 N  
HETATM   28  O   UNL     1      -8.418   4.181  68.257  1.00  0.00    -0.091 OA 
HETATM   29  C   UNL     1      -9.015   5.058  67.649  1.00  0.00    -0.110 C  
HETATM   30  H   UNL     1      -9.045   6.890  66.733  1.00  0.00     0.000 HD 
BRANCH  29  31
HETATM   31  O   UNL     1     -10.316   5.027  67.279  1.00  0.00    -0.188 OA 
HETATM   32  C   UNL     1     -10.888   6.306  66.985  1.00  0.00    -0.383 C  
ENDBRANCH  29  31
ENDBRANCH  26  27
BRANCH  26  33
HETATM   33  C   UNL     1      -6.301   7.009  66.238  1.00  0.00    -0.050 C  
HETATM   34  C   UNL     1      -5.239   8.106  66.461  1.00  0.00    -0.028 C  
HETATM   35  C   UNL     1      -5.619   5.754  65.652  1.00  0.00    -0.013 C  
HETATM   36  C   UNL     1      -7.291   7.542  65.178  1.00  0.00    -0.073 C  
ENDBRANCH  26  33
ENDBRANCH  23  26
ENDBRANCH  21  22
BRANCH  21  37
HETATM   37  C   UNL     1      -6.538  10.646  69.388  1.00  0.00    -0.075 C  
BRANCH  37  38
HETATM   38  C   UNL     1      -6.408  12.136  69.118  1.00  0.00    -0.094 A  
HETATM   39  C   UNL     1      -6.470  12.702  67.839  1.00  0.00    -0.113 A  
HETATM   40  C   UNL     1      -6.366  14.070  67.636  1.00  0.00    -0.134 A  
HETATM   41  C   UNL     1      -6.250  13.008  70.202  1.00  0.00    -0.033 A  
HETATM   42  C   UNL     1      -6.234  14.948  68.711  1.00  0.00    -0.083 A  
HETATM   43  C   UNL     1      -6.173  14.393  70.000  1.00  0.00    -0.158 A  
BRANCH  42  44
HETATM   44  C   UNL     1      -6.191  16.391  68.449  1.00  0.00    -0.127 A  
HETATM   45  C   UNL     1      -5.839  16.921  67.213  1.00  0.00    -0.198 A  
HETATM   46  C   UNL     1      -5.769  18.303  67.069  1.00  0.00    -0.159 A  
HETATM   47  C   UNL     1      -6.041  19.118  68.161  1.00  0.00    -0.232 A  
HETATM   48  C   UNL     1      -6.370  18.515  69.360  1.00  0.00    -0.258 A  
HETATM   49  N   UNL     1      -6.449  17.183  69.525  1.00  0.00    -0.233 NA 
ENDBRANCH  42  44
ENDBRANCH  37  38
ENDBRANCH  21  37
ENDBRANCH  20  21
ENDBRANCH  17  20
ENDBRANCH  16  17
BRANCH  16  50
HETATM   50  C   UNL     1     -12.127  11.602  70.103  1.00  0.00    -0.414 C  
BRANCH  50  51
HETATM   51  C   UNL     1     -12.345  12.991  70.649  1.00  0.00    -0.391 A  
HETATM   52  C   UNL     1     -13.130  13.208  71.789  1.00  0.00    -0.478 A  
HETATM   53  C   UNL     1     -13.037  15.586  71.436  1.00  0.00    -0.580 A  
HETATM   54  C   UNL     1     -11.813  14.098  69.977  1.00  0.00    -0.388 A  
HETATM   55  C   UNL     1     -13.508  14.495  72.157  1.00  0.00    -0.494 A  
HETATM   56  C   UNL     1     -12.159  15.391  70.371  1.00  0.00    -0.408 A  
ENDBRANCH  50  51
ENDBRANCH  16  50
ENDBRANCH  13  16
ENDBRANCH   7  12
ENDBRANCH   4   7
ENDBRANCH   2   3
TORSDOF 18
ENDMDL
MODEL       12
REMARK 921   NORMALIZED FREE ENERGY PREDICTED BY IDOCK:   -4.03 KCAL/MOL
REMARK 922        TOTAL FREE ENERGY PREDICTED BY IDOCK:  -13.00 KCAL/MOL
REMARK 923 INTER-LIGAND FREE ENERGY PREDICTED BY IDOCK:  -10.85 KCAL/MOL
REMARK 924 INTRA-LIGAND FREE ENERGY PREDICTED BY IDOCK:   -2.16 KCAL/MOL
REMARK 927      BINDING AFFINITY PREDICTED BY RF-SCORE:    0.00 PKD
ROOT
HETATM    1  C   UNL     1     -11.001   6.370  73.046  1.00  0.00    -0.238 C  
HETATM    2  O   UNL     1     -10.702   7.761  72.897  1.00  0.00    -0.326 OA 
ENDROOT
BRANCH   2   3
HETATM    3  C   UNL     1      -9.428   8.050  72.530  1.00  0.00    -0.232 C  
HETATM    4  N   UNL     1      -9.208   7.560  71.280  1.00  0.00    -0.149 N  
HETATM    5  O   UNL     1      -8.592   8.607  73.228  1.00  0.00    -0.375 OA 
HETATM    6  H   UNL     1     -10.009   7.238  70.737  1.00  0.00     0.000 HD 
BRANCH   4   7
HETATM    7  C   UNL     1      -7.881   7.473  70.681  1.00  0.00    -0.095 C  
BRANCH   7   8
HETATM    8  C   UNL     1      -7.380   5.979  70.563  1.00  0.00    -0.085 C  
HETATM    9  C   UNL     1      -6.350   5.875  69.419  1.00  0.00    -0.041 C  
HETATM   10  C   UNL     1      -8.520   4.968  70.313  1.00  0.00    -0.104 C  
HETATM   11  C   UNL     1      -6.669   5.509  71.855  1.00  0.00    -0.058 C  
ENDBRANCH   7   8
BRANCH   7  12
HETATM   12  C   UNL     1      -7.952   8.210  69.307  1.00  0.00    -0.115 C  
HETATM   13  N   UNL     1      -9.046   7.938  68.508  1.00  0.00    -0.133 N  
HETATM   14  O   UNL     1      -7.049   8.937  68.901  1.00  0.00    -0.064 OA 
HETATM   15  H   UNL     1      -9.690   7.194  68.778  1.00  0.00     0.000 HD 
BRANCH  13  16
HETATM   16  C   UNL     1      -9.306   8.707  67.258  1.00  0.00    -0.152 C  
BRANCH  16  17
HETATM   17  C   UNL     1     -10.766   9.254  67.289  1.00  0.00    -0.174 C  
HETATM   18  H   UNL     1     -11.877  10.091  68.638  1.00  0.00     0.000 HD 
HETATM   19  O   UNL     1     -10.987   9.758  68.619  1.00  0.00    -0.213 OA 
BRANCH  17  20
HETATM   20  C   UNL     1     -11.016  10.375  66.244  1.00  0.00     0.146 C  
BRANCH  20  21
HETATM   21  N   UNL     1     -10.498  11.734  66.573  1.00  0.00    -0.223 NA 
BRANCH  21  22
HETATM   22  N   UNL     1     -11.302  12.423  67.545  1.00  0.00    -0.294 N  
HETATM   23  C   UNL     1     -10.756  12.958  68.702  1.00  0.00    -0.247 C  
HETATM   24  H   UNL     1     -12.304  12.520  67.379  1.00  0.00     0.000 HD 
HETATM   25  O   UNL     1      -9.594  12.761  69.045  1.00  0.00     0.155 OA 
BRANCH  23  26
HETATM   26  C   UNL     1     -11.782  13.747  69.562  1.00  0.00    -0.323 C  
BRANCH  26  27
HETATM   27  N   UNL     1     -12.121  12.947  70.738  1.00  0.00    -0.492 N  
HETATM   28  O   UNL     1     -14.161  13.888  71.154  1.00  0.00     0.019 OA 
HETATM   29  C   UNL     1     -13.285  13.080  71.424  1.00  0.00    -0.192 C  
HETATM   30  H   UNL     1     -11.447  12.253  71.060  1.00  0.00     0.000 HD 
BRANCH  29  31
HETATM   31  O   UNL     1     -13.319  12.173  72.428  1.00  0.00    -0.427 OA 
HETATM   32  C   UNL     1     -13.282  10.806  72.006  1.00  0.00    -0.361 C  
ENDBRANCH  29  31
ENDBRANCH  26  27
BRANCH  26  33
HETATM   33  C   UNL     1     -11.301  15.184  69.945  1.00  0.00    -0.309 C  
HETATM   34  C   UNL     1     -11.905  16.298  69.065  1.00  0.00    -0.072 C  
HETATM   35  C   UNL     1     -11.656  15.457  71.422  1.00  0.00    -0.461 C  
HETATM   36  C   UNL     1      -9.765  15.277  69.807  1.00  0.00    -0.167 C  
ENDBRANCH  26  33
ENDBRANCH  23  26
ENDBRANCH  21  22
BRANCH  21  37
HETATM   37  C   UNL     1     -10.265  12.603  65.399  1.00  0.00    -0.284 C  
BRANCH  37  38
HETATM   38  C   UNL     1     -10.096  14.094  65.649  1.00  0.00    -0.350 A  
HETATM   39  C   UNL     1     -11.059  15.052  65.308  1.00  0.00    -0.391 A  
HETATM   40  C   UNL     1     -10.875  16.401  65.571  1.00  0.00    -0.224 A  
HETATM   41  C   UNL     1      -8.934  14.545  66.285  1.00  0.00    -0.077 A  
HETATM   42  C   UNL     1      -9.732  16.857  66.227  1.00  0.00    -0.301 A  
HETATM   43  C   UNL     1      -8.759  15.905  66.576  1.00  0.00    -0.350 A  
BRANCH  42  44
HETATM   44  C   UNL     1      -9.612  18.286  66.538  1.00  0.00    -0.320 A  
HETATM   45  C   UNL     1      -8.426  18.994  66.374  1.00  0.00    -0.312 A  
HETATM   46  C   UNL     1      -8.388  20.334  66.747  1.00  0.00    -0.317 A  
HETATM   47  C   UNL     1      -9.524  20.928  67.281  1.00  0.00    -0.377 A  
HETATM   48  C   UNL     1     -10.660  20.154  67.425  1.00  0.00    -0.197 A  
HETATM   49  N   UNL     1     -10.726  18.859  67.069  1.00  0.00    -0.434 NA 
ENDBRANCH  42  44
ENDBRANCH  37  38
ENDBRANCH  21  37
ENDBRANCH  20  21
ENDBRANCH  17  20
ENDBRANCH  16  17
BRANCH  16  50
HETATM   50  C   UNL     1      -8.885   7.928  65.982  1.00  0.00    -0.191 C  
BRANCH  50  51
HETATM   51  C   UNL     1      -8.990   6.430  66.123  1.00  0.00    -0.162 A  
HETATM   52  C   UNL     1     -10.191   5.818  66.505  1.00  0.00    -0.241 A  
HETATM   53  C   UNL     1      -9.074   3.699  66.729  1.00  0.00    -0.178 A  
HETATM   54  C   UNL     1      -7.857   5.630  65.935  1.00  0.00    -0.101 A  
HETATM   55  C   UNL     1     -10.225   4.470  66.846  1.00  0.00    -0.148 A  
HETATM   56  C   UNL     1      -7.901   4.268  66.237  1.00  0.00    -0.095 A  
ENDBRANCH  50  51
ENDBRANCH  16  50
ENDBRANCH  13  16
ENDBRANCH   7  12
ENDBRANCH   4   7
ENDBRANCH   2   3
TORSDOF 18
ENDMDL
MODEL       13
REMARK 921   NORMALIZED FREE ENERGY PREDICTED BY IDOCK:   -4.00 KCAL/MOL
REMARK 922        TOTAL FREE ENERGY PREDICTED BY IDOCK:  -12.94 KCAL/MOL
REMARK 923 INTER-LIGAND FREE ENERGY PREDICTED BY IDOCK:  -10.16 KCAL/MOL
REMARK 924 INTRA-LIGAND FREE ENERGY PREDICTED BY IDOCK:   -2.78 KCAL/MOL
REMARK 927      BINDING AFFINITY PREDICTED BY RF-SCORE:    0.00 PKD
ROOT
HETATM    1  C   UNL     1      -5.273  17.672  65.940  1.00  0.00    -0.165 C  
HETATM    2  O   UNL     1      -5.249  16.406  66.607  1.00  0.00    -0.336 OA 
ENDROOT
BRANCH   2   3
HETATM    3  C   UNL     1      -6.238  16.203  67.513  1.00  0.00    -0.162 C  
HETATM    4  N   UNL     1      -7.379  15.867  66.852  1.00  0.00    -0.206 N  
HETATM    5  O   UNL     1      -6.141  16.354  68.723  1.00  0.00    -0.123 OA 
HETATM    6  H   UNL     1      -7.315  15.635  65.861  1.00  0.00     0.000 HD 
BRANCH   4   7
HETATM    7  C   UNL     1      -8.688  15.823  67.493  1.00  0.00    -0.176 C  
BRANCH   7   8
HETATM    8  C   UNL     1      -9.749  16.717  66.736  1.00  0.00    -0.271 C  
HETATM    9  C   UNL     1     -10.291  15.943  65.517  1.00  0.00    -0.425 C  
HETATM   10  C   UNL     1      -9.183  18.074  66.265  1.00  0.00    -0.203 C  
HETATM   11  C   UNL     1     -10.963  17.050  67.636  1.00  0.00    -0.164 C  
ENDBRANCH   7   8
BRANCH   7  12
HETATM   12  C   UNL     1      -9.101  14.322  67.586  1.00  0.00    -0.192 C  
HETATM   13  N   UNL     1      -8.455  13.442  66.737  1.00  0.00    -0.426 N  
HETATM   14  O   UNL     1     -10.011  13.931  68.313  1.00  0.00    -0.226 OA 
HETATM   15  H   UNL     1      -7.838  13.810  66.013  1.00  0.00     0.000 HD 
BRANCH  13  16
HETATM   16  C   UNL     1      -8.643  11.969  66.856  1.00  0.00    -0.189 C  
BRANCH  16  17
HETATM   17  C   UNL     1      -7.326  11.328  67.391  1.00  0.00    -0.115 C  
HETATM   18  H   UNL     1      -5.620  12.024  67.989  1.00  0.00     0.000 HD 
HETATM   19  O   UNL     1      -6.422  12.414  67.663  1.00  0.00    -0.097 OA 
BRANCH  17  20
HETATM   20  C   UNL     1      -7.543  10.479  68.673  1.00  0.00    -0.099 C  
BRANCH  20  21
HETATM   21  N   UNL     1      -8.014   9.076  68.484  1.00  0.00    -0.102 NA 
BRANCH  21  22
HETATM   22  N   UNL     1      -8.467   8.466  69.704  1.00  0.00    -0.125 N  
HETATM   23  C   UNL     1      -9.605   7.673  69.748  1.00  0.00    -0.163 C  
HETATM   24  H   UNL     1      -7.938   8.621  70.562  1.00  0.00     0.000 HD 
HETATM   25  O   UNL     1     -10.374   7.555  68.799  1.00  0.00    -0.194 OA 
BRANCH  23  26
HETATM   26  C   UNL     1      -9.856   7.032  71.141  1.00  0.00    -0.176 C  
BRANCH  26  27
HETATM   27  N   UNL     1      -8.622   7.108  71.922  1.00  0.00    -0.116 N  
HETATM   28  O   UNL     1      -7.934   4.955  71.593  1.00  0.00    -0.105 OA 
HETATM   29  C   UNL     1      -7.763   6.067  72.070  1.00  0.00    -0.098 C  
HETATM   30  H   UNL     1      -8.394   7.991  72.379  1.00  0.00     0.000 HD 
BRANCH  29  31
HETATM   31  O   UNL     1      -6.699   6.465  72.806  1.00  0.00    -0.064 OA 
HETATM   32  C   UNL     1      -6.337   5.577  73.869  1.00  0.00    -0.064 C  
ENDBRANCH  29  31
ENDBRANCH  26  27
BRANCH  26  33
HETATM   33  C   UNL     1     -11.074   7.650  71.902  1.00  0.00    -0.290 C  
HETATM   34  C   UNL     1     -11.324   9.136  71.575  1.00  0.00    -0.439 C  
HETATM   35  C   UNL     1     -12.342   6.836  71.567  1.00  0.00    -0.407 C  
HETATM   36  C   UNL     1     -10.843   7.551  73.427  1.00  0.00    -0.339 C  
ENDBRANCH  26  33
ENDBRANCH  23  26
ENDBRANCH  21  22
BRANCH  21  37
HETATM   37  C   UNL     1      -7.046   8.189  67.802  1.00  0.00    -0.087 C  
BRANCH  37  38
HETATM   38  C   UNL     1      -7.605   7.062  66.948  1.00  0.00    -0.094 A  
HETATM   39  C   UNL     1      -8.031   7.228  65.625  1.00  0.00    -0.123 A  
HETATM   40  C   UNL     1      -8.517   6.169  64.873  1.00  0.00    -0.038 A  
HETATM   41  C   UNL     1      -7.670   5.773  67.490  1.00  0.00    -0.097 A  
HETATM   42  C   UNL     1      -8.562   4.877  65.395  1.00  0.00    -0.138 A  
HETATM   43  C   UNL     1      -8.135   4.697  66.721  1.00  0.00    -0.103 A  
BRANCH  42  44
HETATM   44  C   UNL     1      -9.026   3.780  64.539  1.00  0.00    -0.124 A  
HETATM   45  C   UNL     1      -8.163   2.835  63.994  1.00  0.00    -0.083 A  
HETATM   46  C   UNL     1      -8.682   1.861  63.147  1.00  0.00    -0.083 A  
HETATM   47  C   UNL     1     -10.041   1.859  62.859  1.00  0.00    -0.104 A  
HETATM   48  C   UNL     1     -10.831   2.839  63.428  1.00  0.00    -0.218 A  
HETATM   49  N   UNL     1     -10.356   3.790  64.253  1.00  0.00    -0.241 NA 
ENDBRANCH  42  44
ENDBRANCH  37  38
ENDBRANCH  21  37
ENDBRANCH  20  21
ENDBRANCH  17  20
ENDBRANCH  16  17
BRANCH  16  50
HETATM   50  C   UNL     1      -9.245  11.341  65.569  1.00  0.00    -0.220 C  
BRANCH  50  51
HETATM   51  C   UNL     1     -10.558  11.955  65.150  1.00  0.00    -0.333 A  
HETATM   52  C   UNL     1     -10.816  12.275  63.811  1.00  0.00    -0.495 A  
HETATM   53  C   UNL     1     -12.838  13.416  64.443  1.00  0.00    -0.014 A  
HETATM   54  C   UNL     1     -11.520  12.274  66.117  1.00  0.00    -0.429 A  
HETATM   55  C   UNL     1     -11.927  13.037  63.464  1.00  0.00    -0.615 A  
HETATM   56  C   UNL     1     -12.656  13.002  65.762  1.00  0.00    -0.269 A  
ENDBRANCH  50  51
ENDBRANCH  16  50
ENDBRANCH  13  16
ENDBRANCH   7  12
ENDBRANCH   4   7
ENDBRANCH   2   3
TORSDOF 18
ENDMDL
MODEL       14
REMARK 921   NORMALIZED FREE ENERGY PREDICTED BY IDOCK:   -3.85 KCAL/MOL
REMARK 922        TOTAL FREE ENERGY PREDICTED BY IDOCK:  -12.63 KCAL/MOL
REMARK 923 INTER-LIGAND FREE ENERGY PREDICTED BY IDOCK:  -11.98 KCAL/MOL
REMARK 924 INTRA-LIGAND FREE ENERGY PREDICTED BY IDOCK:   -0.65 KCAL/MOL
REMARK 927      BINDING AFFINITY PREDICTED BY RF-SCORE:    0.00 PKD
ROOT
HETATM    1  C   UNL     1     -10.958  17.561  67.823  1.00  0.00    -0.122 C  
HETATM    2  O   UNL     1     -11.813  16.538  68.342  1.00  0.00    -0.034 OA 
ENDROOT
BRANCH   2   3
HETATM    3  C   UNL     1     -11.328  15.856  69.411  1.00  0.00    -0.349 C  
HETATM    4  N   UNL     1     -12.176  14.834  69.704  1.00  0.00    -0.464 N  
HETATM    5  O   UNL     1     -10.324  16.146  70.047  1.00  0.00    -0.253 OA 
HETATM    6  H   UNL     1     -12.904  14.599  69.029  1.00  0.00     0.000 HD 
BRANCH   4   7
HETATM    7  C   UNL     1     -12.094  14.059  70.936  1.00  0.00    -0.329 C  
BRANCH   7   8
HETATM    8  C   UNL     1     -13.267  14.408  71.936  1.00  0.00    -0.444 C  
HETATM    9  C   UNL     1     -12.695  15.182  73.141  1.00  0.00    -0.592 C  
HETATM   10  C   UNL     1     -14.030  13.166  72.444  1.00  0.00    -0.497 C  
HETATM   11  C   UNL     1     -14.329  15.321  71.277  1.00  0.00    -0.488 C  
ENDBRANCH   7   8
BRANCH   7  12
HETATM   12  C   UNL     1     -12.061  12.554  70.527  1.00  0.00    -0.274 C  
HETATM   13  N   UNL     1     -10.938  12.115  69.850  1.00  0.00    -0.361 N  
HETATM   14  O   UNL     1     -13.011  11.797  70.713  1.00  0.00    -0.131 OA 
HETATM   15  H   UNL     1     -10.243  12.795  69.541  1.00  0.00     0.000 HD 
BRANCH  13  16
HETATM   16  C   UNL     1     -10.720  10.669  69.562  1.00  0.00    -0.251 C  
BRANCH  16  17
HETATM   17  C   UNL     1     -10.983  10.405  68.048  1.00  0.00    -0.291 C  
HETATM   18  H   UNL     1     -12.424  10.825  66.824  1.00  0.00     0.000 HD 
HETATM   19  O   UNL     1     -12.264  10.986  67.746  1.00  0.00    -0.333 OA 
BRANCH  17  20
HETATM   20  C   UNL     1      -9.890  11.013  67.128  1.00  0.00    -0.184 C  
BRANCH  20  21
HETATM   21  N   UNL     1      -8.576  10.308  67.081  1.00  0.00    -0.126 NA 
BRANCH  21  22
HETATM   22  N   UNL     1      -8.661   8.932  67.487  1.00  0.00    -0.123 N  
HETATM   23  C   UNL     1      -8.640   7.893  66.567  1.00  0.00    -0.142 C  
HETATM   24  H   UNL     1      -8.741   8.712  68.480  1.00  0.00     0.000 HD 
HETATM   25  O   UNL     1      -8.692   8.074  65.355  1.00  0.00    -0.147 OA 
BRANCH  23  26
HETATM   26  C   UNL     1      -8.640   6.486  67.226  1.00  0.00    -0.111 C  
BRANCH  26  27
HETATM   27  N   UNL     1      -7.666   6.479  68.316  1.00  0.00    -0.103 N  
HETATM   28  O   UNL     1      -5.842   5.885  67.075  1.00  0.00    -0.016 OA 
HETATM   29  C   UNL     1      -6.350   6.190  68.143  1.00  0.00    -0.043 C  
HETATM   30  H   UNL     1      -7.992   6.702  69.257  1.00  0.00     0.000 HD 
BRANCH  29  31
HETATM   31  O   UNL     1      -5.706   6.310  69.328  1.00  0.00    -0.018 OA 
HETATM   32  C   UNL     1      -6.469   5.913  70.471  1.00  0.00    -0.036 C  
ENDBRANCH  29  31
ENDBRANCH  26  27
BRANCH  26  33
HETATM   33  C   UNL     1     -10.055   6.018  67.697  1.00  0.00    -0.190 C  
HETATM   34  C   UNL     1     -11.211   6.563  66.833  1.00  0.00    -0.205 C  
HETATM   35  C   UNL     1     -10.102   4.475  67.692  1.00  0.00    -0.075 C  
HETATM   36  C   UNL     1     -10.307   6.490  69.146  1.00  0.00    -0.226 C  
ENDBRANCH  26  33
ENDBRANCH  23  26
ENDBRANCH  21  22
BRANCH  21  37
HETATM   37  C   UNL     1      -7.487  10.988  67.816  1.00  0.00    -0.094 C  
BRANCH  37  38
HETATM   38  C   UNL     1      -7.478  12.508  67.813  1.00  0.00    -0.130 A  
HETATM   39  C   UNL     1      -6.437  13.279  68.345  1.00  0.00    -0.091 A  
HETATM   40  C   UNL     1      -6.457  14.665  68.306  1.00  0.00    -0.121 A  
HETATM   41  C   UNL     1      -8.546  13.190  67.217  1.00  0.00    -0.210 A  
HETATM   42  C   UNL     1      -7.503  15.352  67.692  1.00  0.00    -0.195 A  
HETATM   43  C   UNL     1      -8.553  14.590  67.152  1.00  0.00    -0.242 A  
BRANCH  42  44
HETATM   44  C   UNL     1      -7.448  16.817  67.620  1.00  0.00    -0.153 A  
HETATM   45  C   UNL     1      -7.387  17.623  68.752  1.00  0.00    -0.261 A  
HETATM   46  C   UNL     1      -7.395  19.005  68.592  1.00  0.00    -0.353 A  
HETATM   47  C   UNL     1      -7.472  19.546  67.315  1.00  0.00    -0.260 A  
HETATM   48  C   UNL     1      -7.543  18.678  66.241  1.00  0.00    -0.263 A  
HETATM   49  N   UNL     1      -7.533  17.339  66.367  1.00  0.00    -0.274 NA 
ENDBRANCH  42  44
ENDBRANCH  37  38
ENDBRANCH  21  37
ENDBRANCH  20  21
ENDBRANCH  17  20
ENDBRANCH  16  17
BRANCH  16  50
HETATM   50  C   UNL     1     -11.464   9.746  70.565  1.00  0.00    -0.370 C  
BRANCH  50  51
HETATM   51  C   UNL     1     -10.544   8.916  71.425  1.00  0.00    -0.374 A  
HETATM   52  C   UNL     1     -11.042   8.117  72.463  1.00  0.00    -0.446 A  
HETATM   53  C   UNL     1      -8.807   7.672  73.234  1.00  0.00    -0.251 A  
HETATM   54  C   UNL     1      -9.158   8.986  71.236  1.00  0.00    -0.302 A  
HETATM   55  C   UNL     1     -10.182   7.533  73.386  1.00  0.00    -0.399 A  
HETATM   56  C   UNL     1      -8.294   8.365  72.138  1.00  0.00    -0.225 A  
ENDBRANCH  50  51
ENDBRANCH  16  50
ENDBRANCH  13  16
ENDBRANCH   7  12
ENDBRANCH   4   7
ENDBRANCH   2   3
TORSDOF 18
ENDMDL
MODEL       15
REMARK 921   NORMALIZED FREE ENERGY PREDICTED BY IDOCK:   -3.82 KCAL/MOL
REMARK 922        TOTAL FREE ENERGY PREDICTED BY IDOCK:  -12.58 KCAL/MOL
REMARK 923 INTER-LIGAND FREE ENERGY PREDICTED BY IDOCK:  -10.49 KCAL/MOL
REMARK 924 INTRA-LIGAND FREE ENERGY PREDICTED BY IDOCK:   -2.09 KCAL/MOL
REMARK 927      BINDING AFFINITY PREDICTED BY RF-SCORE:    0.00 PKD
ROOT
HETATM    1  C   UNL     1     -10.950   6.550  66.973  1.00  0.00    -0.396 C  
HETATM    2  O   UNL     1     -10.878   5.197  66.514  1.00  0.00    -0.258 OA 
ENDROOT
BRANCH   2   3
HETATM    3  C   UNL     1      -9.697   4.565  66.737  1.00  0.00    -0.206 C  
HETATM    4  N   UNL     1      -8.709   5.497  66.823  1.00  0.00    -0.114 N  
HETATM    5  O   UNL     1      -9.534   3.355  66.793  1.00  0.00    -0.191 OA 
HETATM    6  H   UNL     1      -8.973   6.478  66.902  1.00  0.00     0.000 HD 
BRANCH   4   7
HETATM    7  C   UNL     1      -7.291   5.157  66.809  1.00  0.00    -0.086 C  
BRANCH   7   8
HETATM    8  C   UNL     1      -6.464   6.107  65.855  1.00  0.00    -0.046 C  
HETATM    9  C   UNL     1      -5.479   5.261  65.022  1.00  0.00    -0.013 C  
HETATM   10  C   UNL     1      -5.680   7.202  66.610  1.00  0.00    -0.023 C  
HETATM   11  C   UNL     1      -7.379   6.851  64.853  1.00  0.00    -0.087 C  
ENDBRANCH   7   8
BRANCH   7  12
HETATM   12  C   UNL     1      -6.799   5.189  68.289  1.00  0.00    -0.056 C  
HETATM   13  N   UNL     1      -7.462   6.045  69.150  1.00  0.00    -0.084 N  
HETATM   14  O   UNL     1      -5.820   4.556  68.674  1.00  0.00    -0.023 OA 
HETATM   15  H   UNL     1      -8.149   6.698  68.773  1.00  0.00     0.000 HD 
BRANCH  13  16
HETATM   16  C   UNL     1      -7.194   6.033  70.616  1.00  0.00    -0.080 C  
BRANCH  16  17
HETATM   17  C   UNL     1      -6.096   7.092  70.942  1.00  0.00    -0.036 C  
HETATM   18  H   UNL     1      -4.944   8.229  69.879  1.00  0.00     0.000 HD 
HETATM   19  O   UNL     1      -5.612   7.584  69.680  1.00  0.00    -0.023 OA 
BRANCH  17  20
HETATM   20  C   UNL     1      -6.627   8.267  71.807  1.00  0.00    -0.064 C  
BRANCH  20  21
HETATM   21  N   UNL     1      -7.388   9.338  71.100  1.00  0.00    -0.283 NA 
BRANCH  21  22
HETATM   22  N   UNL     1      -8.802   9.086  71.055  1.00  0.00    -0.221 N  
HETATM   23  C   UNL     1      -9.523   8.746  72.192  1.00  0.00    -0.239 C  
HETATM   24  H   UNL     1      -9.291   9.159  70.163  1.00  0.00     0.000 HD 
HETATM   25  O   UNL     1      -8.991   8.498  73.269  1.00  0.00    -0.275 OA 
BRANCH  23  26
HETATM   26  C   UNL     1     -11.050   8.619  71.938  1.00  0.00    -0.346 C  
BRANCH  26  27
HETATM   27  N   UNL     1     -11.410   9.472  70.806  1.00  0.00    -0.296 N  
HETATM   28  O   UNL     1     -13.065  10.655  71.846  1.00  0.00    -0.469 OA 
HETATM   29  C   UNL     1     -12.378  10.422  70.862  1.00  0.00    -0.381 C  
HETATM   30  H   UNL     1     -10.908   9.345  69.927  1.00  0.00     0.000 HD 
BRANCH  29  31
HETATM   31  O   UNL     1     -12.441  11.068  69.674  1.00  0.00    -0.291 OA 
HETATM   32  C   UNL     1     -12.064  12.447  69.718  1.00  0.00    -0.223 C  
ENDBRANCH  29  31
ENDBRANCH  26  27
BRANCH  26  33
HETATM   33  C   UNL     1     -11.529   7.144  71.741  1.00  0.00    -0.301 C  
HETATM   34  C   UNL     1     -10.967   6.472  70.471  1.00  0.00    -0.348 C  
HETATM   35  C   UNL     1     -11.124   6.313  72.977  1.00  0.00    -0.237 C  
HETATM   36  C   UNL     1     -13.070   7.103  71.634  1.00  0.00    -0.410 C  
ENDBRANCH  26  33
ENDBRANCH  23  26
ENDBRANCH  21  22
BRANCH  21  37
HETATM   37  C   UNL     1      -6.886   9.656  69.746  1.00  0.00    -0.070 C  
BRANCH  37  38
HETATM   38  C   UNL     1      -7.887  10.186  68.731  1.00  0.00    -0.098 A  
HETATM   39  C   UNL     1      -8.282  11.527  68.658  1.00  0.00    -0.124 A  
HETATM   40  C   UNL     1      -9.184  11.975  67.704  1.00  0.00    -0.182 A  
HETATM   41  C   UNL     1      -8.426   9.302  67.788  1.00  0.00    -0.116 A  
HETATM   42  C   UNL     1      -9.706  11.108  66.745  1.00  0.00    -0.220 A  
HETATM   43  C   UNL     1      -9.316   9.759  66.806  1.00  0.00    -0.190 A  
BRANCH  42  44
HETATM   44  C   UNL     1     -10.608  11.642  65.718  1.00  0.00    -0.271 A  
HETATM   45  C   UNL     1     -11.698  12.451  66.022  1.00  0.00    -0.469 A  
HETATM   46  C   UNL     1     -12.533  12.867  64.990  1.00  0.00    -0.553 A  
HETATM   47  C   UNL     1     -12.268  12.460  63.689  1.00  0.00    -0.653 A  
HETATM   48  C   UNL     1     -11.173  11.644  63.470  1.00  0.00    -0.373 A  
HETATM   49  N   UNL     1     -10.347  11.232  64.448  1.00  0.00    -0.304 NA 
ENDBRANCH  42  44
ENDBRANCH  37  38
ENDBRANCH  21  37
ENDBRANCH  20  21
ENDBRANCH  17  20
ENDBRANCH  16  17
BRANCH  16  50
HETATM   50  C   UNL     1      -6.958   4.599  71.164  1.00  0.00    -0.039 C  
BRANCH  50  51
HETATM   51  C   UNL     1      -8.185   3.973  71.778  1.00  0.00    -0.090 A  
HETATM   52  C   UNL     1      -8.413   4.022  73.159  1.00  0.00    -0.093 A  
HETATM   53  C   UNL     1     -10.266   2.504  72.937  1.00  0.00    -0.230 A  
HETATM   54  C   UNL     1      -9.089   3.272  70.970  1.00  0.00    -0.183 A  
HETATM   55  C   UNL     1      -9.421   3.260  73.740  1.00  0.00    -0.120 A  
HETATM   56  C   UNL     1     -10.126   2.540  71.550  1.00  0.00    -0.003 A  
ENDBRANCH  50  51
ENDBRANCH  16  50
ENDBRANCH  13  16
ENDBRANCH   7  12
ENDBRANCH   4   7
ENDBRANCH   2   3
TORSDOF 18
ENDMDL
MODEL       16
REMARK 921   NORMALIZED FREE ENERGY PREDICTED BY IDOCK:   -3.74 KCAL/MOL
REMARK 922        TOTAL FREE ENERGY PREDICTED BY IDOCK:  -12.40 KCAL/MOL
REMARK 923 INTER-LIGAND FREE ENERGY PREDICTED BY IDOCK:  -11.08 KCAL/MOL
REMARK 924 INTRA-LIGAND FREE ENERGY PREDICTED BY IDOCK:   -1.32 KCAL/MOL
REMARK 927      BINDING AFFINITY PREDICTED BY RF-SCORE:    0.00 PKD
ROOT
HETATM    1  C   UNL     1      -9.459   2.513  70.793  1.00  0.00    -0.140 C  
HETATM    2  O   UNL     1      -9.301   3.903  71.091  1.00  0.00    -0.121 OA 
ENDROOT
BRANCH   2   3
HETATM    3  C   UNL     1      -9.618   4.757  70.084  1.00  0.00    -0.195 C  
HETATM    4  N   UNL     1      -8.591   4.787  69.193  1.00  0.00    -0.080 N  
HETATM    5  O   UNL     1     -10.633   5.435  70.016  1.00  0.00    -0.305 OA 
HETATM    6  H   UNL     1      -7.858   4.083  69.272  1.00  0.00     0.000 HD 
BRANCH   4   7
HETATM    7  C   UNL     1      -8.489   5.778  68.128  1.00  0.00    -0.109 C  
BRANCH   7   8
HETATM    8  C   UNL     1      -9.360   5.388  66.869  1.00  0.00    -0.127 C  
HETATM    9  C   UNL     1     -10.755   6.034  66.993  1.00  0.00    -0.412 C  
HETATM   10  C   UNL     1      -9.520   3.864  66.682  1.00  0.00    -0.217 C  
HETATM   11  C   UNL     1      -8.735   5.915  65.554  1.00  0.00    -0.133 C  
ENDBRANCH   7   8
BRANCH   7  12
HETATM   12  C   UNL     1      -8.883   7.155  68.747  1.00  0.00    -0.130 C  
HETATM   13  N   UNL     1      -8.376   7.444  70.001  1.00  0.00    -0.135 N  
HETATM   14  O   UNL     1      -9.670   7.924  68.202  1.00  0.00    -0.152 OA 
HETATM   15  H   UNL     1      -7.877   6.720  70.517  1.00  0.00     0.000 HD 
BRANCH  13  16
HETATM   16  C   UNL     1      -8.543   8.792  70.614  1.00  0.00    -0.178 C  
BRANCH  16  17
HETATM   17  C   UNL     1      -7.153   9.496  70.688  1.00  0.00    -0.123 C  
HETATM   18  H   UNL     1      -5.343   8.899  71.035  1.00  0.00     0.000 HD 
HETATM   19  O   UNL     1      -6.190   8.470  70.990  1.00  0.00    -0.034 OA 
BRANCH  17  20
HETATM   20  C   UNL     1      -6.769  10.218  69.369  1.00  0.00    -0.063 C  
BRANCH  20  21
HETATM   21  N   UNL     1      -7.237  11.625  69.207  1.00  0.00    -0.068 NA 
BRANCH  21  22
HETATM   22  N   UNL     1      -7.687  11.918  67.874  1.00  0.00    -0.121 N  
HETATM   23  C   UNL     1      -9.019  11.793  67.505  1.00  0.00    -0.168 C  
HETATM   24  H   UNL     1      -7.008  12.227  67.178  1.00  0.00     0.000 HD 
HETATM   25  O   UNL     1      -9.869  11.293  68.236  1.00  0.00    -0.182 OA 
BRANCH  23  26
HETATM   26  C   UNL     1      -9.304  12.257  66.050  1.00  0.00    -0.141 C  
BRANCH  26  27
HETATM   27  N   UNL     1      -9.473  11.075  65.206  1.00  0.00    -0.215 N  
HETATM   28  O   UNL     1      -7.287  10.411  65.191  1.00  0.00    -0.139 OA 
HETATM   29  C   UNL     1      -8.452  10.249  64.859  1.00  0.00    -0.177 C  
HETATM   30  H   UNL     1     -10.408  10.860  64.858  1.00  0.00     0.000 HD 
BRANCH  29  31
HETATM   31  O   UNL     1      -8.936   9.228  64.114  1.00  0.00    -0.191 OA 
HETATM   32  C   UNL     1      -8.879   9.437  62.699  1.00  0.00    -0.227 C  
ENDBRANCH  29  31
ENDBRANCH  26  27
BRANCH  26  33
HETATM   33  C   UNL     1     -10.512  13.242  65.934  1.00  0.00    -0.289 C  
HETATM   34  C   UNL     1     -10.240  14.635  66.539  1.00  0.00    -0.282 C  
HETATM   35  C   UNL     1     -10.892  13.400  64.447  1.00  0.00    -0.422 C  
HETATM   36  C   UNL     1     -11.737  12.657  66.671  1.00  0.00    -0.464 C  
ENDBRANCH  26  33
ENDBRANCH  23  26
ENDBRANCH  21  22
BRANCH  21  37
HETATM   37  C   UNL     1      -6.268  12.650  69.652  1.00  0.00    -0.122 C  
BRANCH  37  38
HETATM   38  C   UNL     1      -6.519  14.089  69.226  1.00  0.00    -0.114 A  
HETATM   39  C   UNL     1      -5.747  14.761  68.271  1.00  0.00    -0.116 A  
HETATM   40  C   UNL     1      -6.021  16.068  67.896  1.00  0.00    -0.150 A  
HETATM   41  C   UNL     1      -7.599  14.780  69.787  1.00  0.00     0.025 A  
HETATM   42  C   UNL     1      -7.109  16.757  68.430  1.00  0.00    -0.173 A  
HETATM   43  C   UNL     1      -7.893  16.091  69.388  1.00  0.00    -0.167 A  
BRANCH  42  44
HETATM   44  C   UNL     1      -7.394  18.115  67.955  1.00  0.00    -0.225 A  
HETATM   45  C   UNL     1      -8.344  18.386  66.976  1.00  0.00    -0.257 A  
HETATM   46  C   UNL     1      -8.510  19.699  66.546  1.00  0.00    -0.374 A  
HETATM   47  C   UNL     1      -7.720  20.702  67.093  1.00  0.00    -0.348 A  
HETATM   48  C   UNL     1      -6.789  20.351  68.052  1.00  0.00    -0.296 A  
HETATM   49  N   UNL     1      -6.612  19.092  68.489  1.00  0.00    -0.243 NA 
ENDBRANCH  42  44
ENDBRANCH  37  38
ENDBRANCH  21  37
ENDBRANCH  20  21
ENDBRANCH  17  20
ENDBRANCH  16  17
BRANCH  16  50
HETATM   50  C   UNL     1      -9.367   8.748  71.929  1.00  0.00    -0.343 C  
BRANCH  50  51
HETATM   51  C   UNL     1     -10.856   8.861  71.718  1.00  0.00    -0.436 A  
HETATM   52  C   UNL     1     -11.410   9.930  71.001  1.00  0.00    -0.460 A  
HETATM   53  C   UNL     1     -13.627   9.252  71.644  1.00  0.00    -0.448 A  
HETATM   54  C   UNL     1     -11.718   7.922  72.299  1.00  0.00    -0.408 A  
HETATM   55  C   UNL     1     -12.783  10.149  70.999  1.00  0.00    -0.481 A  
HETATM   56  C   UNL     1     -13.099   8.119  72.261  1.00  0.00    -0.204 A  
ENDBRANCH  50  51
ENDBRANCH  16  50
ENDBRANCH  13  16
ENDBRANCH   7  12
ENDBRANCH   4   7
ENDBRANCH   2   3
TORSDOF 18
ENDMDL
MODEL       17
REMARK 921   NORMALIZED FREE ENERGY PREDICTED BY IDOCK:   -3.73 KCAL/MOL
REMARK 922        TOTAL FREE ENERGY PREDICTED BY IDOCK:  -12.40 KCAL/MOL
REMARK 923 INTER-LIGAND FREE ENERGY PREDICTED BY IDOCK:  -10.09 KCAL/MOL
REMARK 924 INTRA-LIGAND FREE ENERGY PREDICTED BY IDOCK:   -2.31 KCAL/MOL
REMARK 927      BINDING AFFINITY PREDICTED BY RF-SCORE:    0.00 PKD
ROOT
HETATM    1  C   UNL     1      -8.299   8.000  73.874  1.00  0.00    -0.260 C  
HETATM    2  O   UNL     1      -8.046   8.597  72.599  1.00  0.00    -0.367 OA 
ENDROOT
BRANCH   2   3
HETATM    3  C   UNL     1      -7.606   7.750  71.633  1.00  0.00    -0.086 C  
HETATM    4  N   UNL     1      -8.466   7.799  70.580  1.00  0.00    -0.124 N  
HETATM    5  O   UNL     1      -6.631   7.017  71.715  1.00  0.00    -0.048 OA 
HETATM    6  H   UNL     1      -9.165   8.542  70.558  1.00  0.00     0.000 HD 
BRANCH   4   7
HETATM    7  C   UNL     1      -8.437   6.840  69.482  1.00  0.00    -0.133 C  
BRANCH   7   8
HETATM    8  C   UNL     1      -9.827   6.114  69.291  1.00  0.00    -0.182 C  
HETATM    9  C   UNL     1      -9.999   5.044  70.390  1.00  0.00    -0.317 C  
HETATM   10  C   UNL     1      -9.988   5.450  67.906  1.00  0.00    -0.202 C  
HETATM   11  C   UNL     1     -11.012   7.099  69.431  1.00  0.00    -0.189 C  
ENDBRANCH   7   8
BRANCH   7  12
HETATM   12  C   UNL     1      -7.966   7.614  68.212  1.00  0.00    -0.123 C  
HETATM   13  N   UNL     1      -8.543   7.251  67.009  1.00  0.00    -0.120 N  
HETATM   14  O   UNL     1      -7.068   8.451  68.243  1.00  0.00    -0.081 OA 
HETATM   15  H   UNL     1      -9.149   6.431  66.973  1.00  0.00     0.000 HD 
BRANCH  13  16
HETATM   16  C   UNL     1      -8.299   8.032  65.764  1.00  0.00    -0.138 C  
BRANCH  16  17
HETATM   17  C   UNL     1      -9.473   9.038  65.553  1.00  0.00    -0.150 C  
HETATM   18  H   UNL     1     -11.201   9.305  66.388  1.00  0.00     0.000 HD 
HETATM   19  O   UNL     1     -10.486   8.693  66.515  1.00  0.00    -0.249 OA 
BRANCH  17  20
HETATM   20  C   UNL     1      -9.042  10.518  65.737  1.00  0.00    -0.179 C  
BRANCH  20  21
HETATM   21  N   UNL     1      -8.912  11.016  67.136  1.00  0.00    -0.142 NA 
BRANCH  21  22
HETATM   22  N   UNL     1     -10.150  11.507  67.676  1.00  0.00    -0.182 N  
HETATM   23  C   UNL     1     -10.496  11.319  69.007  1.00  0.00    -0.194 C  
HETATM   24  H   UNL     1     -10.794  12.008  67.064  1.00  0.00     0.000 HD 
HETATM   25  O   UNL     1      -9.850  10.608  69.770  1.00  0.00    -0.107 OA 
BRANCH  23  26
HETATM   26  C   UNL     1     -11.826  12.017  69.404  1.00  0.00    -0.324 C  
BRANCH  26  27
HETATM   27  N   UNL     1     -12.212  11.566  70.740  1.00  0.00    -0.381 N  
HETATM   28  O   UNL     1     -13.489   9.787  70.091  1.00  0.00     0.313 OA 
HETATM   29  C   UNL     1     -13.000  10.484  70.967  1.00  0.00    -0.383 C  
HETATM   30  H   UNL     1     -11.870  12.093  71.545  1.00  0.00     0.000 HD 
BRANCH  29  31
HETATM   31  O   UNL     1     -13.137  10.301  72.301  1.00  0.00    -0.396 OA 
HETATM   32  C   UNL     1     -13.711   9.047  72.681  1.00  0.00    -0.359 C  
ENDBRANCH  29  31
ENDBRANCH  26  27
BRANCH  26  33
HETATM   33  C   UNL     1     -11.767  13.576  69.302  1.00  0.00    -0.382 C  
HETATM   34  C   UNL     1     -12.105  14.122  67.900  1.00  0.00    -0.309 C  
HETATM   35  C   UNL     1     -12.741  14.185  70.333  1.00  0.00    -0.341 C  
HETATM   36  C   UNL     1     -10.345  14.070  69.653  1.00  0.00     0.339 C  
ENDBRANCH  26  33
ENDBRANCH  23  26
ENDBRANCH  21  22
BRANCH  21  37
HETATM   37  C   UNL     1      -7.840  12.016  67.335  1.00  0.00    -0.162 C  
BRANCH  37  38
HETATM   38  C   UNL     1      -8.182  13.475  67.078  1.00  0.00    -0.050 A  
HETATM   39  C   UNL     1      -9.216  13.892  66.231  1.00  0.00    -0.114 A  
HETATM   40  C   UNL     1      -9.509  15.234  66.037  1.00  0.00    -0.372 A  
HETATM   41  C   UNL     1      -7.454  14.468  67.744  1.00  0.00    -0.182 A  
HETATM   42  C   UNL     1      -8.806  16.229  66.716  1.00  0.00    -0.263 A  
HETATM   43  C   UNL     1      -7.767  15.823  67.571  1.00  0.00    -0.186 A  
BRANCH  42  44
HETATM   44  C   UNL     1      -9.195  17.631  66.525  1.00  0.00    -0.269 A  
HETATM   45  C   UNL     1      -8.486  18.690  67.082  1.00  0.00    -0.272 A  
HETATM   46  C   UNL     1      -8.958  19.985  66.896  1.00  0.00    -0.449 A  
HETATM   47  C   UNL     1     -10.125  20.190  66.171  1.00  0.00    -0.532 A  
HETATM   48  C   UNL     1     -10.780  19.085  65.661  1.00  0.00    -0.182 A  
HETATM   49  N   UNL     1     -10.343  17.823  65.822  1.00  0.00    -0.609 NA 
ENDBRANCH  42  44
ENDBRANCH  37  38
ENDBRANCH  21  37
ENDBRANCH  20  21
ENDBRANCH  17  20
ENDBRANCH  16  17
BRANCH  16  50
HETATM   50  C   UNL     1      -7.940   7.125  64.555  1.00  0.00    -0.104 C  
BRANCH  50  51
HETATM   51  C   UNL     1      -7.806   5.665  64.909  1.00  0.00    -0.110 A  
HETATM   52  C   UNL     1      -8.804   4.741  64.570  1.00  0.00    -0.147 A  
HETATM   53  C   UNL     1      -7.717   3.043  65.883  1.00  0.00    -0.078 A  
HETATM   54  C   UNL     1      -6.701   5.223  65.646  1.00  0.00    -0.052 A  
HETATM   55  C   UNL     1      -8.781   3.451  65.087  1.00  0.00    -0.119 A  
HETATM   56  C   UNL     1      -6.659   3.915  66.131  1.00  0.00    -0.038 A  
ENDBRANCH  50  51
ENDBRANCH  16  50
ENDBRANCH  13  16
ENDBRANCH   7  12
ENDBRANCH   4   7
ENDBRANCH   2   3
TORSDOF 18
ENDMDL
MODEL       18
REMARK 921   NORMALIZED FREE ENERGY PREDICTED BY IDOCK:   -3.61 KCAL/MOL
REMARK 922        TOTAL FREE ENERGY PREDICTED BY IDOCK:  -12.15 KCAL/MOL
REMARK 923 INTER-LIGAND FREE ENERGY PREDICTED BY IDOCK:  -10.68 KCAL/MOL
REMARK 924 INTRA-LIGAND FREE ENERGY PREDICTED BY IDOCK:   -1.48 KCAL/MOL
REMARK 927      BINDING AFFINITY PREDICTED BY RF-SCORE:    0.00 PKD
ROOT
HETATM    1  C   UNL     1      -7.953   3.337  67.537  1.00  0.00    -0.077 C  
HETATM    2  O   UNL     1      -9.293   3.620  67.952  1.00  0.00    -0.167 OA 
ENDROOT
BRANCH   2   3
HETATM    3  C   UNL     1      -9.466   4.793  68.613  1.00  0.00    -0.150 C  
HETATM    4  N   UNL     1      -8.416   5.613  68.336  1.00  0.00    -0.105 N  
HETATM    5  O   UNL     1     -10.383   5.053  69.379  1.00  0.00    -0.226 OA 
HETATM    6  H   UNL     1      -7.782   5.353  67.581  1.00  0.00     0.000 HD 
BRANCH   4   7
HETATM    7  C   UNL     1      -8.154   6.846  69.069  1.00  0.00    -0.117 C  
BRANCH   7   8
HETATM    8  C   UNL     1      -6.643   6.961  69.516  1.00  0.00    -0.048 C  
HETATM    9  C   UNL     1      -5.808   7.529  68.349  1.00  0.00    -0.027 C  
HETATM   10  C   UNL     1      -6.034   5.617  69.970  1.00  0.00    -0.025 C  
HETATM   11  C   UNL     1      -6.469   7.932  70.709  1.00  0.00    -0.037 C  
ENDBRANCH   7   8
BRANCH   7  12
HETATM   12  C   UNL     1      -8.619   8.026  68.160  1.00  0.00    -0.126 C  
HETATM   13  N   UNL     1      -8.436   9.304  68.653  1.00  0.00    -0.122 N  
HETATM   14  O   UNL     1      -9.198   7.847  67.091  1.00  0.00    -0.138 OA 
HETATM   15  H   UNL     1      -8.126   9.429  69.616  1.00  0.00     0.000 HD 
BRANCH  13  16
HETATM   16  C   UNL     1      -8.684  10.506  67.806  1.00  0.00    -0.122 C  
BRANCH  16  17
HETATM   17  C   UNL     1      -9.858  11.329  68.418  1.00  0.00    -0.199 C  
HETATM   18  H   UNL     1     -11.124  12.618  67.719  1.00  0.00     0.000 HD 
HETATM   19  O   UNL     1     -10.409  12.116  67.347  1.00  0.00    -0.203 OA 
BRANCH  17  20
HETATM   20  C   UNL     1     -10.961  10.435  69.046  1.00  0.00    -0.238 C  
BRANCH  20  21
HETATM   21  N   UNL     1     -12.150  11.130  69.620  1.00  0.00    -0.336 NA 
BRANCH  21  22
HETATM   22  N   UNL     1     -11.802  12.278  70.412  1.00  0.00    -0.532 N  
HETATM   23  C   UNL     1     -12.157  13.566  70.033  1.00  0.00    -0.341 C  
HETATM   24  H   UNL     1     -11.279  12.144  71.277  1.00  0.00     0.000 HD 
HETATM   25  O   UNL     1     -12.657  13.826  68.943  1.00  0.00     0.008 OA 
BRANCH  23  26
HETATM   26  C   UNL     1     -11.772  14.645  71.082  1.00  0.00    -0.277 C  
BRANCH  26  27
HETATM   27  N   UNL     1     -11.554  15.915  70.389  1.00  0.00    -0.354 N  
HETATM   28  O   UNL     1      -9.469  15.451  69.579  1.00  0.00    -0.256 OA 
HETATM   29  C   UNL     1     -10.427  16.202  69.689  1.00  0.00    -0.291 C  
HETATM   30  H   UNL     1     -12.289  16.622  70.434  1.00  0.00     0.000 HD 
BRANCH  29  31
HETATM   31  O   UNL     1     -10.547  17.430  69.131  1.00  0.00    -0.321 OA 
HETATM   32  C   UNL     1      -9.986  17.552  67.821  1.00  0.00    -0.312 C  
ENDBRANCH  29  31
ENDBRANCH  26  27
BRANCH  26  33
HETATM   33  C   UNL     1     -12.806  14.780  72.247  1.00  0.00    -0.414 C  
HETATM   34  C   UNL     1     -13.303  13.427  72.798  1.00  0.00    -0.323 C  
HETATM   35  C   UNL     1     -12.169  15.592  73.394  1.00  0.00    -0.635 C  
HETATM   36  C   UNL     1     -14.049  15.557  71.757  1.00  0.00    -0.570 C  
ENDBRANCH  26  33
ENDBRANCH  23  26
ENDBRANCH  21  22
BRANCH  21  37
HETATM   37  C   UNL     1     -13.070  10.253  70.375  1.00  0.00    -0.035 C  
BRANCH  37  38
HETATM   38  C   UNL     1     -12.460   9.095  71.150  1.00  0.00    -0.315 A  
HETATM   39  C   UNL     1     -12.916   7.774  71.056  1.00  0.00    -0.068 A  
HETATM   40  C   UNL     1     -12.320   6.742  71.766  1.00  0.00    -0.400 A  
HETATM   41  C   UNL     1     -11.361   9.341  71.980  1.00  0.00    -0.235 A  
HETATM   42  C   UNL     1     -11.208   6.973  72.575  1.00  0.00    -0.312 A  
HETATM   43  C   UNL     1     -10.741   8.294  72.676  1.00  0.00    -0.384 A  
BRANCH  42  44
HETATM   44  C   UNL     1     -10.575   5.837  73.256  1.00  0.00    -0.254 A  
HETATM   45  C   UNL     1      -9.300   5.907  73.806  1.00  0.00    -0.131 A  
HETATM   46  C   UNL     1      -8.755   4.765  74.384  1.00  0.00    -0.112 A  
HETATM   47  C   UNL     1      -9.489   3.585  74.390  1.00  0.00    -0.122 A  
HETATM   48  C   UNL     1     -10.743   3.593  73.811  1.00  0.00    -0.224 A  
HETATM   49  N   UNL     1     -11.295   4.683  73.250  1.00  0.00    -0.325 NA 
ENDBRANCH  42  44
ENDBRANCH  37  38
ENDBRANCH  21  37
ENDBRANCH  20  21
ENDBRANCH  17  20
ENDBRANCH  16  17
BRANCH  16  50
HETATM   50  C   UNL     1      -8.796  10.155  66.297  1.00  0.00    -0.163 C  
BRANCH  50  51
HETATM   51  C   UNL     1      -7.560  10.491  65.501  1.00  0.00    -0.120 A  
HETATM   52  C   UNL     1      -7.537  10.364  64.105  1.00  0.00    -0.017 A  
HETATM   53  C   UNL     1      -5.165  10.767  64.079  1.00  0.00    -0.108 A  
HETATM   54  C   UNL     1      -6.386  10.876  66.161  1.00  0.00    -0.123 A  
HETATM   55  C   UNL     1      -6.341  10.460  63.403  1.00  0.00    -0.084 A  
HETATM   56  C   UNL     1      -5.194  11.013  65.450  1.00  0.00    -0.060 A  
ENDBRANCH  50  51
ENDBRANCH  16  50
ENDBRANCH  13  16
ENDBRANCH   7  12
ENDBRANCH   4   7
ENDBRANCH   2   3
TORSDOF 18
ENDMDL
MODEL       19
REMARK 921   NORMALIZED FREE ENERGY PREDICTED BY IDOCK:   -3.60 KCAL/MOL
REMARK 922        TOTAL FREE ENERGY PREDICTED BY IDOCK:  -12.12 KCAL/MOL
REMARK 923 INTER-LIGAND FREE ENERGY PREDICTED BY IDOCK:  -10.84 KCAL/MOL
REMARK 924 INTRA-LIGAND FREE ENERGY PREDICTED BY IDOCK:   -1.29 KCAL/MOL
REMARK 927      BINDING AFFINITY PREDICTED BY RF-SCORE:    0.00 PKD
ROOT
HETATM    1  C   UNL     1     -10.592  13.627  64.318  1.00  0.00    -0.225 C  
HETATM    2  O   UNL     1      -9.800  12.689  65.053  1.00  0.00    -0.190 OA 
ENDROOT
BRANCH   2   3
HETATM    3  C   UNL     1      -9.966  11.387  64.709  1.00  0.00    -0.267 C  
HETATM    4  N   UNL     1      -8.807  10.717  64.948  1.00  0.00    -0.193 N  
HETATM    5  O   UNL     1     -10.973  10.903  64.210  1.00  0.00    -0.235 OA 
HETATM    6  H   UNL     1      -8.080  11.182  65.491  1.00  0.00     0.000 HD 
BRANCH   4   7
HETATM    7  C   UNL     1      -8.554   9.365  64.463  1.00  0.00    -0.198 C  
BRANCH   7   8
HETATM    8  C   UNL     1      -7.448   9.336  63.335  1.00  0.00    -0.097 C  
HETATM    9  C   UNL     1      -7.600   8.045  62.504  1.00  0.00    -0.116 C  
HETATM   10  C   UNL     1      -6.008   9.419  63.886  1.00  0.00    -0.090 C  
HETATM   11  C   UNL     1      -7.598  10.524  62.355  1.00  0.00    -0.173 C  
ENDBRANCH   7   8
BRANCH   7  12
HETATM   12  C   UNL     1      -8.190   8.495  65.707  1.00  0.00    -0.125 C  
HETATM   13  N   UNL     1      -7.995   9.164  66.901  1.00  0.00    -0.104 N  
HETATM   14  O   UNL     1      -7.998   7.285  65.633  1.00  0.00    -0.107 OA 
HETATM   15  H   UNL     1      -7.976  10.184  66.905  1.00  0.00     0.000 HD 
BRANCH  13  16
HETATM   16  C   UNL     1      -7.814   8.426  68.183  1.00  0.00    -0.111 C  
BRANCH  16  17
HETATM   17  C   UNL     1      -9.187   8.328  68.915  1.00  0.00    -0.147 C  
HETATM   18  H   UNL     1     -10.084   6.954  69.945  1.00  0.00     0.000 HD 
HETATM   19  O   UNL     1      -9.248   7.014  69.499  1.00  0.00    -0.149 OA 
BRANCH  17  20
HETATM   20  C   UNL     1      -9.368   9.411  70.013  1.00  0.00    -0.226 C  
BRANCH  20  21
HETATM   21  N   UNL     1     -10.765   9.833  70.323  1.00  0.00    -0.279 NA 
BRANCH  21  22
HETATM   22  N   UNL     1     -11.014  11.216  70.020  1.00  0.00    -0.471 N  
HETATM   23  C   UNL     1     -12.263  11.793  70.203  1.00  0.00    -0.263 C  
HETATM   24  H   UNL     1     -10.252  11.790  69.661  1.00  0.00     0.000 HD 
HETATM   25  O   UNL     1     -13.262  11.143  70.492  1.00  0.00    -0.014 OA 
BRANCH  23  26
HETATM   26  C   UNL     1     -12.286  13.319  69.912  1.00  0.00    -0.246 C  
BRANCH  26  27
HETATM   27  N   UNL     1     -11.709  14.023  71.057  1.00  0.00    -0.497 N  
HETATM   28  O   UNL     1     -13.565  15.231  71.622  1.00  0.00    -0.415 OA 
HETATM   29  C   UNL     1     -12.402  14.909  71.818  1.00  0.00    -0.343 C  
HETATM   30  H   UNL     1     -10.735  13.839  71.297  1.00  0.00     0.000 HD 
BRANCH  29  31
HETATM   31  O   UNL     1     -11.610  15.353  72.822  1.00  0.00    -0.460 OA 
HETATM   32  C   UNL     1     -12.304  15.983  73.903  1.00  0.00    -0.584 C  
ENDBRANCH  29  31
ENDBRANCH  26  27
BRANCH  26  33
HETATM   33  C   UNL     1     -11.588  13.709  68.569  1.00  0.00    -0.371 C  
HETATM   34  C   UNL     1     -11.574  15.226  68.291  1.00  0.00    -0.357 C  
HETATM   35  C   UNL     1     -10.137  13.183  68.584  1.00  0.00    -0.146 C  
HETATM   36  C   UNL     1     -12.317  13.035  67.385  1.00  0.00     0.060 C  
ENDBRANCH  26  33
ENDBRANCH  23  26
ENDBRANCH  21  22
BRANCH  21  37
HETATM   37  C   UNL     1     -11.207   9.527  71.701  1.00  0.00    -0.308 C  
BRANCH  37  38
HETATM   38  C   UNL     1     -11.068   8.092  72.183  1.00  0.00    -0.372 A  
HETATM   39  C   UNL     1     -11.807   7.023  71.661  1.00  0.00    -0.348 A  
HETATM   40  C   UNL     1     -11.636   5.723  72.115  1.00  0.00    -0.265 A  
HETATM   41  C   UNL     1     -10.128   7.801  73.178  1.00  0.00    -0.390 A  
HETATM   42  C   UNL     1     -10.685   5.420  73.088  1.00  0.00    -0.309 A  
HETATM   43  C   UNL     1      -9.935   6.484  73.617  1.00  0.00    -0.252 A  
BRANCH  42  44
HETATM   44  C   UNL     1     -10.498   4.021  73.490  1.00  0.00    -0.183 A  
HETATM   45  C   UNL     1     -11.533   3.093  73.483  1.00  0.00    -0.163 A  
HETATM   46  C   UNL     1     -11.280   1.801  73.934  1.00  0.00    -0.261 A  
HETATM   47  C   UNL     1     -10.008   1.473  74.387  1.00  0.00    -0.115 A  
HETATM   48  C   UNL     1      -9.036   2.455  74.375  1.00  0.00    -0.073 A  
HETATM   49  N   UNL     1      -9.253   3.709  73.941  1.00  0.00    -0.089 NA 
ENDBRANCH  42  44
ENDBRANCH  37  38
ENDBRANCH  21  37
ENDBRANCH  20  21
ENDBRANCH  17  20
ENDBRANCH  16  17
BRANCH  16  50
HETATM   50  C   UNL     1      -6.622   8.971  69.018  1.00  0.00    -0.048 C  
BRANCH  50  51
HETATM   51  C   UNL     1      -6.299  10.419  68.744  1.00  0.00    -0.047 A  
HETATM   52  C   UNL     1      -5.798  10.829  67.502  1.00  0.00    -0.044 A  
HETATM   53  C   UNL     1      -5.368  13.031  68.370  1.00  0.00    -0.070 A  
HETATM   54  C   UNL     1      -6.437  11.370  69.762  1.00  0.00    -0.133 A  
HETATM   55  C   UNL     1      -5.297  12.114  67.328  1.00  0.00    -0.113 A  
HETATM   56  C   UNL     1      -5.973  12.672  69.573  1.00  0.00    -0.113 A  
ENDBRANCH  50  51
ENDBRANCH  16  50
ENDBRANCH  13  16
ENDBRANCH   7  12
ENDBRANCH   4   7
ENDBRANCH   2   3
TORSDOF 18
ENDMDL
MODEL       20
REMARK 921   NORMALIZED FREE ENERGY PREDICTED BY IDOCK:   -3.60 KCAL/MOL
REMARK 922        TOTAL FREE ENERGY PREDICTED BY IDOCK:  -12.12 KCAL/MOL
REMARK 923 INTER-LIGAND FREE ENERGY PREDICTED BY IDOCK:  -11.25 KCAL/MOL
REMARK 924 INTRA-LIGAND FREE ENERGY PREDICTED BY IDOCK:   -0.87 KCAL/MOL
REMARK 927      BINDING AFFINITY PREDICTED BY RF-SCORE:    0.00 PKD
ROOT
HETATM    1  C   UNL     1      -5.872   8.841  69.798  1.00  0.00    -0.028 C  
HETATM    2  O   UNL     1      -5.659   7.427  69.836  1.00  0.00    -0.023 OA 
ENDROOT
BRANCH   2   3
HETATM    3  C   UNL     1      -6.760   6.663  69.623  1.00  0.00    -0.050 C  
HETATM    4  N   UNL     1      -6.834   6.355  68.300  1.00  0.00    -0.068 N  
HETATM    5  O   UNL     1      -7.586   6.349  70.469  1.00  0.00    -0.091 OA 
HETATM    6  H   UNL     1      -6.025   6.549  67.711  1.00  0.00     0.000 HD 
BRANCH   4   7
HETATM    7  C   UNL     1      -8.016   5.762  67.685  1.00  0.00    -0.102 C  
BRANCH   7   8
HETATM    8  C   UNL     1      -8.176   4.236  68.058  1.00  0.00    -0.093 C  
HETATM    9  C   UNL     1      -9.200   4.095  69.204  1.00  0.00    -0.211 C  
HETATM   10  C   UNL     1      -6.850   3.564  68.476  1.00  0.00    -0.046 C  
HETATM   11  C   UNL     1      -8.716   3.408  66.867  1.00  0.00    -0.130 C  
ENDBRANCH   7   8
BRANCH   7  12
HETATM   12  C   UNL     1      -9.238   6.633  68.111  1.00  0.00    -0.117 C  
HETATM   13  N   UNL     1      -8.966   7.908  68.572  1.00  0.00    -0.134 N  
HETATM   14  O   UNL     1     -10.387   6.199  68.123  1.00  0.00    -0.157 OA 
HETATM   15  H   UNL     1      -7.998   8.186  68.731  1.00  0.00     0.000 HD 
BRANCH  13  16
HETATM   16  C   UNL     1     -10.058   8.885  68.844  1.00  0.00    -0.197 C  
BRANCH  16  17
HETATM   17  C   UNL     1     -10.113   9.925  67.683  1.00  0.00    -0.197 C  
HETATM   18  H   UNL     1     -10.938   9.965  65.931  1.00  0.00     0.000 HD 
HETATM   19  O   UNL     1     -10.904   9.332  66.638  1.00  0.00    -0.072 OA 
BRANCH  17  20
HETATM   20  C   UNL     1     -10.729  11.283  68.115  1.00  0.00    -0.204 C  
BRANCH  20  21
HETATM   21  N   UNL     1      -9.831  12.473  68.087  1.00  0.00    -0.217 NA 
BRANCH  21  22
HETATM   22  N   UNL     1     -10.122  13.422  69.127  1.00  0.00    -0.413 N  
HETATM   23  C   UNL     1     -11.383  13.982  69.276  1.00  0.00    -0.273 C  
HETATM   24  H   UNL     1      -9.381  13.692  69.773  1.00  0.00     0.000 HD 
HETATM   25  O   UNL     1     -12.285  13.822  68.460  1.00  0.00    -0.348 OA 
BRANCH  23  26
HETATM   26  C   UNL     1     -11.506  14.901  70.523  1.00  0.00    -0.262 C  
BRANCH  26  27
HETATM   27  N   UNL     1     -11.472  16.295  70.082  1.00  0.00    -0.415 N  
HETATM   28  O   UNL     1      -9.225  16.421  69.687  1.00  0.00    -0.036 OA 
HETATM   29  C   UNL     1     -10.336  16.930  69.692  1.00  0.00    -0.111 C  
HETATM   30  H   UNL     1     -12.347  16.819  70.066  1.00  0.00     0.000 HD 
BRANCH  29  31
HETATM   31  O   UNL     1     -10.639  18.190  69.301  1.00  0.00    -0.006 OA 
HETATM   32  C   UNL     1      -9.510  19.048  69.111  1.00  0.00    -0.190 C  
ENDBRANCH  29  31
ENDBRANCH  26  27
BRANCH  26  33
HETATM   33  C   UNL     1     -12.760  14.593  71.404  1.00  0.00    -0.403 C  
HETATM   34  C   UNL     1     -13.116  13.094  71.479  1.00  0.00    -0.404 C  
HETATM   35  C   UNL     1     -12.516  15.128  72.831  1.00  0.00    -0.507 C  
HETATM   36  C   UNL     1     -13.994  15.327  70.834  1.00  0.00    -0.250 C  
ENDBRANCH  26  33
ENDBRANCH  23  26
ENDBRANCH  21  22
BRANCH  21  37
HETATM   37  C   UNL     1      -9.760  13.160  66.779  1.00  0.00    -0.246 C  
BRANCH  37  38
HETATM   38  C   UNL     1      -9.014  14.483  66.718  1.00  0.00    -0.270 A  
HETATM   39  C   UNL     1      -7.672  14.635  67.085  1.00  0.00    -0.121 A  
HETATM   40  C   UNL     1      -7.021  15.857  66.996  1.00  0.00    -0.173 A  
HETATM   41  C   UNL     1      -9.684  15.615  66.237  1.00  0.00    -0.328 A  
HETATM   42  C   UNL     1      -7.672  16.984  66.495  1.00  0.00    -0.327 A  
HETATM   43  C   UNL     1      -9.019  16.844  66.121  1.00  0.00    -0.271 A  
BRANCH  42  44
HETATM   44  C   UNL     1      -6.922  18.238  66.362  1.00  0.00    -0.235 A  
HETATM   45  C   UNL     1      -6.103  18.735  67.370  1.00  0.00    -0.171 A  
HETATM   46  C   UNL     1      -5.473  19.961  67.180  1.00  0.00    -0.168 A  
HETATM   47  C   UNL     1      -5.684  20.662  66.000  1.00  0.00    -0.236 A  
HETATM   48  C   UNL     1      -6.523  20.108  65.052  1.00  0.00    -0.289 A  
HETATM   49  N   UNL     1      -7.140  18.923  65.207  1.00  0.00    -0.468 NA 
ENDBRANCH  42  44
ENDBRANCH  37  38
ENDBRANCH  21  37
ENDBRANCH  20  21
ENDBRANCH  17  20
ENDBRANCH  16  17
BRANCH  16  50
HETATM   50  C   UNL     1      -9.996   9.459  70.285  1.00  0.00    -0.284 C  
BRANCH  50  51
HETATM   51  C   UNL     1     -10.383   8.466  71.353  1.00  0.00    -0.285 A  
HETATM   52  C   UNL     1      -9.669   8.376  72.555  1.00  0.00    -0.359 A  
HETATM   53  C   UNL     1     -10.881   6.388  73.160  1.00  0.00    -0.282 A  
HETATM   54  C   UNL     1     -11.432   7.568  71.124  1.00  0.00    -0.295 A  
HETATM   55  C   UNL     1      -9.887   7.321  73.434  1.00  0.00    -0.324 A  
HETATM   56  C   UNL     1     -11.679   6.533  72.027  1.00  0.00    -0.367 A  
ENDBRANCH  50  51
ENDBRANCH  16  50
ENDBRANCH  13  16
ENDBRANCH   7  12
ENDBRANCH   4   7
ENDBRANCH   2   3
TORSDOF 18
ENDMDL
MODEL       21
REMARK 921   NORMALIZED FREE ENERGY PREDICTED BY IDOCK:   -3.58 KCAL/MOL
REMARK 922        TOTAL FREE ENERGY PREDICTED BY IDOCK:  -12.08 KCAL/MOL
REMARK 923 INTER-LIGAND FREE ENERGY PREDICTED BY IDOCK:  -11.89 KCAL/MOL
REMARK 924 INTRA-LIGAND FREE ENERGY PREDICTED BY IDOCK:   -0.19 KCAL/MOL
REMARK 927      BINDING AFFINITY PREDICTED BY RF-SCORE:    0.00 PKD
ROOT
HETATM    1  C   UNL     1      -6.897   3.860  70.472  1.00  0.00    -0.033 C  
HETATM    2  O   UNL     1      -8.327   3.860  70.507  1.00  0.00    -0.060 OA 
ENDROOT
BRANCH   2   3
HETATM    3  C   UNL     1      -8.939   4.469  69.460  1.00  0.00    -0.094 C  
HETATM    4  N   UNL     1      -8.000   4.796  68.531  1.00  0.00    -0.084 N  
HETATM    5  O   UNL     1     -10.130   4.735  69.385  1.00  0.00    -0.218 OA 
HETATM    6  H   UNL     1      -7.063   4.406  68.630  1.00  0.00     0.000 HD 
BRANCH   4   7
HETATM    7  C   UNL     1      -8.270   5.678  67.402  1.00  0.00    -0.101 C  
BRANCH   7   8
HETATM    8  C   UNL     1      -8.976   4.917  66.211  1.00  0.00    -0.121 C  
HETATM    9  C   UNL     1      -8.574   5.575  64.875  1.00  0.00    -0.111 C  
HETATM   10  C   UNL     1     -10.516   4.894  66.324  1.00  0.00    -0.349 C  
HETATM   11  C   UNL     1      -8.533   3.435  66.134  1.00  0.00    -0.110 C  
ENDBRANCH   7   8
BRANCH   7  12
HETATM   12  C   UNL     1      -9.105   6.877  67.948  1.00  0.00    -0.122 C  
HETATM   13  N   UNL     1      -8.504   7.670  68.908  1.00  0.00    -0.129 N  
HETATM   14  O   UNL     1     -10.270   7.076  67.617  1.00  0.00    -0.164 OA 
HETATM   15  H   UNL     1      -7.610   7.382  69.306  1.00  0.00     0.000 HD 
BRANCH  13  16
HETATM   16  C   UNL     1      -9.135   8.937  69.375  1.00  0.00    -0.145 C  
BRANCH  16  17
HETATM   17  C   UNL     1      -8.401  10.146  68.718  1.00  0.00    -0.122 C  
HETATM   18  H   UNL     1      -6.832  10.339  67.600  1.00  0.00     0.000 HD 
HETATM   19  O   UNL     1      -7.279   9.603  68.000  1.00  0.00    -0.079 OA 
BRANCH  17  20
HETATM   20  C   UNL     1      -9.311  10.956  67.756  1.00  0.00    -0.157 C  
BRANCH  20  21
HETATM   21  N   UNL     1      -9.314  12.439  67.916  1.00  0.00    -0.189 NA 
BRANCH  21  22
HETATM   22  N   UNL     1     -10.279  12.899  68.877  1.00  0.00    -0.432 N  
HETATM   23  C   UNL     1     -11.601  13.139  68.531  1.00  0.00    -0.326 C  
HETATM   24  H   UNL     1      -9.984  13.054  69.841  1.00  0.00     0.000 HD 
HETATM   25  O   UNL     1     -12.002  13.116  67.372  1.00  0.00    -0.365 OA 
BRANCH  23  26
HETATM   26  C   UNL     1     -12.494  13.530  69.741  1.00  0.00    -0.098 C  
BRANCH  26  27
HETATM   27  N   UNL     1     -12.307  12.540  70.801  1.00  0.00    -0.374 N  
HETATM   28  O   UNL     1     -12.634  10.676  69.522  1.00  0.00    -0.259 OA 
HETATM   29  C   UNL     1     -12.382  11.200  70.597  1.00  0.00    -0.388 C  
HETATM   30  H   UNL     1     -12.109  12.875  71.744  1.00  0.00     0.000 HD 
BRANCH  29  31
HETATM   31  O   UNL     1     -12.119  10.554  71.757  1.00  0.00    -0.225 OA 
HETATM   32  C   UNL     1     -13.186   9.736  72.246  1.00  0.00    -0.377 C  
ENDBRANCH  29  31
ENDBRANCH  26  27
BRANCH  26  33
HETATM   33  C   UNL     1     -12.254  14.989  70.248  1.00  0.00    -0.390 C  
HETATM   34  C   UNL     1     -11.721  15.946  69.161  1.00  0.00    -0.369 C  
HETATM   35  C   UNL     1     -13.577  15.549  70.813  1.00  0.00    -0.147 C  
HETATM   36  C   UNL     1     -11.220  14.981  71.395  1.00  0.00    -0.260 C  
ENDBRANCH  26  33
ENDBRANCH  23  26
ENDBRANCH  21  22
BRANCH  21  37
HETATM   37  C   UNL     1      -9.457  13.194  66.652  1.00  0.00    -0.260 C  
BRANCH  37  38
HETATM   38  C   UNL     1      -8.893  14.605  66.607  1.00  0.00    -0.240 A  
HETATM   39  C   UNL     1      -9.530  15.675  65.968  1.00  0.00    -0.390 A  
HETATM   40  C   UNL     1      -8.992  16.953  65.965  1.00  0.00    -0.198 A  
HETATM   41  C   UNL     1      -7.686  14.872  67.265  1.00  0.00    -0.227 A  
HETATM   42  C   UNL     1      -7.804  17.235  66.640  1.00  0.00    -0.295 A  
HETATM   43  C   UNL     1      -7.156  16.170  67.287  1.00  0.00    -0.231 A  
BRANCH  42  44
HETATM   44  C   UNL     1      -7.308  18.616  66.660  1.00  0.00    -0.229 A  
HETATM   45  C   UNL     1      -7.207  19.361  67.830  1.00  0.00    -0.291 A  
HETATM   46  C   UNL     1      -6.778  20.682  67.750  1.00  0.00    -0.373 A  
HETATM   47  C   UNL     1      -6.472  21.227  66.509  1.00  0.00    -0.274 A  
HETATM   48  C   UNL     1      -6.611  20.426  65.391  1.00  0.00    -0.268 A  
HETATM   49  N   UNL     1      -7.019  19.145  65.441  1.00  0.00    -0.463 NA 
ENDBRANCH  42  44
ENDBRANCH  37  38
ENDBRANCH  21  37
ENDBRANCH  20  21
ENDBRANCH  17  20
ENDBRANCH  16  17
BRANCH  16  50
HETATM   50  C   UNL     1      -9.301   8.983  70.919  1.00  0.00    -0.326 C  
BRANCH  50  51
HETATM   51  C   UNL     1      -9.794   7.689  71.517  1.00  0.00    -0.192 A  
HETATM   52  C   UNL     1     -11.083   7.209  71.249  1.00  0.00    -0.275 A  
HETATM   53  C   UNL     1     -10.820   5.489  72.911  1.00  0.00    -0.312 A  
HETATM   54  C   UNL     1      -8.983   6.978  72.409  1.00  0.00    -0.142 A  
HETATM   55  C   UNL     1     -11.608   6.143  71.971  1.00  0.00    -0.364 A  
HETATM   56  C   UNL     1      -9.496   5.881  73.102  1.00  0.00    -0.143 A  
ENDBRANCH  50  51
ENDBRANCH  16  50
ENDBRANCH  13  16
ENDBRANCH   7  12
ENDBRANCH   4   7
ENDBRANCH   2   3
TORSDOF 18
ENDMDL
MODEL       22
REMARK 921   NORMALIZED FREE ENERGY PREDICTED BY IDOCK:   -3.52 KCAL/MOL
REMARK 922        TOTAL FREE ENERGY PREDICTED BY IDOCK:  -11.97 KCAL/MOL
REMARK 923 INTER-LIGAND FREE ENERGY PREDICTED BY IDOCK:  -11.27 KCAL/MOL
REMARK 924 INTRA-LIGAND FREE ENERGY PREDICTED BY IDOCK:   -0.70 KCAL/MOL
REMARK 927      BINDING AFFINITY PREDICTED BY RF-SCORE:    0.00 PKD
ROOT
HETATM    1  C   UNL     1     -14.239   8.550  71.981  1.00  0.00    -0.453 C  
HETATM    2  O   UNL     1     -13.902   7.286  71.402  1.00  0.00    -0.394 OA 
ENDROOT
BRANCH   2   3
HETATM    3  C   UNL     1     -12.576   7.000  71.353  1.00  0.00    -0.386 C  
HETATM    4  N   UNL     1     -12.063   7.071  72.611  1.00  0.00    -0.495 N  
HETATM    5  O   UNL     1     -11.931   6.773  70.339  1.00  0.00    -0.373 OA 
HETATM    6  H   UNL     1     -12.711   7.130  73.397  1.00  0.00     0.000 HD 
BRANCH   4   7
HETATM    7  C   UNL     1     -10.632   7.067  72.890  1.00  0.00    -0.272 C  
BRANCH   7   8
HETATM    8  C   UNL     1     -10.021   5.611  72.838  1.00  0.00    -0.196 C  
HETATM    9  C   UNL     1     -10.941   4.644  73.611  1.00  0.00    -0.392 C  
HETATM   10  C   UNL     1      -8.592   5.524  73.415  1.00  0.00    -0.115 C  
HETATM   11  C   UNL     1      -9.927   5.081  71.386  1.00  0.00    -0.259 C  
ENDBRANCH   7   8
BRANCH   7  12
HETATM   12  C   UNL     1      -9.967   8.052  71.879  1.00  0.00    -0.195 C  
HETATM   13  N   UNL     1      -8.911   7.562  71.133  1.00  0.00    -0.142 N  
HETATM   14  O   UNL     1     -10.295   9.232  71.793  1.00  0.00    -0.328 OA 
HETATM   15  H   UNL     1      -8.533   6.640  71.348  1.00  0.00     0.000 HD 
BRANCH  13  16
HETATM   16  C   UNL     1      -8.314   8.353  70.020  1.00  0.00    -0.123 C  
BRANCH  16  17
HETATM   17  C   UNL     1      -8.460   7.554  68.689  1.00  0.00    -0.129 C  
HETATM   18  H   UNL     1      -8.049   5.743  68.137  1.00  0.00     0.000 HD 
HETATM   19  O   UNL     1      -7.960   6.230  68.948  1.00  0.00    -0.106 OA 
BRANCH  17  20
HETATM   20  C   UNL     1      -9.927   7.483  68.183  1.00  0.00    -0.172 C  
BRANCH  20  21
HETATM   21  N   UNL     1     -10.138   7.547  66.708  1.00  0.00    -0.249 NA 
BRANCH  21  22
HETATM   22  N   UNL     1      -9.310   6.623  65.981  1.00  0.00    -0.368 N  
HETATM   23  C   UNL     1      -9.595   5.266  65.931  1.00  0.00    -0.125 C  
HETATM   24  H   UNL     1      -8.490   6.975  65.488  1.00  0.00     0.000 HD 
HETATM   25  O   UNL     1     -10.474   4.743  66.609  1.00  0.00    -0.248 OA 
BRANCH  23  26
HETATM   26  C   UNL     1      -8.633   4.468  65.008  1.00  0.00    -0.133 C  
BRANCH  26  27
HETATM   27  N   UNL     1      -7.590   3.859  65.833  1.00  0.00    -0.087 N  
HETATM   28  O   UNL     1      -6.226   5.686  65.974  1.00  0.00    -0.032 OA 
HETATM   29  C   UNL     1      -6.484   4.524  66.253  1.00  0.00    -0.041 C  
HETATM   30  H   UNL     1      -7.700   2.882  66.107  1.00  0.00     0.000 HD 
BRANCH  29  31
HETATM   31  O   UNL     1      -5.737   3.706  67.031  1.00  0.00    -0.021 OA 
HETATM   32  C   UNL     1      -6.304   2.412  67.260  1.00  0.00    -0.031 C  
ENDBRANCH  29  31
ENDBRANCH  26  27
BRANCH  26  33
HETATM   33  C   UNL     1      -9.361   3.417  64.108  1.00  0.00    -0.133 C  
HETATM   34  C   UNL     1     -10.857   3.720  63.883  1.00  0.00    -0.196 C  
HETATM   35  C   UNL     1      -8.647   3.343  62.742  1.00  0.00    -0.081 C  
HETATM   36  C   UNL     1      -9.272   2.019  64.759  1.00  0.00    -0.128 C  
ENDBRANCH  26  33
ENDBRANCH  23  26
ENDBRANCH  21  22
BRANCH  21  37
HETATM   37  C   UNL     1     -10.016   8.902  66.129  1.00  0.00    -0.220 C  
BRANCH  37  38
HETATM   38  C   UNL     1     -10.454  10.078  66.989  1.00  0.00    -0.302 A  
HETATM   39  C   UNL     1     -10.276  11.417  66.621  1.00  0.00    -0.258 A  
HETATM   40  C   UNL     1     -10.707  12.461  67.426  1.00  0.00    -0.257 A  
HETATM   41  C   UNL     1     -11.102   9.822  68.203  1.00  0.00    -0.169 A  
HETATM   42  C   UNL     1     -11.376  12.217  68.624  1.00  0.00    -0.339 A  
HETATM   43  C   UNL     1     -11.563  10.877  69.003  1.00  0.00    -0.387 A  
BRANCH  42  44
HETATM   44  C   UNL     1     -11.868  13.355  69.409  1.00  0.00    -0.335 A  
HETATM   45  C   UNL     1     -11.718  14.674  68.996  1.00  0.00    -0.339 A  
HETATM   46  C   UNL     1     -12.164  15.694  69.831  1.00  0.00    -0.317 A  
HETATM   47  C   UNL     1     -12.738  15.374  71.055  1.00  0.00    -0.510 A  
HETATM   48  C   UNL     1     -12.839  14.039  71.400  1.00  0.00    -0.359 A  
HETATM   49  N   UNL     1     -12.420  13.034  70.610  1.00  0.00    -0.308 NA 
ENDBRANCH  42  44
ENDBRANCH  37  38
ENDBRANCH  21  37
ENDBRANCH  20  21
ENDBRANCH  17  20
ENDBRANCH  16  17
BRANCH  16  50
HETATM   50  C   UNL     1      -6.892   8.876  70.361  1.00  0.00    -0.049 C  
BRANCH  50  51
HETATM   51  C   UNL     1      -6.653  10.306  69.944  1.00  0.00    -0.114 A  
HETATM   52  C   UNL     1      -5.749  11.124  70.635  1.00  0.00    -0.125 A  
HETATM   53  C   UNL     1      -6.490  13.044  69.390  1.00  0.00    -0.094 A  
HETATM   54  C   UNL     1      -7.390  10.858  68.889  1.00  0.00    -0.111 A  
HETATM   55  C   UNL     1      -5.698  12.491  70.388  1.00  0.00    -0.170 A  
HETATM   56  C   UNL     1      -7.307  12.223  68.614  1.00  0.00    -0.106 A  
ENDBRANCH  50  51
ENDBRANCH  16  50
ENDBRANCH  13  16
ENDBRANCH   7  12
ENDBRANCH   4   7
ENDBRANCH   2   3
TORSDOF 18
ENDMDL
MODEL       23
REMARK 921   NORMALIZED FREE ENERGY PREDICTED BY IDOCK:   -3.46 KCAL/MOL
REMARK 922        TOTAL FREE ENERGY PREDICTED BY IDOCK:  -11.84 KCAL/MOL
REMARK 923 INTER-LIGAND FREE ENERGY PREDICTED BY IDOCK:  -11.25 KCAL/MOL
REMARK 924 INTRA-LIGAND FREE ENERGY PREDICTED BY IDOCK:   -0.59 KCAL/MOL
REMARK 927      BINDING AFFINITY PREDICTED BY RF-SCORE:    0.00 PKD
ROOT
HETATM    1  C   UNL     1     -10.313   4.824  65.831  1.00  0.00    -0.270 C  
HETATM    2  O   UNL     1      -9.043   4.859  65.172  1.00  0.00    -0.155 OA 
ENDROOT
BRANCH   2   3
HETATM    3  C   UNL     1      -8.195   5.833  65.589  1.00  0.00    -0.128 C  
HETATM    4  N   UNL     1      -8.442   6.967  64.880  1.00  0.00    -0.338 N  
HETATM    5  O   UNL     1      -7.311   5.700  66.424  1.00  0.00    -0.076 OA 
HETATM    6  H   UNL     1      -9.287   7.009  64.311  1.00  0.00     0.000 HD 
BRANCH   4   7
HETATM    7  C   UNL     1      -7.556   8.125  64.894  1.00  0.00    -0.098 C  
BRANCH   7   8
HETATM    8  C   UNL     1      -7.563   8.894  63.514  1.00  0.00    -0.118 C  
HETATM    9  C   UNL     1      -8.304  10.237  63.682  1.00  0.00    -0.169 C  
HETATM   10  C   UNL     1      -8.217   8.092  62.368  1.00  0.00    -0.161 C  
HETATM   11  C   UNL     1      -6.129   9.227  63.036  1.00  0.00    -0.090 C  
ENDBRANCH   7   8
BRANCH   7  12
HETATM   12  C   UNL     1      -7.989   9.016  66.099  1.00  0.00    -0.103 C  
HETATM   13  N   UNL     1      -6.984   9.684  66.775  1.00  0.00    -0.084 N  
HETATM   14  O   UNL     1      -9.149   9.071  66.497  1.00  0.00    -0.146 OA 
HETATM   15  H   UNL     1      -6.010   9.482  66.548  1.00  0.00     0.000 HD 
BRANCH  13  16
HETATM   16  C   UNL     1      -7.294  10.692  67.828  1.00  0.00    -0.089 C  
BRANCH  16  17
HETATM   17  C   UNL     1      -8.446  10.152  68.729  1.00  0.00    -0.131 C  
HETATM   18  H   UNL     1      -8.531   9.328  70.480  1.00  0.00     0.000 HD 
HETATM   19  O   UNL     1      -7.829   9.657  69.930  1.00  0.00    -0.115 OA 
BRANCH  17  20
HETATM   20  C   UNL     1      -9.501  11.236  69.077  1.00  0.00    -0.013 C  
BRANCH  20  21
HETATM   21  N   UNL     1     -10.930  10.899  68.813  1.00  0.00    -0.217 NA 
BRANCH  21  22
HETATM   22  N   UNL     1     -11.624  11.925  68.083  1.00  0.00    -0.320 N  
HETATM   23  C   UNL     1     -11.576  12.000  66.698  1.00  0.00    -0.319 C  
HETATM   24  H   UNL     1     -12.167  12.619  68.598  1.00  0.00     0.000 HD 
HETATM   25  O   UNL     1     -10.835  11.299  66.017  1.00  0.00    -0.267 OA 
BRANCH  23  26
HETATM   26  C   UNL     1     -12.478  13.121  66.110  1.00  0.00    -0.203 C  
BRANCH  26  27
HETATM   27  N   UNL     1     -12.507  14.241  67.049  1.00  0.00    -0.543 N  
HETATM   28  O   UNL     1     -10.252  14.414  67.369  1.00  0.00    -0.245 OA 
HETATM   29  C   UNL     1     -11.391  14.797  67.588  1.00  0.00    -0.339 C  
HETATM   30  H   UNL     1     -13.415  14.624  67.315  1.00  0.00     0.000 HD 
BRANCH  29  31
HETATM   31  O   UNL     1     -11.747  15.836  68.380  1.00  0.00    -0.366 OA 
HETATM   32  C   UNL     1     -11.510  15.636  69.776  1.00  0.00    -0.342 C  
ENDBRANCH  29  31
ENDBRANCH  26  27
BRANCH  26  33
HETATM   33  C   UNL     1     -12.057  13.569  64.672  1.00  0.00    -0.450 C  
HETATM   34  C   UNL     1     -12.393  15.041  64.355  1.00  0.00    -0.283 C  
HETATM   35  C   UNL     1     -10.540  13.346  64.499  1.00  0.00    -0.441 C  
HETATM   36  C   UNL     1     -12.781  12.699  63.620  1.00  0.00    -0.329 C  
ENDBRANCH  26  33
ENDBRANCH  23  26
ENDBRANCH  21  22
BRANCH  21  37
HETATM   37  C   UNL     1     -11.705  10.519  70.014  1.00  0.00    -0.312 C  
BRANCH  37  38
HETATM   38  C   UNL     1     -11.444   9.146  70.614  1.00  0.00    -0.310 A  
HETATM   39  C   UNL     1     -11.127   8.015  69.854  1.00  0.00    -0.108 A  
HETATM   40  C   UNL     1     -10.877   6.783  70.441  1.00  0.00    -0.306 A  
HETATM   41  C   UNL     1     -11.487   8.998  72.006  1.00  0.00    -0.408 A  
HETATM   42  C   UNL     1     -10.892   6.631  71.827  1.00  0.00    -0.265 A  
HETATM   43  C   UNL     1     -11.208   7.760  72.602  1.00  0.00    -0.438 A  
BRANCH  42  44
HETATM   44  C   UNL     1     -10.560   5.323  72.403  1.00  0.00    -0.225 A  
HETATM   45  C   UNL     1     -11.445   4.607  73.203  1.00  0.00    -0.317 A  
HETATM   46  C   UNL     1     -11.026   3.400  73.753  1.00  0.00    -0.307 A  
HETATM   47  C   UNL     1      -9.738   2.944  73.501  1.00  0.00    -0.144 A  
HETATM   48  C   UNL     1      -8.914   3.719  72.707  1.00  0.00    -0.097 A  
HETATM   49  N   UNL     1      -9.295   4.887  72.159  1.00  0.00    -0.134 NA 
ENDBRANCH  42  44
ENDBRANCH  37  38
ENDBRANCH  21  37
ENDBRANCH  20  21
ENDBRANCH  17  20
ENDBRANCH  16  17
BRANCH  16  50
HETATM   50  C   UNL     1      -7.481  12.120  67.245  1.00  0.00    -0.152 C  
BRANCH  50  51
HETATM   51  C   UNL     1      -6.801  13.199  68.050  1.00  0.00    -0.118 A  
HETATM   52  C   UNL     1      -6.199  12.916  69.284  1.00  0.00    -0.104 A  
HETATM   53  C   UNL     1      -5.868  15.263  69.693  1.00  0.00    -0.118 A  
HETATM   54  C   UNL     1      -6.821  14.524  67.599  1.00  0.00    -0.203 A  
HETATM   55  C   UNL     1      -5.773  13.943  70.118  1.00  0.00    -0.130 A  
HETATM   56  C   UNL     1      -6.355  15.552  68.420  1.00  0.00    -0.109 A  
ENDBRANCH  50  51
ENDBRANCH  16  50
ENDBRANCH  13  16
ENDBRANCH   7  12
ENDBRANCH   4   7
ENDBRANCH   2   3
TORSDOF 18
ENDMDL
MODEL       24
REMARK 921   NORMALIZED FREE ENERGY PREDICTED BY IDOCK:   -3.40 KCAL/MOL
REMARK 922        TOTAL FREE ENERGY PREDICTED BY IDOCK:  -11.71 KCAL/MOL
REMARK 923 INTER-LIGAND FREE ENERGY PREDICTED BY IDOCK:  -10.81 KCAL/MOL
REMARK 924 INTRA-LIGAND FREE ENERGY PREDICTED BY IDOCK:   -0.89 KCAL/MOL
REMARK 927      BINDING AFFINITY PREDICTED BY RF-SCORE:    0.00 PKD
ROOT
HETATM    1  C   UNL     1      -9.682   5.564  72.417  1.00  0.00    -0.154 C  
HETATM    2  O   UNL     1     -10.137   4.511  71.562  1.00  0.00    -0.190 OA 
ENDROOT
BRANCH   2   3
HETATM    3  C   UNL     1      -9.421   4.329  70.424  1.00  0.00    -0.174 C  
HETATM    4  N   UNL     1      -8.096   4.342  70.731  1.00  0.00    -0.070 N  
HETATM    5  O   UNL     1      -9.884   4.230  69.297  1.00  0.00    -0.187 OA 
HETATM    6  H   UNL     1      -7.824   4.292  71.713  1.00  0.00     0.000 HD 
BRANCH   4   7
HETATM    7  C   UNL     1      -7.045   4.424  69.724  1.00  0.00    -0.049 C  
BRANCH   7   8
HETATM    8  C   UNL     1      -6.760   3.025  69.048  1.00  0.00    -0.037 C  
HETATM    9  C   UNL     1      -5.300   2.986  68.552  1.00  0.00    -0.013 C  
HETATM   10  C   UNL     1      -7.706   2.708  67.870  1.00  0.00    -0.059 C  
HETATM   11  C   UNL     1      -6.926   1.859  70.053  1.00  0.00    -0.033 C  
ENDBRANCH   7   8
BRANCH   7  12
HETATM   12  C   UNL     1      -7.475   5.525  68.704  1.00  0.00    -0.076 C  
HETATM   13  N   UNL     1      -7.872   6.741  69.229  1.00  0.00    -0.108 N  
HETATM   14  O   UNL     1      -7.543   5.316  67.496  1.00  0.00    -0.086 OA 
HETATM   15  H   UNL     1      -7.986   6.836  70.238  1.00  0.00     0.000 HD 
BRANCH  13  16
HETATM   16  C   UNL     1      -8.139   7.915  68.351  1.00  0.00    -0.123 C  
BRANCH  16  17
HETATM   17  C   UNL     1      -7.158   9.068  68.728  1.00  0.00    -0.070 C  
HETATM   18  H   UNL     1      -5.238   9.306  68.635  1.00  0.00     0.000 HD 
HETATM   19  O   UNL     1      -5.835   8.604  68.405  1.00  0.00    -0.040 OA 
BRANCH  17  20
HETATM   20  C   UNL     1      -7.460  10.391  67.975  1.00  0.00    -0.090 C  
BRANCH  20  21
HETATM   21  N   UNL     1      -7.738  11.596  68.809  1.00  0.00    -0.131 NA 
BRANCH  21  22
HETATM   22  N   UNL     1      -9.056  12.132  68.602  1.00  0.00    -0.380 N  
HETATM   23  C   UNL     1      -9.789  11.852  67.457  1.00  0.00    -0.188 C  
HETATM   24  H   UNL     1      -9.463  12.736  69.315  1.00  0.00     0.000 HD 
HETATM   25  O   UNL     1      -9.319  11.257  66.492  1.00  0.00    -0.175 OA 
BRANCH  23  26
HETATM   26  C   UNL     1     -11.224  12.447  67.483  1.00  0.00    -0.294 C  
BRANCH  26  27
HETATM   27  N   UNL     1     -11.592  12.724  68.872  1.00  0.00    -0.295 N  
HETATM   28  O   UNL     1     -12.621  10.731  69.304  1.00  0.00    -0.324 OA 
HETATM   29  C   UNL     1     -12.248  11.838  69.664  1.00  0.00    -0.185 C  
HETATM   30  H   UNL     1     -11.342  13.631  69.265  1.00  0.00     0.000 HD 
BRANCH  29  31
HETATM   31  O   UNL     1     -12.401  12.369  70.899  1.00  0.00    -0.377 OA 
HETATM   32  C   UNL     1     -12.210  13.785  70.972  1.00  0.00    -0.319 C  
ENDBRANCH  29  31
ENDBRANCH  26  27
BRANCH  26  33
HETATM   33  C   UNL     1     -11.396  13.702  66.567  1.00  0.00    -0.335 C  
HETATM   34  C   UNL     1     -10.165  14.003  65.686  1.00  0.00    -0.351 C  
HETATM   35  C   UNL     1     -12.630  13.500  65.662  1.00  0.00    -0.512 C  
HETATM   36  C   UNL     1     -11.651  14.954  67.436  1.00  0.00    -0.347 C  
ENDBRANCH  26  33
ENDBRANCH  23  26
ENDBRANCH  21  22
BRANCH  21  37
HETATM   37  C   UNL     1      -6.729  12.671  68.691  1.00  0.00    -0.088 C  
BRANCH  37  38
HETATM   38  C   UNL     1      -7.230  14.081  68.422  1.00  0.00    -0.108 A  
HETATM   39  C   UNL     1      -7.044  14.752  67.207  1.00  0.00    -0.067 A  
HETATM   40  C   UNL     1      -7.535  16.032  66.994  1.00  0.00    -0.264 A  
HETATM   41  C   UNL     1      -7.950  14.746  69.422  1.00  0.00    -0.065 A  
HETATM   42  C   UNL     1      -8.274  16.692  67.975  1.00  0.00    -0.185 A  
HETATM   43  C   UNL     1      -8.469  16.028  69.198  1.00  0.00    -0.247 A  
BRANCH  42  44
HETATM   44  C   UNL     1      -8.824  18.019  67.679  1.00  0.00    -0.254 A  
HETATM   45  C   UNL     1      -8.192  19.197  68.060  1.00  0.00    -0.339 A  
HETATM   46  C   UNL     1      -8.813  20.412  67.787  1.00  0.00    -0.263 A  
HETATM   47  C   UNL     1     -10.049  20.420  67.152  1.00  0.00    -0.502 A  
HETATM   48  C   UNL     1     -10.620  19.206  66.818  1.00  0.00    -0.439 A  
HETATM   49  N   UNL     1     -10.039  18.019  67.066  1.00  0.00    -0.329 NA 
ENDBRANCH  42  44
ENDBRANCH  37  38
ENDBRANCH  21  37
ENDBRANCH  20  21
ENDBRANCH  17  20
ENDBRANCH  16  17
BRANCH  16  50
HETATM   50  C   UNL     1      -9.647   8.281  68.290  1.00  0.00    -0.158 C  
BRANCH  50  51
HETATM   51  C   UNL     1     -10.344   8.212  69.626  1.00  0.00    -0.221 A  
HETATM   52  C   UNL     1     -11.416   7.336  69.842  1.00  0.00    -0.085 A  
HETATM   53  C   UNL     1     -11.852   8.351  71.979  1.00  0.00    -0.417 A  
HETATM   54  C   UNL     1      -9.965   9.080  70.657  1.00  0.00    -0.287 A  
HETATM   55  C   UNL     1     -12.191   7.432  70.992  1.00  0.00    -0.315 A  
HETATM   56  C   UNL     1     -10.718   9.147  71.830  1.00  0.00    -0.405 A  
ENDBRANCH  50  51
ENDBRANCH  16  50
ENDBRANCH  13  16
ENDBRANCH   7  12
ENDBRANCH   4   7
ENDBRANCH   2   3
TORSDOF 18
ENDMDL
MODEL       25
REMARK 921   NORMALIZED FREE ENERGY PREDICTED BY IDOCK:   -3.31 KCAL/MOL
REMARK 922        TOTAL FREE ENERGY PREDICTED BY IDOCK:  -11.53 KCAL/MOL
REMARK 923 INTER-LIGAND FREE ENERGY PREDICTED BY IDOCK:   -9.09 KCAL/MOL
REMARK 924 INTRA-LIGAND FREE ENERGY PREDICTED BY IDOCK:   -2.44 KCAL/MOL
REMARK 927      BINDING AFFINITY PREDICTED BY RF-SCORE:    0.00 PKD
ROOT
HETATM    1  C   UNL     1      -6.350  19.288  65.437  1.00  0.00    -0.268 C  
HETATM    2  O   UNL     1      -5.787  18.468  66.465  1.00  0.00    -0.147 OA 
ENDROOT
BRANCH   2   3
HETATM    3  C   UNL     1      -6.471  18.447  67.637  1.00  0.00    -0.199 C  
HETATM    4  N   UNL     1      -7.421  17.475  67.577  1.00  0.00    -0.186 N  
HETATM    5  O   UNL     1      -6.304  19.215  68.575  1.00  0.00    -0.225 OA 
HETATM    6  H   UNL     1      -7.382  16.806  66.808  1.00  0.00     0.000 HD 
BRANCH   4   7
HETATM    7  C   UNL     1      -8.491  17.345  68.558  1.00  0.00    -0.274 C  
BRANCH   7   8
HETATM    8  C   UNL     1      -9.838  18.003  68.058  1.00  0.00    -0.324 C  
HETATM    9  C   UNL     1     -11.007  17.030  68.314  1.00  0.00    -0.269 C  
HETATM   10  C   UNL     1      -9.814  18.388  66.563  1.00  0.00    -0.368 C  
HETATM   11  C   UNL     1     -10.159  19.307  68.829  1.00  0.00    -0.477 C  
ENDBRANCH   7   8
BRANCH   7  12
HETATM   12  C   UNL     1      -8.631  15.825  68.882  1.00  0.00    -0.220 C  
HETATM   13  N   UNL     1      -8.160  14.938  67.931  1.00  0.00    -0.133 N  
HETATM   14  O   UNL     1      -9.204  15.413  69.887  1.00  0.00    -0.201 OA 
HETATM   15  H   UNL     1      -7.858  15.292  67.024  1.00  0.00     0.000 HD 
BRANCH  13  16
HETATM   16  C   UNL     1      -8.084  13.475  68.205  1.00  0.00    -0.154 C  
BRANCH  16  17
HETATM   17  C   UNL     1      -6.639  13.116  68.667  1.00  0.00    -0.092 C  
HETATM   18  H   UNL     1      -5.316  13.978  69.789  1.00  0.00     0.000 HD 
HETATM   19  O   UNL     1      -6.196  14.196  69.508  1.00  0.00    -0.105 OA 
BRANCH  17  20
HETATM   20  C   UNL     1      -6.566  11.772  69.441  1.00  0.00    -0.113 C  
BRANCH  20  21
HETATM   21  N   UNL     1      -6.991  10.545  68.708  1.00  0.00    -0.066 NA 
BRANCH  21  22
HETATM   22  N   UNL     1      -7.569   9.548  69.567  1.00  0.00    -0.087 N  
HETATM   23  C   UNL     1      -8.842   9.041  69.349  1.00  0.00    -0.144 C  
HETATM   24  H   UNL     1      -7.028   9.204  70.360  1.00  0.00     0.000 HD 
HETATM   25  O   UNL     1      -9.610   9.501  68.510  1.00  0.00    -0.141 OA 
BRANCH  23  26
HETATM   26  C   UNL     1      -9.229   7.902  70.333  1.00  0.00    -0.158 C  
BRANCH  26  27
HETATM   27  N   UNL     1      -8.006   7.345  70.911  1.00  0.00    -0.096 N  
HETATM   28  O   UNL     1      -8.344   5.177  70.274  1.00  0.00    -0.094 OA 
HETATM   29  C   UNL     1      -7.665   6.034  70.821  1.00  0.00    -0.098 C  
HETATM   30  H   UNL     1      -7.377   7.976  71.407  1.00  0.00     0.000 HD 
BRANCH  29  31
HETATM   31  O   UNL     1      -6.463   5.843  71.412  1.00  0.00    -0.046 OA 
HETATM   32  C   UNL     1      -5.619   6.997  71.445  1.00  0.00    -0.035 C  
ENDBRANCH  29  31
ENDBRANCH  26  27
BRANCH  26  33
HETATM   33  C   UNL     1     -10.250   8.347  71.431  1.00  0.00    -0.284 C  
HETATM   34  C   UNL     1     -11.406   7.349  71.647  1.00  0.00    -0.286 C  
HETATM   35  C   UNL     1      -9.499   8.549  72.764  1.00  0.00    -0.244 C  
HETATM   36  C   UNL     1     -10.883   9.701  71.040  1.00  0.00    -0.412 C  
ENDBRANCH  26  33
ENDBRANCH  23  26
ENDBRANCH  21  22
BRANCH  21  37
HETATM   37  C   UNL     1      -5.939   9.938  67.863  1.00  0.00    -0.043 C  
BRANCH  37  38
HETATM   38  C   UNL     1      -6.307   8.699  67.063  1.00  0.00    -0.057 A  
HETATM   39  C   UNL     1      -5.933   7.400  67.428  1.00  0.00    -0.042 A  
HETATM   40  C   UNL     1      -6.305   6.292  66.681  1.00  0.00    -0.041 A  
HETATM   41  C   UNL     1      -7.091   8.845  65.912  1.00  0.00    -0.084 A  
HETATM   42  C   UNL     1      -7.107   6.425  65.548  1.00  0.00    -0.065 A  
HETATM   43  C   UNL     1      -7.490   7.724  65.172  1.00  0.00    -0.083 A  
BRANCH  42  44
HETATM   44  C   UNL     1      -7.525   5.218  64.826  1.00  0.00    -0.069 A  
HETATM   45  C   UNL     1      -8.535   5.226  63.871  1.00  0.00    -0.100 A  
HETATM   46  C   UNL     1      -8.906   4.024  63.276  1.00  0.00    -0.110 A  
HETATM   47  C   UNL     1      -8.269   2.849  63.655  1.00  0.00    -0.085 A  
HETATM   48  C   UNL     1      -7.284   2.922  64.622  1.00  0.00    -0.062 A  
HETATM   49  N   UNL     1      -6.904   4.070  65.209  1.00  0.00    -0.052 NA 
ENDBRANCH  42  44
ENDBRANCH  37  38
ENDBRANCH  21  37
ENDBRANCH  20  21
ENDBRANCH  17  20
ENDBRANCH  16  17
BRANCH  16  50
HETATM   50  C   UNL     1      -8.672  12.624  67.047  1.00  0.00    -0.198 C  
BRANCH  50  51
HETATM   51  C   UNL     1     -10.019  13.101  66.564  1.00  0.00    -0.268 A  
HETATM   52  C   UNL     1     -10.215  13.502  65.236  1.00  0.00    -0.323 A  
HETATM   53  C   UNL     1     -12.413  14.319  65.777  1.00  0.00    -0.421 A  
HETATM   54  C   UNL     1     -11.085  13.211  67.465  1.00  0.00    -0.296 A  
HETATM   55  C   UNL     1     -11.388  14.145  64.854  1.00  0.00    -0.365 A  
HETATM   56  C   UNL     1     -12.278  13.818  67.071  1.00  0.00    -0.381 A  
ENDBRANCH  50  51
ENDBRANCH  16  50
ENDBRANCH  13  16
ENDBRANCH   7  12
ENDBRANCH   4   7
ENDBRANCH   2   3
TORSDOF 18
ENDMDL
MODEL       26
REMARK 921   NORMALIZED FREE ENERGY PREDICTED BY IDOCK:   -3.19 KCAL/MOL
REMARK 922        TOTAL FREE ENERGY PREDICTED BY IDOCK:  -11.29 KCAL/MOL
REMARK 923 INTER-LIGAND FREE ENERGY PREDICTED BY IDOCK:   -9.74 KCAL/MOL
REMARK 924 INTRA-LIGAND FREE ENERGY PREDICTED BY IDOCK:   -1.55 KCAL/MOL
REMARK 927      BINDING AFFINITY PREDICTED BY RF-SCORE:    0.00 PKD
ROOT
HETATM    1  C   UNL     1      -6.433  20.426  65.043  1.00  0.00    -0.291 C  
HETATM    2  O   UNL     1      -5.835  19.487  65.942  1.00  0.00    -0.163 OA 
ENDROOT
BRANCH   2   3
HETATM    3  C   UNL     1      -6.375  19.443  67.187  1.00  0.00    -0.186 C  
HETATM    4  N   UNL     1      -7.503  18.684  67.151  1.00  0.00    -0.220 N  
HETATM    5  O   UNL     1      -5.953  20.036  68.170  1.00  0.00    -0.222 OA 
HETATM    6  H   UNL     1      -7.687  18.126  66.318  1.00  0.00     0.000 HD 
BRANCH   4   7
HETATM    7  C   UNL     1      -8.463  18.631  68.248  1.00  0.00    -0.324 C  
BRANCH   7   8
HETATM    8  C   UNL     1      -9.728  19.536  67.974  1.00  0.00    -0.474 C  
HETATM    9  C   UNL     1      -9.295  20.800  67.203  1.00  0.00    -0.402 C  
HETATM   10  C   UNL     1     -10.473  19.955  69.260  1.00  0.00     0.063 C  
HETATM   11  C   UNL     1     -10.774  18.808  67.095  1.00  0.00    -0.469 C  
ENDBRANCH   7   8
BRANCH   7  12
HETATM   12  C   UNL     1      -8.816  17.128  68.473  1.00  0.00    -0.265 C  
HETATM   13  N   UNL     1      -8.073  16.199  67.768  1.00  0.00    -0.144 N  
HETATM   14  O   UNL     1      -9.758  16.769  69.174  1.00  0.00    -0.257 OA 
HETATM   15  H   UNL     1      -7.421  16.521  67.053  1.00  0.00     0.000 HD 
BRANCH  13  16
HETATM   16  C   UNL     1      -8.205  14.738  68.031  1.00  0.00    -0.142 C  
BRANCH  16  17
HETATM   17  C   UNL     1      -6.935  14.239  68.786  1.00  0.00    -0.102 C  
HETATM   18  H   UNL     1      -5.954  14.840  70.344  1.00  0.00     0.000 HD 
HETATM   19  O   UNL     1      -6.728  15.145  69.884  1.00  0.00    -0.174 OA 
BRANCH  17  20
HETATM   20  C   UNL     1      -7.076  12.785  69.311  1.00  0.00     0.103 C  
BRANCH  20  21
HETATM   21  N   UNL     1      -7.398  11.730  68.307  1.00  0.00    -0.088 NA 
BRANCH  21  22
HETATM   22  N   UNL     1      -8.253  10.699  68.828  1.00  0.00    -0.133 N  
HETATM   23  C   UNL     1      -7.915   9.967  69.957  1.00  0.00    -0.180 C  
HETATM   24  H   UNL     1      -9.135  10.500  68.355  1.00  0.00     0.000 HD 
HETATM   25  O   UNL     1      -6.816  10.043  70.497  1.00  0.00    -0.162 OA 
BRANCH  23  26
HETATM   26  C   UNL     1      -9.026   8.977  70.406  1.00  0.00    -0.205 C  
BRANCH  26  27
HETATM   27  N   UNL     1     -10.255   9.732  70.650  1.00  0.00    -0.328 N  
HETATM   28  O   UNL     1     -11.038   8.463  72.381  1.00  0.00    -0.346 OA 
HETATM   29  C   UNL     1     -11.148   9.415  71.623  1.00  0.00    -0.339 C  
HETATM   30  H   UNL     1     -10.452  10.538  70.057  1.00  0.00     0.000 HD 
BRANCH  29  31
HETATM   31  O   UNL     1     -12.151  10.324  71.623  1.00  0.00    -0.353 OA 
HETATM   32  C   UNL     1     -13.293   9.959  70.843  1.00  0.00    -0.195 C  
ENDBRANCH  29  31
ENDBRANCH  26  27
BRANCH  26  33
HETATM   33  C   UNL     1      -9.249   7.795  69.408  1.00  0.00    -0.149 C  
HETATM   34  C   UNL     1     -10.189   8.139  68.235  1.00  0.00    -0.245 C  
HETATM   35  C   UNL     1      -7.883   7.345  68.848  1.00  0.00    -0.117 C  
HETATM   36  C   UNL     1      -9.869   6.591  70.152  1.00  0.00    -0.185 C  
ENDBRANCH  26  33
ENDBRANCH  23  26
ENDBRANCH  21  22
BRANCH  21  37
HETATM   37  C   UNL     1      -6.218  11.126  67.651  1.00  0.00    -0.053 C  
BRANCH  37  38
HETATM   38  C   UNL     1      -6.457   9.952  66.714  1.00  0.00    -0.070 A  
HETATM   39  C   UNL     1      -5.634   8.820  66.662  1.00  0.00    -0.040 A  
HETATM   40  C   UNL     1      -5.898   7.761  65.807  1.00  0.00    -0.038 A  
HETATM   41  C   UNL     1      -7.577   9.975  65.874  1.00  0.00    -0.114 A  
HETATM   42  C   UNL     1      -7.025   7.763  64.985  1.00  0.00    -0.059 A  
HETATM   43  C   UNL     1      -7.860   8.893  65.029  1.00  0.00    -0.112 A  
BRANCH  42  44
HETATM   44  C   UNL     1      -7.294   6.592  64.144  1.00  0.00    -0.077 A  
HETATM   45  C   UNL     1      -8.192   6.619  63.083  1.00  0.00     0.053 A  
HETATM   46  C   UNL     1      -8.428   5.446  62.372  1.00  0.00    -0.111 A  
HETATM   47  C   UNL     1      -7.772   4.279  62.742  1.00  0.00    -0.065 A  
HETATM   48  C   UNL     1      -6.904   4.330  63.817  1.00  0.00    -0.044 A  
HETATM   49  N   UNL     1      -6.655   5.451  64.517  1.00  0.00    -0.041 NA 
ENDBRANCH  42  44
ENDBRANCH  37  38
ENDBRANCH  21  37
ENDBRANCH  20  21
ENDBRANCH  17  20
ENDBRANCH  16  17
BRANCH  16  50
HETATM   50  C   UNL     1      -8.614  13.942  66.762  1.00  0.00    -0.066 C  
BRANCH  50  51
HETATM   51  C   UNL     1     -10.050  14.151  66.349  1.00  0.00    -0.299 A  
HETATM   52  C   UNL     1     -11.105  13.901  67.237  1.00  0.00    -0.312 A  
HETATM   53  C   UNL     1     -12.704  14.194  65.463  1.00  0.00    -0.468 A  
HETATM   54  C   UNL     1     -10.350  14.540  65.038  1.00  0.00    -0.442 A  
HETATM   55  C   UNL     1     -12.421  13.882  66.788  1.00  0.00    -0.254 A  
HETATM   56  C   UNL     1     -11.674  14.561  64.599  1.00  0.00    -0.438 A  
ENDBRANCH  50  51
ENDBRANCH  16  50
ENDBRANCH  13  16
ENDBRANCH   7  12
ENDBRANCH   4   7
ENDBRANCH   2   3
TORSDOF 18
ENDMDL
MODEL       27
REMARK 921   NORMALIZED FREE ENERGY PREDICTED BY IDOCK:   -3.18 KCAL/MOL
REMARK 922        TOTAL FREE ENERGY PREDICTED BY IDOCK:  -11.27 KCAL/MOL
REMARK 923 INTER-LIGAND FREE ENERGY PREDICTED BY IDOCK:  -11.58 KCAL/MOL
REMARK 924 INTRA-LIGAND FREE ENERGY PREDICTED BY IDOCK:    0.31 KCAL/MOL
REMARK 927      BINDING AFFINITY PREDICTED BY RF-SCORE:    0.00 PKD
ROOT
HETATM    1  C   UNL     1     -14.327   8.271  71.892  1.00  0.00    -0.476 C  
HETATM    2  O   UNL     1     -13.848   6.975  71.520  1.00  0.00    -0.337 OA 
ENDROOT
BRANCH   2   3
HETATM    3  C   UNL     1     -12.500   6.820  71.544  1.00  0.00    -0.341 C  
HETATM    4  N   UNL     1     -12.061   6.974  72.822  1.00  0.00    -0.458 N  
HETATM    5  O   UNL     1     -11.785   6.632  70.569  1.00  0.00    -0.369 OA 
HETATM    6  H   UNL     1     -12.751   6.989  73.573  1.00  0.00     0.000 HD 
BRANCH   4   7
HETATM    7  C   UNL     1     -10.652   7.118  73.169  1.00  0.00    -0.336 C  
BRANCH   7   8
HETATM    8  C   UNL     1      -9.913   5.724  73.242  1.00  0.00    -0.190 C  
HETATM    9  C   UNL     1      -9.750   5.158  71.816  1.00  0.00    -0.212 C  
HETATM   10  C   UNL     1     -10.646   4.686  74.120  1.00  0.00    -0.348 C  
HETATM   11  C   UNL     1      -8.492   5.859  73.839  1.00  0.00    -0.117 C  
ENDBRANCH   7   8
BRANCH   7  12
HETATM   12  C   UNL     1     -10.024   8.096  72.128  1.00  0.00    -0.247 C  
HETATM   13  N   UNL     1      -8.994   7.601  71.349  1.00  0.00    -0.132 N  
HETATM   14  O   UNL     1     -10.355   9.276  72.046  1.00  0.00    -0.216 OA 
HETATM   15  H   UNL     1      -8.608   6.681  71.557  1.00  0.00     0.000 HD 
BRANCH  13  16
HETATM   16  C   UNL     1      -8.437   8.385  70.210  1.00  0.00    -0.126 C  
BRANCH  16  17
HETATM   17  C   UNL     1      -8.703   7.615  68.881  1.00  0.00    -0.135 C  
HETATM   18  H   UNL     1      -8.642   5.752  68.352  1.00  0.00     0.000 HD 
HETATM   19  O   UNL     1      -8.480   6.222  69.162  1.00  0.00    -0.119 OA 
BRANCH  17  20
HETATM   20  C   UNL     1     -10.141   7.827  68.335  1.00  0.00    -0.192 C  
BRANCH  20  21
HETATM   21  N   UNL     1     -10.274   8.156  66.887  1.00  0.00    -0.294 NA 
BRANCH  21  22
HETATM   22  N   UNL     1      -9.346   7.435  66.059  1.00  0.00    -0.388 N  
HETATM   23  C   UNL     1      -9.535   6.098  65.738  1.00  0.00     0.144 C  
HETATM   24  H   UNL     1      -8.524   7.919  65.697  1.00  0.00     0.000 HD 
HETATM   25  O   UNL     1     -10.414   5.408  66.246  1.00  0.00    -0.243 OA 
BRANCH  23  26
HETATM   26  C   UNL     1      -8.471   5.543  64.751  1.00  0.00    -0.125 C  
BRANCH  26  27
HETATM   27  N   UNL     1      -7.414   6.541  64.593  1.00  0.00    -0.082 N  
HETATM   28  O   UNL     1      -7.968   7.222  62.483  1.00  0.00    -0.130 OA 
HETATM   29  C   UNL     1      -7.262   7.301  63.477  1.00  0.00    -0.075 C  
HETATM   30  H   UNL     1      -6.756   6.674  65.361  1.00  0.00     0.000 HD 
BRANCH  29  31
HETATM   31  O   UNL     1      -6.227   8.155  63.655  1.00  0.00    -0.069 OA 
HETATM   32  C   UNL     1      -6.590   9.538  63.709  1.00  0.00    -0.105 C  
ENDBRANCH  29  31
ENDBRANCH  26  27
BRANCH  26  33
HETATM   33  C   UNL     1      -7.905   4.146  65.165  1.00  0.00    -0.089 C  
HETATM   34  C   UNL     1      -6.585   3.775  64.459  1.00  0.00    -0.043 C  
HETATM   35  C   UNL     1      -7.689   4.123  66.693  1.00  0.00    -0.089 C  
HETATM   36  C   UNL     1      -8.931   3.043  64.820  1.00  0.00    -0.129 C  
ENDBRANCH  26  33
ENDBRANCH  23  26
ENDBRANCH  21  22
BRANCH  21  37
HETATM   37  C   UNL     1     -10.212   9.601  66.577  1.00  0.00    -0.224 C  
BRANCH  37  38
HETATM   38  C   UNL     1     -10.767  10.568  67.612  1.00  0.00    -0.324 A  
HETATM   39  C   UNL     1     -10.677  11.960  67.500  1.00  0.00    -0.263 A  
HETATM   40  C   UNL     1     -11.214  12.808  68.457  1.00  0.00    -0.314 A  
HETATM   41  C   UNL     1     -11.439  10.052  68.726  1.00  0.00    -0.040 A  
HETATM   42  C   UNL     1     -11.907  12.305  69.557  1.00  0.00    -0.380 A  
HETATM   43  C   UNL     1     -12.006  10.909  69.679  1.00  0.00    -0.414 A  
BRANCH  42  44
HETATM   44  C   UNL     1     -12.510  13.244  70.509  1.00  0.00    -0.260 A  
HETATM   45  C   UNL     1     -13.080  12.836  71.710  1.00  0.00    -0.455 A  
HETATM   46  C   UNL     1     -13.680  13.789  72.527  1.00  0.00    -0.667 A  
HETATM   47  C   UNL     1     -13.704  15.118  72.123  1.00  0.00    -0.583 A  
HETATM   48  C   UNL     1     -13.128  15.442  70.910  1.00  0.00    -0.468 A  
HETATM   49  N   UNL     1     -12.538  14.542  70.103  1.00  0.00    -0.325 NA 
ENDBRANCH  42  44
ENDBRANCH  37  38
ENDBRANCH  21  37
ENDBRANCH  20  21
ENDBRANCH  17  20
ENDBRANCH  16  17
BRANCH  16  50
HETATM   50  C   UNL     1      -6.975   8.843  70.465  1.00  0.00    -0.057 C  
BRANCH  50  51
HETATM   51  C   UNL     1      -6.690  10.252  70.009  1.00  0.00    -0.137 A  
HETATM   52  C   UNL     1      -5.735  11.047  70.657  1.00  0.00    -0.122 A  
HETATM   53  C   UNL     1      -6.432  12.969  69.390  1.00  0.00    -0.094 A  
HETATM   54  C   UNL     1      -7.434  10.812  68.963  1.00  0.00    -0.118 A  
HETATM   55  C   UNL     1      -5.634  12.405  70.379  1.00  0.00    -0.162 A  
HETATM   56  C   UNL     1      -7.303  12.167  68.656  1.00  0.00    -0.109 A  
ENDBRANCH  50  51
ENDBRANCH  16  50
ENDBRANCH  13  16
ENDBRANCH   7  12
ENDBRANCH   4   7
ENDBRANCH   2   3
TORSDOF 18
ENDMDL
MODEL       28
REMARK 921   NORMALIZED FREE ENERGY PREDICTED BY IDOCK:   -3.14 KCAL/MOL
REMARK 922        TOTAL FREE ENERGY PREDICTED BY IDOCK:  -11.17 KCAL/MOL
REMARK 923 INTER-LIGAND FREE ENERGY PREDICTED BY IDOCK:   -9.89 KCAL/MOL
REMARK 924 INTRA-LIGAND FREE ENERGY PREDICTED BY IDOCK:   -1.29 KCAL/MOL
REMARK 927      BINDING AFFINITY PREDICTED BY RF-SCORE:    0.00 PKD
ROOT
HETATM    1  C   UNL     1     -10.325  17.870  68.596  1.00  0.00    -0.337 C  
HETATM    2  O   UNL     1     -11.348  16.901  68.845  1.00  0.00    -0.131 OA 
ENDROOT
BRANCH   2   3
HETATM    3  C   UNL     1     -11.001  15.884  69.674  1.00  0.00    -0.319 C  
HETATM    4  N   UNL     1     -12.132  15.312  70.168  1.00  0.00    -0.335 N  
HETATM    5  O   UNL     1      -9.859  15.567  69.977  1.00  0.00    -0.283 OA 
HETATM    6  H   UNL     1     -13.026  15.561  69.745  1.00  0.00     0.000 HD 
BRANCH   4   7
HETATM    7  C   UNL     1     -12.127  14.361  71.274  1.00  0.00    -0.335 C  
BRANCH   7   8
HETATM    8  C   UNL     1     -13.218  14.710  72.361  1.00  0.00    -0.496 C  
HETATM    9  C   UNL     1     -12.536  15.377  73.574  1.00  0.00    -0.666 C  
HETATM   10  C   UNL     1     -14.021  13.482  72.842  1.00  0.00     0.222 C  
HETATM   11  C   UNL     1     -14.263  15.717  71.822  1.00  0.00    -0.408 C  
ENDBRANCH   7   8
BRANCH   7  12
HETATM   12  C   UNL     1     -12.306  12.940  70.655  1.00  0.00    -0.302 C  
HETATM   13  N   UNL     1     -11.190  12.123  70.634  1.00  0.00     0.439 N  
HETATM   14  O   UNL     1     -13.354  12.575  70.130  1.00  0.00     0.939 OA 
HETATM   15  H   UNL     1     -10.285  12.507  70.904  1.00  0.00     0.000 HD 
BRANCH  13  16
HETATM   16  C   UNL     1     -11.283  10.693  70.227  1.00  0.00    -0.285 C  
BRANCH  16  17
HETATM   17  C   UNL     1     -11.071  10.586  68.685  1.00  0.00    -0.267 C  
HETATM   18  H   UNL     1     -11.734  11.563  67.150  1.00  0.00     0.000 HD 
HETATM   19  O   UNL     1     -11.863  11.628  68.089  1.00  0.00    -0.481 OA 
BRANCH  17  20
HETATM   20  C   UNL     1      -9.584  10.739  68.267  1.00  0.00    -0.166 C  
BRANCH  20  21
HETATM   21  N   UNL     1      -9.256  10.495  66.832  1.00  0.00    -0.154 NA 
BRANCH  21  22
HETATM   22  N   UNL     1      -9.816  11.484  65.952  1.00  0.00    -0.223 N  
HETATM   23  C   UNL     1      -9.358  12.794  65.934  1.00  0.00     0.017 C  
HETATM   24  H   UNL     1     -10.572  11.216  65.323  1.00  0.00     0.000 HD 
HETATM   25  O   UNL     1      -8.556  13.232  66.754  1.00  0.00    -0.149 OA 
BRANCH  23  26
HETATM   26  C   UNL     1     -10.029  13.667  64.838  1.00  0.00    -0.152 C  
BRANCH  26  27
HETATM   27  N   UNL     1     -11.016  12.853  64.130  1.00  0.00    -0.385 N  
HETATM   28  O   UNL     1      -9.542  11.604  62.910  1.00  0.00    -0.384 OA 
HETATM   29  C   UNL     1     -10.686  11.886  63.236  1.00  0.00    -0.353 C  
HETATM   30  H   UNL     1     -12.005  13.022  64.316  1.00  0.00     0.000 HD 
BRANCH  29  31
HETATM   31  O   UNL     1     -11.814  11.286  62.789  1.00  0.00     0.433 OA 
HETATM   32  C   UNL     1     -13.023  11.749  63.397  1.00  0.00    -0.037 C  
ENDBRANCH  29  31
ENDBRANCH  26  27
BRANCH  26  33
HETATM   33  C   UNL     1     -10.646  14.994  65.390  1.00  0.00    -0.398 C  
HETATM   34  C   UNL     1     -11.699  14.778  66.496  1.00  0.00    -0.278 C  
HETATM   35  C   UNL     1      -9.512  15.888  65.936  1.00  0.00    -0.372 C  
HETATM   36  C   UNL     1     -11.340  15.764  64.244  1.00  0.00    -0.189 C  
ENDBRANCH  26  33
ENDBRANCH  23  26
ENDBRANCH  21  22
BRANCH  21  37
HETATM   37  C   UNL     1      -9.588   9.138  66.348  1.00  0.00    -0.245 C  
BRANCH  37  38
HETATM   38  C   UNL     1      -9.327   7.971  67.288  1.00  0.00    -0.177 A  
HETATM   39  C   UNL     1      -8.108   7.761  67.944  1.00  0.00    -0.126 A  
HETATM   40  C   UNL     1      -7.915   6.695  68.809  1.00  0.00    -0.118 A  
HETATM   41  C   UNL     1     -10.364   7.068  67.549  1.00  0.00    -0.288 A  
HETATM   42  C   UNL     1      -8.950   5.805  69.096  1.00  0.00    -0.120 A  
HETATM   43  C   UNL     1     -10.179   6.007  68.446  1.00  0.00    -0.220 A  
BRANCH  42  44
HETATM   44  C   UNL     1      -8.716   4.730  70.066  1.00  0.00    -0.082 A  
HETATM   45  C   UNL     1      -9.688   3.793  70.400  1.00  0.00    -0.225 A  
HETATM   46  C   UNL     1      -9.398   2.841  71.372  1.00  0.00    -0.204 A  
HETATM   47  C   UNL     1      -8.154   2.853  71.991  1.00  0.00    -0.058 A  
HETATM   48  C   UNL     1      -7.247   3.825  71.614  1.00  0.00    -0.039 A  
HETATM   49  N   UNL     1      -7.499   4.753  70.674  1.00  0.00    -0.056 NA 
ENDBRANCH  42  44
ENDBRANCH  37  38
ENDBRANCH  21  37
ENDBRANCH  20  21
ENDBRANCH  17  20
ENDBRANCH  16  17
BRANCH  16  50
HETATM   50  C   UNL     1     -12.545   9.992  70.802  1.00  0.00    -0.372 C  
BRANCH  50  51
HETATM   51  C   UNL     1     -12.249   8.698  71.516  1.00  0.00    -0.368 A  
HETATM   52  C   UNL     1     -10.999   8.461  72.104  1.00  0.00    -0.411 A  
HETATM   53  C   UNL     1     -11.595   6.167  72.517  1.00  0.00    -0.294 A  
HETATM   54  C   UNL     1     -13.210   7.680  71.544  1.00  0.00    -0.380 A  
HETATM   55  C   UNL     1     -10.659   7.193  72.564  1.00  0.00    -0.273 A  
HETATM   56  C   UNL     1     -12.882   6.419  72.044  1.00  0.00     0.004 A  
ENDBRANCH  50  51
ENDBRANCH  16  50
ENDBRANCH  13  16
ENDBRANCH   7  12
ENDBRANCH   4   7
ENDBRANCH   2   3
TORSDOF 18
ENDMDL
MODEL       29
REMARK 921   NORMALIZED FREE ENERGY PREDICTED BY IDOCK:   -2.88 KCAL/MOL
REMARK 922        TOTAL FREE ENERGY PREDICTED BY IDOCK:  -10.64 KCAL/MOL
REMARK 923 INTER-LIGAND FREE ENERGY PREDICTED BY IDOCK:   -9.40 KCAL/MOL
REMARK 924 INTRA-LIGAND FREE ENERGY PREDICTED BY IDOCK:   -1.24 KCAL/MOL
REMARK 927      BINDING AFFINITY PREDICTED BY RF-SCORE:    0.00 PKD
ROOT
HETATM    1  C   UNL     1     -10.934  10.613  67.607  1.00  0.00    -0.310 C  
HETATM    2  O   UNL     1     -10.414  10.228  66.330  1.00  0.00    -0.224 OA 
ENDROOT
BRANCH   2   3
HETATM    3  C   UNL     1      -9.982   8.945  66.237  1.00  0.00    -0.266 C  
HETATM    4  N   UNL     1      -8.765   8.932  65.630  1.00  0.00    -0.171 N  
HETATM    5  O   UNL     1     -10.607   7.953  66.588  1.00  0.00    -0.276 OA 
HETATM    6  H   UNL     1      -8.275   9.818  65.505  1.00  0.00     0.000 HD 
BRANCH   4   7
HETATM    7  C   UNL     1      -8.127   7.712  65.148  1.00  0.00    -0.134 C  
BRANCH   7   8
HETATM    8  C   UNL     1      -7.231   7.975  63.873  1.00  0.00    -0.092 C  
HETATM    9  C   UNL     1      -7.975   8.927  62.914  1.00  0.00    -0.159 C  
HETATM   10  C   UNL     1      -6.849   6.686  63.115  1.00  0.00    -0.046 C  
HETATM   11  C   UNL     1      -5.895   8.663  64.244  1.00  0.00    -0.065 C  
ENDBRANCH   7   8
BRANCH   7  12
HETATM   12  C   UNL     1      -7.333   7.108  66.346  1.00  0.00    -0.079 C  
HETATM   13  N   UNL     1      -7.519   7.701  67.582  1.00  0.00    -0.102 N  
HETATM   14  O   UNL     1      -6.513   6.204  66.207  1.00  0.00    -0.043 OA 
HETATM   15  H   UNL     1      -8.058   8.564  67.645  1.00  0.00     0.000 HD 
BRANCH  13  16
HETATM   16  C   UNL     1      -6.948   7.104  68.823  1.00  0.00    -0.082 C  
BRANCH  16  17
HETATM   17  C   UNL     1      -5.829   8.041  69.371  1.00  0.00    -0.030 C  
HETATM   18  H   UNL     1      -4.781   9.490  68.625  1.00  0.00     0.000 HD 
HETATM   19  O   UNL     1      -5.463   8.919  68.292  1.00  0.00    -0.037 OA 
BRANCH  17  20
HETATM   20  C   UNL     1      -6.281   8.869  70.604  1.00  0.00    -0.042 C  
BRANCH  20  21
HETATM   21  N   UNL     1      -7.334   9.900  70.378  1.00  0.00    -0.217 NA 
BRANCH  21  22
HETATM   22  N   UNL     1      -8.667   9.392  70.556  1.00  0.00    -0.230 N  
HETATM   23  C   UNL     1      -9.120   8.936  71.786  1.00  0.00    -0.171 C  
HETATM   24  H   UNL     1      -9.298   9.364  69.755  1.00  0.00     0.000 HD 
HETATM   25  O   UNL     1      -8.384   8.801  72.759  1.00  0.00    -0.412 OA 
BRANCH  23  26
HETATM   26  C   UNL     1     -10.619   8.527  71.779  1.00  0.00    -0.301 C  
BRANCH  26  27
HETATM   27  N   UNL     1     -11.369   9.509  70.996  1.00  0.00    -0.321 N  
HETATM   28  O   UNL     1     -13.115   9.766  72.447  1.00  0.00    -0.388 OA 
HETATM   29  C   UNL     1     -12.545  10.051  71.404  1.00  0.00    -0.415 C  
HETATM   30  H   UNL     1     -10.987   9.802  70.097  1.00  0.00     0.000 HD 
BRANCH  29  31
HETATM   31  O   UNL     1     -12.964  10.954  70.487  1.00  0.00    -0.259 OA 
HETATM   32  C   UNL     1     -12.279  12.209  70.523  1.00  0.00    -0.304 C  
ENDBRANCH  29  31
ENDBRANCH  26  27
BRANCH  26  33
HETATM   33  C   UNL     1     -10.864   7.066  71.281  1.00  0.00    -0.260 C  
HETATM   34  C   UNL     1     -10.783   6.908  69.749  1.00  0.00    -0.276 C  
HETATM   35  C   UNL     1      -9.831   6.129  71.943  1.00  0.00    -0.176 C  
HETATM   36  C   UNL     1     -12.270   6.594  71.715  1.00  0.00    -0.400 C  
ENDBRANCH  26  33
ENDBRANCH  23  26
ENDBRANCH  21  22
BRANCH  21  37
HETATM   37  C   UNL     1      -7.231  10.611  69.085  1.00  0.00    -0.102 C  
BRANCH  37  38
HETATM   38  C   UNL     1      -7.261  12.131  69.112  1.00  0.00     0.022 A  
HETATM   39  C   UNL     1      -6.313  12.914  69.782  1.00  0.00    -0.063 A  
HETATM   40  C   UNL     1      -6.364  14.299  69.767  1.00  0.00    -0.144 A  
HETATM   41  C   UNL     1      -8.266  12.800  68.404  1.00  0.00    -0.128 A  
HETATM   42  C   UNL     1      -7.346  14.975  69.044  1.00  0.00    -0.151 A  
HETATM   43  C   UNL     1      -8.302  14.200  68.365  1.00  0.00    -0.161 A  
BRANCH  42  44
HETATM   44  C   UNL     1      -7.321  16.442  69.007  1.00  0.00    -0.221 A  
HETATM   45  C   UNL     1      -8.367  17.199  68.490  1.00  0.00    -0.262 A  
HETATM   46  C   UNL     1      -8.234  18.583  68.444  1.00  0.00    -0.351 A  
HETATM   47  C   UNL     1      -7.064  19.174  68.905  1.00  0.00    -0.372 A  
HETATM   48  C   UNL     1      -6.066  18.352  69.392  1.00  0.00    -0.257 A  
HETATM   49  N   UNL     1      -6.169  17.013  69.451  1.00  0.00    -0.220 NA 
ENDBRANCH  42  44
ENDBRANCH  37  38
ENDBRANCH  21  37
ENDBRANCH  20  21
ENDBRANCH  17  20
ENDBRANCH  16  17
BRANCH  16  50
HETATM   50  C   UNL     1      -6.574   5.608  68.644  1.00  0.00    -0.048 C  
BRANCH  50  51
HETATM   51  C   UNL     1      -7.496   4.659  69.368  1.00  0.00    -0.052 A  
HETATM   52  C   UNL     1      -7.136   4.091  70.597  1.00  0.00    -0.037 A  
HETATM   53  C   UNL     1      -9.049   2.634  70.517  1.00  0.00    -0.185 A  
HETATM   54  C   UNL     1      -8.710   4.281  68.781  1.00  0.00    -0.124 A  
HETATM   55  C   UNL     1      -7.884   3.056  71.148  1.00  0.00    -0.050 A  
HETATM   56  C   UNL     1      -9.482   3.271  69.356  1.00  0.00    -0.203 A  
ENDBRANCH  50  51
ENDBRANCH  16  50
ENDBRANCH  13  16
ENDBRANCH   7  12
ENDBRANCH   4   7
ENDBRANCH   2   3
TORSDOF 18
ENDMDL
MODEL       30
REMARK 921   NORMALIZED FREE ENERGY PREDICTED BY IDOCK:   -2.88 KCAL/MOL
REMARK 922        TOTAL FREE ENERGY PREDICTED BY IDOCK:  -10.64 KCAL/MOL
REMARK 923 INTER-LIGAND FREE ENERGY PREDICTED BY IDOCK:   -9.42 KCAL/MOL
REMARK 924 INTRA-LIGAND FREE ENERGY PREDICTED BY IDOCK:   -1.22 KCAL/MOL
REMARK 927      BINDING AFFINITY PREDICTED BY RF-SCORE:    0.00 PKD
ROOT
HETATM    1  C   UNL     1      -8.217   4.840  74.009  1.00  0.00    -0.104 C  
HETATM    2  O   UNL     1      -8.360   5.889  73.047  1.00  0.00    -0.117 OA 
ENDROOT
BRANCH   2   3
HETATM    3  C   UNL     1      -7.607   5.760  71.925  1.00  0.00    -0.097 C  
HETATM    4  N   UNL     1      -8.424   5.816  70.838  1.00  0.00    -0.124 N  
HETATM    5  O   UNL     1      -6.400   5.567  71.893  1.00  0.00    -0.040 OA 
HETATM    6  H   UNL     1      -9.389   6.117  70.971  1.00  0.00     0.000 HD 
BRANCH   4   7
HETATM    7  C   UNL     1      -7.985   5.463  69.493  1.00  0.00    -0.089 C  
BRANCH   7   8
HETATM    8  C   UNL     1      -9.131   4.767  68.658  1.00  0.00    -0.149 C  
HETATM    9  C   UNL     1      -9.172   3.264  69.003  1.00  0.00    -0.224 C  
HETATM   10  C   UNL     1      -8.966   4.934  67.132  1.00  0.00    -0.110 C  
HETATM   11  C   UNL     1     -10.524   5.347  69.002  1.00  0.00    -0.252 C  
ENDBRANCH   7   8
BRANCH   7  12
HETATM   12  C   UNL     1      -7.447   6.770  68.831  1.00  0.00    -0.096 C  
HETATM   13  N   UNL     1      -8.274   7.392  67.915  1.00  0.00    -0.119 N  
HETATM   14  O   UNL     1      -6.314   7.197  69.038  1.00  0.00    -0.033 OA 
HETATM   15  H   UNL     1      -9.131   6.925  67.618  1.00  0.00     0.000 HD 
BRANCH  13  16
HETATM   16  C   UNL     1      -7.940   8.731  67.351  1.00  0.00    -0.098 C  
BRANCH  16  17
HETATM   17  C   UNL     1      -9.202   9.319  66.650  1.00  0.00    -0.148 C  
HETATM   18  H   UNL     1     -11.089   8.880  66.654  1.00  0.00     0.000 HD 
HETATM   19  O   UNL     1     -10.320   8.522  67.081  1.00  0.00    -0.261 OA 
BRANCH  17  20
HETATM   20  C   UNL     1      -9.446  10.813  66.994  1.00  0.00    -0.164 C  
BRANCH  20  21
HETATM   21  N   UNL     1      -8.957  11.290  68.320  1.00  0.00    -0.166 NA 
BRANCH  21  22
HETATM   22  N   UNL     1     -10.014  11.762  69.173  1.00  0.00    -0.410 N  
HETATM   23  C   UNL     1     -11.232  12.187  68.663  1.00  0.00    -0.269 C  
HETATM   24  H   UNL     1      -9.864  11.785  70.181  1.00  0.00     0.000 HD 
HETATM   25  O   UNL     1     -11.441  12.326  67.462  1.00  0.00    -0.302 OA 
BRANCH  23  26
HETATM   26  C   UNL     1     -12.266  12.557  69.763  1.00  0.00    -0.132 C  
BRANCH  26  27
HETATM   27  N   UNL     1     -12.054  11.686  70.918  1.00  0.00    -0.384 N  
HETATM   28  O   UNL     1     -13.629  10.116  70.392  1.00  0.00    -0.014 OA 
HETATM   29  C   UNL     1     -12.746  10.536  71.125  1.00  0.00    -0.418 C  
HETATM   30  H   UNL     1     -11.349  11.956  71.604  1.00  0.00     0.000 HD 
BRANCH  29  31
HETATM   31  O   UNL     1     -12.291   9.936  72.250  1.00  0.00    -0.206 OA 
HETATM   32  C   UNL     1     -11.372   8.862  72.030  1.00  0.00    -0.357 C  
ENDBRANCH  29  31
ENDBRANCH  26  27
BRANCH  26  33
HETATM   33  C   UNL     1     -12.243  14.071  70.154  1.00  0.00    -0.425 C  
HETATM   34  C   UNL     1     -11.042  14.468  71.036  1.00  0.00     0.256 C  
HETATM   35  C   UNL     1     -12.233  14.924  68.868  1.00  0.00    -0.143 C  
HETATM   36  C   UNL     1     -13.524  14.426  70.942  1.00  0.00    -0.228 C  
ENDBRANCH  26  33
ENDBRANCH  23  26
ENDBRANCH  21  22
BRANCH  21  37
HETATM   37  C   UNL     1      -7.874  12.296  68.250  1.00  0.00    -0.153 C  
BRANCH  37  38
HETATM   38  C   UNL     1      -8.277  13.754  68.094  1.00  0.00    -0.160 A  
HETATM   39  C   UNL     1      -8.020  14.737  69.056  1.00  0.00    -0.152 A  
HETATM   40  C   UNL     1      -8.386  16.061  68.867  1.00  0.00    -0.231 A  
HETATM   41  C   UNL     1      -8.909  14.157  66.912  1.00  0.00    -0.223 A  
HETATM   42  C   UNL     1      -8.994  16.478  67.683  1.00  0.00    -0.198 A  
HETATM   43  C   UNL     1      -9.255  15.500  66.708  1.00  0.00    -0.272 A  
BRANCH  42  44
HETATM   44  C   UNL     1      -9.305  17.900  67.505  1.00  0.00    -0.253 A  
HETATM   45  C   UNL     1     -10.344  18.533  68.180  1.00  0.00    -0.391 A  
HETATM   46  C   UNL     1     -10.604  19.872  67.909  1.00  0.00    -0.424 A  
HETATM   47  C   UNL     1      -9.832  20.541  66.967  1.00  0.00    -0.534 A  
HETATM   48  C   UNL     1      -8.827  19.840  66.328  1.00  0.00    -0.370 A  
HETATM   49  N   UNL     1      -8.551  18.547  66.575  1.00  0.00    -0.277 NA 
ENDBRANCH  42  44
ENDBRANCH  37  38
ENDBRANCH  21  37
ENDBRANCH  20  21
ENDBRANCH  17  20
ENDBRANCH  16  17
BRANCH  16  50
HETATM   50  C   UNL     1      -6.629   8.713  66.517  1.00  0.00    -0.063 C  
BRANCH  50  51
HETATM   51  C   UNL     1      -6.605   7.653  65.444  1.00  0.00    -0.045 A  
HETATM   52  C   UNL     1      -5.660   6.619  65.465  1.00  0.00    -0.029 A  
HETATM   53  C   UNL     1      -6.341   5.913  63.268  1.00  0.00    -0.025 A  
HETATM   54  C   UNL     1      -7.497   7.729  64.367  1.00  0.00    -0.099 A  
HETATM   55  C   UNL     1      -5.500   5.781  64.367  1.00  0.00    -0.017 A  
HETATM   56  C   UNL     1      -7.363   6.860  63.284  1.00  0.00    -0.080 A  
ENDBRANCH  50  51
ENDBRANCH  16  50
ENDBRANCH  13  16
ENDBRANCH   7  12
ENDBRANCH   4   7
ENDBRANCH   2   3
TORSDOF 18
ENDMDL
MODEL       31
REMARK 921   NORMALIZED FREE ENERGY PREDICTED BY IDOCK:   -2.87 KCAL/MOL
REMARK 922        TOTAL FREE ENERGY PREDICTED BY IDOCK:  -10.62 KCAL/MOL
REMARK 923 INTER-LIGAND FREE ENERGY PREDICTED BY IDOCK:  -11.33 KCAL/MOL
REMARK 924 INTRA-LIGAND FREE ENERGY PREDICTED BY IDOCK:    0.71 KCAL/MOL
REMARK 927      BINDING AFFINITY PREDICTED BY RF-SCORE:    0.00 PKD
ROOT
HETATM    1  C   UNL     1     -13.275  12.649  71.917  1.00  0.00    -0.403 C  
HETATM    2  O   UNL     1     -13.517  11.240  71.866  1.00  0.00    -0.350 OA 
ENDROOT
BRANCH   2   3
HETATM    3  C   UNL     1     -12.735  10.542  71.003  1.00  0.00    -0.408 C  
HETATM    4  N   UNL     1     -11.669  10.040  71.683  1.00  0.00    -0.287 N  
HETATM    5  O   UNL     1     -12.923  10.431  69.800  1.00  0.00    -0.059 OA 
HETATM    6  H   UNL     1     -11.683  10.074  72.702  1.00  0.00     0.000 HD 
BRANCH   4   7
HETATM    7  C   UNL     1     -10.508   9.455  71.023  1.00  0.00    -0.322 C  
BRANCH   7   8
HETATM    8  C   UNL     1     -10.440   7.889  71.219  1.00  0.00    -0.233 C  
HETATM    9  C   UNL     1      -9.932   7.574  72.641  1.00  0.00    -0.259 C  
HETATM   10  C   UNL     1      -9.537   7.179  70.188  1.00  0.00    -0.168 C  
HETATM   11  C   UNL     1     -11.836   7.233  71.084  1.00  0.00    -0.345 C  
ENDBRANCH   7   8
BRANCH   7  12
HETATM   12  C   UNL     1     -10.568   9.887  69.525  1.00  0.00    -0.242 C  
HETATM   13  N   UNL     1     -10.325  11.219  69.249  1.00  0.00    -0.407 N  
HETATM   14  O   UNL     1     -10.895   9.115  68.627  1.00  0.00    -0.162 OA 
HETATM   15  H   UNL     1     -10.238  11.881  70.020  1.00  0.00     0.000 HD 
BRANCH  13  16
HETATM   16  C   UNL     1     -10.187  11.709  67.848  1.00  0.00    -0.189 C  
BRANCH  16  17
HETATM   17  C   UNL     1      -8.678  11.948  67.537  1.00  0.00    -0.163 C  
HETATM   18  H   UNL     1      -7.471  11.377  66.133  1.00  0.00     0.000 HD 
HETATM   19  O   UNL     1      -8.390  11.232  66.323  1.00  0.00    -0.170 OA 
BRANCH  17  20
HETATM   20  C   UNL     1      -8.324  13.451  67.368  1.00  0.00    -0.190 C  
BRANCH  20  21
HETATM   21  N   UNL     1      -7.525  14.085  68.456  1.00  0.00    -0.118 NA 
BRANCH  21  22
HETATM   22  N   UNL     1      -7.482  15.518  68.359  1.00  0.00    -0.113 N  
HETATM   23  C   UNL     1      -8.177  16.208  67.376  1.00  0.00    -0.163 C  
HETATM   24  H   UNL     1      -6.925  16.044  69.033  1.00  0.00     0.000 HD 
HETATM   25  O   UNL     1      -8.751  15.648  66.447  1.00  0.00    -0.286 OA 
BRANCH  23  26
HETATM   26  C   UNL     1      -8.076  17.752  67.517  1.00  0.00    -0.223 C  
BRANCH  26  27
HETATM   27  N   UNL     1      -7.504  18.298  66.287  1.00  0.00    -0.250 N  
HETATM   28  O   UNL     1      -5.465  17.279  66.434  1.00  0.00    -0.183 OA 
HETATM   29  C   UNL     1      -6.253  18.005  65.847  1.00  0.00    -0.248 C  
HETATM   30  H   UNL     1      -8.075  18.934  65.730  1.00  0.00     0.000 HD 
BRANCH  29  31
HETATM   31  O   UNL     1      -6.037  18.627  64.665  1.00  0.00    -0.384 OA 
HETATM   32  C   UNL     1      -5.315  19.859  64.756  1.00  0.00    -0.168 C  
ENDBRANCH  29  31
ENDBRANCH  26  27
BRANCH  26  33
HETATM   33  C   UNL     1      -9.431  18.435  67.891  1.00  0.00    -0.299 C  
HETATM   34  C   UNL     1     -10.205  18.989  66.677  1.00  0.00    -0.475 C  
HETATM   35  C   UNL     1     -10.319  17.417  68.637  1.00  0.00    -0.364 C  
HETATM   36  C   UNL     1      -9.174  19.621  68.847  1.00  0.00    -0.307 C  
ENDBRANCH  26  33
ENDBRANCH  23  26
ENDBRANCH  21  22
BRANCH  21  37
HETATM   37  C   UNL     1      -6.156  13.545  68.607  1.00  0.00    -0.086 C  
BRANCH  37  38
HETATM   38  C   UNL     1      -6.013  12.060  68.902  1.00  0.00    -0.060 A  
HETATM   39  C   UNL     1      -6.472  11.455  70.078  1.00  0.00    -0.094 A  
HETATM   40  C   UNL     1      -6.340  10.093  70.301  1.00  0.00    -0.117 A  
HETATM   41  C   UNL     1      -5.423  11.233  67.939  1.00  0.00    -0.043 A  
HETATM   42  C   UNL     1      -5.777   9.257  69.337  1.00  0.00    -0.034 A  
HETATM   43  C   UNL     1      -5.314   9.852  68.151  1.00  0.00    -0.039 A  
BRANCH  42  44
HETATM   44  C   UNL     1      -5.716   7.814  69.594  1.00  0.00    -0.023 A  
HETATM   45  C   UNL     1      -5.953   7.263  70.848  1.00  0.00    -0.035 A  
HETATM   46  C   UNL     1      -5.819   5.888  71.014  1.00  0.00    -0.022 A  
HETATM   47  C   UNL     1      -5.444   5.102  69.931  1.00  0.00    -0.011 A  
HETATM   48  C   UNL     1      -5.213   5.726  68.720  1.00  0.00    -0.003 A  
HETATM   49  N   UNL     1      -5.340   7.052  68.532  1.00  0.00    -0.016 NA 
ENDBRANCH  42  44
ENDBRANCH  37  38
ENDBRANCH  21  37
ENDBRANCH  20  21
ENDBRANCH  17  20
ENDBRANCH  16  17
BRANCH  16  50
HETATM   50  C   UNL     1     -11.153  12.883  67.532  1.00  0.00    -0.302 C  
BRANCH  50  51
HETATM   51  C   UNL     1     -11.628  12.912  66.101  1.00  0.00    -0.423 A  
HETATM   52  C   UNL     1     -11.406  11.830  65.239  1.00  0.00    -0.284 A  
HETATM   53  C   UNL     1     -12.187  13.122  63.367  1.00  0.00    -0.521 A  
HETATM   54  C   UNL     1     -12.245  14.062  65.593  1.00  0.00    -0.462 A  
HETATM   55  C   UNL     1     -11.644  11.948  63.875  1.00  0.00    -0.515 A  
HETATM   56  C   UNL     1     -12.523  14.164  64.229  1.00  0.00    -0.301 A  
ENDBRANCH  50  51
ENDBRANCH  16  50
ENDBRANCH  13  16
ENDBRANCH   7  12
ENDBRANCH   4   7
ENDBRANCH   2   3
TORSDOF 18
ENDMDL
MODEL       32
REMARK 921   NORMALIZED FREE ENERGY PREDICTED BY IDOCK:   -2.81 KCAL/MOL
REMARK 922        TOTAL FREE ENERGY PREDICTED BY IDOCK:  -10.51 KCAL/MOL
REMARK 923 INTER-LIGAND FREE ENERGY PREDICTED BY IDOCK:   -9.42 KCAL/MOL
REMARK 924 INTRA-LIGAND FREE ENERGY PREDICTED BY IDOCK:   -1.09 KCAL/MOL
REMARK 927      BINDING AFFINITY PREDICTED BY RF-SCORE:    0.00 PKD
ROOT
HETATM    1  C   UNL     1      -9.384   2.971  69.120  1.00  0.00    -0.149 C  
HETATM    2  O   UNL     1      -9.773   4.333  68.917  1.00  0.00    -0.168 OA 
ENDROOT
BRANCH   2   3
HETATM    3  C   UNL     1      -8.754   5.219  68.784  1.00  0.00    -0.090 C  
HETATM    4  N   UNL     1      -8.068   4.934  67.645  1.00  0.00    -0.094 N  
HETATM    5  O   UNL     1      -8.460   6.095  69.585  1.00  0.00    -0.124 OA 
HETATM    6  H   UNL     1      -8.478   4.275  66.983  1.00  0.00     0.000 HD 
BRANCH   4   7
HETATM    7  C   UNL     1      -6.774   5.524  67.324  1.00  0.00    -0.059 C  
BRANCH   7   8
HETATM    8  C   UNL     1      -6.258   5.086  65.897  1.00  0.00    -0.034 C  
HETATM    9  C   UNL     1      -7.463   4.921  64.948  1.00  0.00    -0.076 C  
HETATM   10  C   UNL     1      -5.443   3.775  65.915  1.00  0.00    -0.013 C  
HETATM   11  C   UNL     1      -5.332   6.155  65.268  1.00  0.00    -0.014 C  
ENDBRANCH   7   8
BRANCH   7  12
HETATM   12  C   UNL     1      -6.926   7.069  67.477  1.00  0.00    -0.079 C  
HETATM   13  N   UNL     1      -7.914   7.677  66.725  1.00  0.00    -0.109 N  
HETATM   14  O   UNL     1      -6.164   7.744  68.164  1.00  0.00    -0.042 OA 
HETATM   15  H   UNL     1      -8.414   7.131  66.023  1.00  0.00     0.000 HD 
BRANCH  13  16
HETATM   16  C   UNL     1      -8.264   9.113  66.916  1.00  0.00    -0.116 C  
BRANCH  16  17
HETATM   17  C   UNL     1      -9.816   9.263  66.931  1.00  0.00    -0.214 C  
HETATM   18  H   UNL     1     -11.262   8.357  67.847  1.00  0.00     0.000 HD 
HETATM   19  O   UNL     1     -10.317   8.265  67.838  1.00  0.00    -0.209 OA 
BRANCH  17  20
HETATM   20  C   UNL     1     -10.284  10.675  67.376  1.00  0.00    -0.204 C  
BRANCH  20  21
HETATM   21  N   UNL     1      -9.712  11.208  68.646  1.00  0.00    -0.196 NA 
BRANCH  21  22
HETATM   22  N   UNL     1     -10.675  11.917  69.443  1.00  0.00    -0.450 N  
HETATM   23  C   UNL     1     -11.873  12.373  68.911  1.00  0.00    -0.301 C  
HETATM   24  H   UNL     1     -10.472  12.091  70.427  1.00  0.00     0.000 HD 
HETATM   25  O   UNL     1     -12.129  12.334  67.712  1.00  0.00    -0.478 OA 
BRANCH  23  26
HETATM   26  C   UNL     1     -12.810  13.022  69.968  1.00  0.00     0.440 C  
BRANCH  26  27
HETATM   27  N   UNL     1     -12.842  12.166  71.154  1.00  0.00    -0.287 N  
HETATM   28  O   UNL     1     -13.401  10.220  70.095  1.00  0.00     0.004 OA 
HETATM   29  C   UNL     1     -13.123  10.838  71.112  1.00  0.00    -0.288 C  
HETATM   30  H   UNL     1     -12.642  12.589  72.060  1.00  0.00     0.000 HD 
BRANCH  29  31
HETATM   31  O   UNL     1     -13.030  10.321  72.360  1.00  0.00    -0.295 OA 
HETATM   32  C   UNL     1     -12.830   8.906  72.411  1.00  0.00    -0.380 C  
ENDBRANCH  29  31
ENDBRANCH  26  27
BRANCH  26  33
HETATM   33  C   UNL     1     -12.430  14.498  70.317  1.00  0.00    -0.405 C  
HETATM   34  C   UNL     1     -11.283  14.620  71.340  1.00  0.00     0.169 C  
HETATM   35  C   UNL     1     -12.034  15.235  69.020  1.00  0.00    -0.304 C  
HETATM   36  C   UNL     1     -13.654  15.226  70.915  1.00  0.00    -0.402 C  
ENDBRANCH  26  33
ENDBRANCH  23  26
ENDBRANCH  21  22
BRANCH  21  37
HETATM   37  C   UNL     1      -8.493  12.029  68.473  1.00  0.00    -0.098 C  
BRANCH  37  38
HETATM   38  C   UNL     1      -8.675  13.480  68.056  1.00  0.00    -0.181 A  
HETATM   39  C   UNL     1      -9.180  13.871  66.809  1.00  0.00    -0.267 A  
HETATM   40  C   UNL     1      -9.349  15.206  66.474  1.00  0.00    -0.308 A  
HETATM   41  C   UNL     1      -8.357  14.491  68.969  1.00  0.00    -0.061 A  
HETATM   42  C   UNL     1      -9.059  16.220  67.386  1.00  0.00    -0.203 A  
HETATM   43  C   UNL     1      -8.554  15.840  68.641  1.00  0.00    -0.194 A  
BRANCH  42  44
HETATM   44  C   UNL     1      -9.313  17.614  67.006  1.00  0.00    -0.257 A  
HETATM   45  C   UNL     1      -8.671  18.687  67.612  1.00  0.00    -0.288 A  
HETATM   46  C   UNL     1      -9.014  19.980  67.227  1.00  0.00    -0.440 A  
HETATM   47  C   UNL     1      -9.993  20.167  66.259  1.00  0.00    -0.557 A  
HETATM   48  C   UNL     1     -10.595  19.049  65.714  1.00  0.00    -0.318 A  
HETATM   49  N   UNL     1     -10.279  17.790  66.064  1.00  0.00    -0.530 NA 
ENDBRANCH  42  44
ENDBRANCH  37  38
ENDBRANCH  21  37
ENDBRANCH  20  21
ENDBRANCH  17  20
ENDBRANCH  16  17
BRANCH  16  50
HETATM   50  C   UNL     1      -7.487  10.047  65.949  1.00  0.00    -0.115 C  
BRANCH  50  51
HETATM   51  C   UNL     1      -8.190  10.284  64.636  1.00  0.00    -0.161 A  
HETATM   52  C   UNL     1      -8.891  11.472  64.390  1.00  0.00     0.408 A  
HETATM   53  C   UNL     1      -9.784  10.559  62.352  1.00  0.00    -0.085 A  
HETATM   54  C   UNL     1      -8.206   9.279  63.661  1.00  0.00    -0.166 A  
HETATM   55  C   UNL     1      -9.715  11.594  63.277  1.00  0.00    -0.390 A  
HETATM   56  C   UNL     1      -9.001   9.419  62.523  1.00  0.00    -0.241 A  
ENDBRANCH  50  51
ENDBRANCH  16  50
ENDBRANCH  13  16
ENDBRANCH   7  12
ENDBRANCH   4   7
ENDBRANCH   2   3
TORSDOF 18
ENDMDL
MODEL       33
REMARK 921   NORMALIZED FREE ENERGY PREDICTED BY IDOCK:   -2.78 KCAL/MOL
REMARK 922        TOTAL FREE ENERGY PREDICTED BY IDOCK:  -10.45 KCAL/MOL
REMARK 923 INTER-LIGAND FREE ENERGY PREDICTED BY IDOCK:   -8.43 KCAL/MOL
REMARK 924 INTRA-LIGAND FREE ENERGY PREDICTED BY IDOCK:   -2.02 KCAL/MOL
REMARK 927      BINDING AFFINITY PREDICTED BY RF-SCORE:    0.00 PKD
ROOT
HETATM    1  C   UNL     1     -10.597  18.652  68.132  1.00  0.00    -0.240 C  
HETATM    2  O   UNL     1      -9.904  17.544  68.713  1.00  0.00    -0.309 OA 
ENDROOT
BRANCH   2   3
HETATM    3  C   UNL     1     -10.324  16.317  68.315  1.00  0.00    -0.272 C  
HETATM    4  N   UNL     1      -9.974  15.403  69.260  1.00  0.00    -0.241 N  
HETATM    5  O   UNL     1     -10.876  16.060  67.254  1.00  0.00    -0.313 OA 
HETATM    6  H   UNL     1      -9.644  15.741  70.163  1.00  0.00     0.000 HD 
BRANCH   4   7
HETATM    7  C   UNL     1     -10.047  13.963  69.042  1.00  0.00    -0.018 C  
BRANCH   7   8
HETATM    8  C   UNL     1     -11.536  13.466  68.859  1.00  0.00    -0.347 C  
HETATM    9  C   UNL     1     -12.484  14.393  69.648  1.00  0.00    -0.207 C  
HETATM   10  C   UNL     1     -11.756  12.007  69.316  1.00  0.00    -0.389 C  
HETATM   11  C   UNL     1     -11.981  13.520  67.378  1.00  0.00    -0.398 C  
ENDBRANCH   7   8
BRANCH   7  12
HETATM   12  C   UNL     1      -9.135  13.639  67.818  1.00  0.00    -0.199 C  
HETATM   13  N   UNL     1      -8.941  12.303  67.520  1.00  0.00    -0.172 N  
HETATM   14  O   UNL     1      -8.540  14.510  67.188  1.00  0.00    -0.201 OA 
HETATM   15  H   UNL     1      -9.290  11.592  68.162  1.00  0.00     0.000 HD 
BRANCH  13  16
HETATM   16  C   UNL     1      -8.234  11.879  66.278  1.00  0.00     0.137 C  
BRANCH  16  17
HETATM   17  C   UNL     1      -9.264  11.249  65.293  1.00  0.00    -0.172 C  
HETATM   18  H   UNL     1      -9.149   9.985  63.829  1.00  0.00     0.000 HD 
HETATM   19  O   UNL     1      -8.522  10.369  64.429  1.00  0.00    -0.172 OA 
BRANCH  17  20
HETATM   20  C   UNL     1     -10.391  10.463  66.015  1.00  0.00    -0.192 C  
BRANCH  20  21
HETATM   21  N   UNL     1      -9.984   9.257  66.792  1.00  0.00    -0.224 NA 
BRANCH  21  22
HETATM   22  N   UNL     1      -9.728   8.112  65.961  1.00  0.00    -0.459 N  
HETATM   23  C   UNL     1      -8.563   7.367  66.078  1.00  0.00    -0.151 C  
HETATM   24  H   UNL     1     -10.421   7.840  65.265  1.00  0.00     0.000 HD 
HETATM   25  O   UNL     1      -7.620   7.709  66.785  1.00  0.00    -0.094 OA 
BRANCH  23  26
HETATM   26  C   UNL     1      -8.535   6.117  65.157  1.00  0.00    -0.100 C  
BRANCH  26  27
HETATM   27  N   UNL     1      -7.306   6.145  64.365  1.00  0.00    -0.064 N  
HETATM   28  O   UNL     1      -8.144   7.275  62.565  1.00  0.00    -0.134 OA 
HETATM   29  C   UNL     1      -7.215   6.731  63.143  1.00  0.00    -0.064 C  
HETATM   30  H   UNL     1      -6.473   5.700  64.751  1.00  0.00     0.000 HD 
BRANCH  29  31
HETATM   31  O   UNL     1      -5.943   6.629  62.691  1.00  0.00    -0.033 OA 
HETATM   32  C   UNL     1      -5.292   7.877  62.439  1.00  0.00    -0.060 C  
ENDBRANCH  29  31
ENDBRANCH  26  27
BRANCH  26  33
HETATM   33  C   UNL     1      -8.708   4.769  65.929  1.00  0.00    -0.124 C  
HETATM   34  C   UNL     1      -7.924   4.707  67.256  1.00  0.00    -0.101 C  
HETATM   35  C   UNL     1     -10.208   4.540  66.214  1.00  0.00    -0.270 C  
HETATM   36  C   UNL     1      -8.214   3.596  65.053  1.00  0.00    -0.097 C  
ENDBRANCH  26  33
ENDBRANCH  23  26
ENDBRANCH  21  22
BRANCH  21  37
HETATM   37  C   UNL     1     -10.908   8.891  67.888  1.00  0.00    -0.030 C  
BRANCH  37  38
HETATM   38  C   UNL     1     -10.427   7.865  68.902  1.00  0.00    -0.205 A  
HETATM   39  C   UNL     1     -10.932   6.562  68.986  1.00  0.00    -0.378 A  
HETATM   40  C   UNL     1     -10.452   5.648  69.913  1.00  0.00    -0.378 A  
HETATM   41  C   UNL     1      -9.398   8.217  69.784  1.00  0.00    -0.159 A  
HETATM   42  C   UNL     1      -9.410   5.981  70.778  1.00  0.00    -0.169 A  
HETATM   43  C   UNL     1      -8.893   7.285  70.702  1.00  0.00    -0.148 A  
BRANCH  42  44
HETATM   44  C   UNL     1      -8.896   4.960  71.698  1.00  0.00    -0.131 A  
HETATM   45  C   UNL     1      -7.734   5.136  72.442  1.00  0.00    -0.097 A  
HETATM   46  C   UNL     1      -7.288   4.093  73.247  1.00  0.00    -0.071 A  
HETATM   47  C   UNL     1      -8.005   2.903  73.284  1.00  0.00    -0.060 A  
HETATM   48  C   UNL     1      -9.142   2.801  72.506  1.00  0.00    -0.083 A  
HETATM   49  N   UNL     1      -9.597   3.795  71.722  1.00  0.00    -0.146 NA 
ENDBRANCH  42  44
ENDBRANCH  37  38
ENDBRANCH  21  37
ENDBRANCH  20  21
ENDBRANCH  17  20
ENDBRANCH  16  17
BRANCH  16  50
HETATM   50  C   UNL     1      -6.960  11.042  66.578  1.00  0.00    -0.138 C  
BRANCH  50  51
HETATM   51  C   UNL     1      -6.351  11.324  67.928  1.00  0.00    -0.054 A  
HETATM   52  C   UNL     1      -6.571  10.470  69.018  1.00  0.00    -0.060 A  
HETATM   53  C   UNL     1      -5.520  12.045  70.502  1.00  0.00    -0.156 A  
HETATM   54  C   UNL     1      -5.603  12.491  68.128  1.00  0.00    -0.068 A  
HETATM   55  C   UNL     1      -6.195  10.847  70.302  1.00  0.00    -0.141 A  
HETATM   56  C   UNL     1      -5.189  12.848  69.411  1.00  0.00    -0.075 A  
ENDBRANCH  50  51
ENDBRANCH  16  50
ENDBRANCH  13  16
ENDBRANCH   7  12
ENDBRANCH   4   7
ENDBRANCH   2   3
TORSDOF 18
ENDMDL
MODEL       34
REMARK 921   NORMALIZED FREE ENERGY PREDICTED BY IDOCK:   -2.69 KCAL/MOL
REMARK 922        TOTAL FREE ENERGY PREDICTED BY IDOCK:  -10.26 KCAL/MOL
REMARK 923 INTER-LIGAND FREE ENERGY PREDICTED BY IDOCK:   -9.56 KCAL/MOL
REMARK 924 INTRA-LIGAND FREE ENERGY PREDICTED BY IDOCK:   -0.70 KCAL/MOL
REMARK 927      BINDING AFFINITY PREDICTED BY RF-SCORE:    0.00 PKD
ROOT
HETATM    1  C   UNL     1     -11.092   5.855  69.931  1.00  0.00    -0.347 C  
HETATM    2  O   UNL     1     -10.026   5.109  70.524  1.00  0.00    -0.199 OA 
ENDROOT
BRANCH   2   3
HETATM    3  C   UNL     1      -8.869   5.793  70.717  1.00  0.00    -0.137 C  
HETATM    4  N   UNL     1      -8.651   5.920  72.054  1.00  0.00    -0.136 N  
HETATM    5  O   UNL     1      -8.166   6.270  69.838  1.00  0.00    -0.117 OA 
HETATM    6  H   UNL     1      -9.222   5.368  72.694  1.00  0.00     0.000 HD 
BRANCH   4   7
HETATM    7  C   UNL     1      -7.640   6.808  72.615  1.00  0.00    -0.091 C  
BRANCH   7   8
HETATM    8  C   UNL     1      -6.174   6.280  72.350  1.00  0.00    -0.049 C  
HETATM    9  C   UNL     1      -5.230   6.828  73.439  1.00  0.00    -0.038 C  
HETATM   10  C   UNL     1      -5.625   6.667  70.959  1.00  0.00    -0.027 C  
HETATM   11  C   UNL     1      -6.099   4.736  72.422  1.00  0.00    -0.021 C  
ENDBRANCH   7   8
BRANCH   7  12
HETATM   12  C   UNL     1      -7.900   8.228  72.024  1.00  0.00    -0.130 C  
HETATM   13  N   UNL     1      -7.001   8.686  71.079  1.00  0.00    -0.062 N  
HETATM   14  O   UNL     1      -8.806   8.954  72.425  1.00  0.00    -0.396 OA 
HETATM   15  H   UNL     1      -6.154   8.150  70.895  1.00  0.00     0.000 HD 
BRANCH  13  16
HETATM   16  C   UNL     1      -7.243   9.948  70.325  1.00  0.00    -0.154 C  
BRANCH  16  17
HETATM   17  C   UNL     1      -7.747   9.597  68.891  1.00  0.00    -0.077 C  
HETATM   18  H   UNL     1      -7.164   8.377  67.505  1.00  0.00     0.000 HD 
HETATM   19  O   UNL     1      -6.857   8.590  68.378  1.00  0.00    -0.063 OA 
BRANCH  17  20
HETATM   20  C   UNL     1      -9.210   9.077  68.874  1.00  0.00    -0.140 C  
BRANCH  20  21
HETATM   21  N   UNL     1      -9.858   8.925  67.539  1.00  0.00    -0.173 NA 
BRANCH  21  22
HETATM   22  N   UNL     1      -9.002   8.303  66.566  1.00  0.00    -0.147 N  
HETATM   23  C   UNL     1      -9.237   7.019  66.096  1.00  0.00    -0.077 C  
HETATM   24  H   UNL     1      -8.199   8.821  66.210  1.00  0.00     0.000 HD 
HETATM   25  O   UNL     1     -10.091   6.279  66.575  1.00  0.00    -0.167 OA 
BRANCH  23  26
HETATM   26  C   UNL     1      -8.253   6.582  64.977  1.00  0.00    -0.115 C  
BRANCH  26  27
HETATM   27  N   UNL     1      -7.438   7.734  64.593  1.00  0.00    -0.088 N  
HETATM   28  O   UNL     1      -8.350   8.061  62.524  1.00  0.00    -0.165 OA 
HETATM   29  C   UNL     1      -7.565   8.379  63.405  1.00  0.00    -0.129 C  
HETATM   30  H   UNL     1      -6.736   8.070  65.253  1.00  0.00     0.000 HD 
BRANCH  29  31
HETATM   31  O   UNL     1      -6.706   9.424  63.369  1.00  0.00    -0.091 OA 
HETATM   32  C   UNL     1      -6.648  10.198  64.571  1.00  0.00    -0.118 C  
ENDBRANCH  29  31
ENDBRANCH  26  27
BRANCH  26  33
HETATM   33  C   UNL     1      -7.379   5.344  65.362  1.00  0.00    -0.069 C  
HETATM   34  C   UNL     1      -7.167   5.181  66.882  1.00  0.00    -0.077 C  
HETATM   35  C   UNL     1      -8.040   4.067  64.802  1.00  0.00    -0.093 C  
HETATM   36  C   UNL     1      -5.981   5.469  64.718  1.00  0.00    -0.022 C  
ENDBRANCH  26  33
ENDBRANCH  23  26
ENDBRANCH  21  22
BRANCH  21  37
HETATM   37  C   UNL     1     -10.431  10.172  66.988  1.00  0.00    -0.240 C  
BRANCH  37  38
HETATM   38  C   UNL     1     -10.961  11.200  67.976  1.00  0.00    -0.307 A  
HETATM   39  C   UNL     1     -11.711  10.870  69.111  1.00  0.00    -0.397 A  
HETATM   40  C   UNL     1     -12.160  11.836  69.999  1.00  0.00    -0.387 A  
HETATM   41  C   UNL     1     -10.663  12.552  67.770  1.00  0.00    -0.242 A  
HETATM   42  C   UNL     1     -11.846  13.182  69.817  1.00  0.00    -0.386 A  
HETATM   43  C   UNL     1     -11.093  13.526  68.682  1.00  0.00    -0.299 A  
BRANCH  42  44
HETATM   44  C   UNL     1     -12.292  14.159  70.817  1.00  0.00    -0.369 A  
HETATM   45  C   UNL     1     -11.534  15.268  71.175  1.00  0.00    -0.414 A  
HETATM   46  C   UNL     1     -12.009  16.112  72.174  1.00  0.00    -0.623 A  
HETATM   47  C   UNL     1     -13.218  15.824  72.795  1.00  0.00    -0.609 A  
HETATM   48  C   UNL     1     -13.906  14.695  72.392  1.00  0.00    -0.475 A  
HETATM   49  N   UNL     1     -13.472  13.866  71.427  1.00  0.00    -0.295 NA 
ENDBRANCH  42  44
ENDBRANCH  37  38
ENDBRANCH  21  37
ENDBRANCH  20  21
ENDBRANCH  17  20
ENDBRANCH  16  17
BRANCH  16  50
HETATM   50  C   UNL     1      -6.046  10.933  70.416  1.00  0.00    -0.129 C  
BRANCH  50  51
HETATM   51  C   UNL     1      -6.225  12.186  69.596  1.00  0.00    -0.131 A  
HETATM   52  C   UNL     1      -6.266  13.451  70.199  1.00  0.00    -0.061 A  
HETATM   53  C   UNL     1      -6.918  14.457  68.113  1.00  0.00    -0.126 A  
HETATM   54  C   UNL     1      -6.422  12.094  68.212  1.00  0.00    -0.055 A  
HETATM   55  C   UNL     1      -6.650  14.572  69.472  1.00  0.00    -0.143 A  
HETATM   56  C   UNL     1      -6.766  13.227  67.475  1.00  0.00    -0.156 A  
ENDBRANCH  50  51
ENDBRANCH  16  50
ENDBRANCH  13  16
ENDBRANCH   7  12
ENDBRANCH   4   7
ENDBRANCH   2   3
TORSDOF 18
ENDMDL
MODEL       35
REMARK 921   NORMALIZED FREE ENERGY PREDICTED BY IDOCK:   -2.67 KCAL/MOL
REMARK 922        TOTAL FREE ENERGY PREDICTED BY IDOCK:  -10.22 KCAL/MOL
REMARK 923 INTER-LIGAND FREE ENERGY PREDICTED BY IDOCK:   -9.18 KCAL/MOL
REMARK 924 INTRA-LIGAND FREE ENERGY PREDICTED BY IDOCK:   -1.04 KCAL/MOL
REMARK 927      BINDING AFFINITY PREDICTED BY RF-SCORE:    0.00 PKD
ROOT
HETATM    1  C   UNL     1      -8.991  10.957  63.752  1.00  0.00    -0.113 C  
HETATM    2  O   UNL     1      -8.355  10.637  64.993  1.00  0.00    -0.169 OA 
ENDROOT
BRANCH   2   3
HETATM    3  C   UNL     1      -8.868   9.569  65.655  1.00  0.00    -0.161 C  
HETATM    4  N   UNL     1      -7.893   8.632  65.801  1.00  0.00    -0.097 N  
HETATM    5  O   UNL     1     -10.030   9.441  66.012  1.00  0.00    -0.293 OA 
HETATM    6  H   UNL     1      -6.930   8.896  65.591  1.00  0.00     0.000 HD 
BRANCH   4   7
HETATM    7  C   UNL     1      -8.159   7.267  66.241  1.00  0.00    -0.121 C  
BRANCH   7   8
HETATM    8  C   UNL     1      -7.490   6.196  65.292  1.00  0.00    -0.084 C  
HETATM    9  C   UNL     1      -8.118   4.813  65.560  1.00  0.00    -0.111 C  
HETATM   10  C   UNL     1      -5.958   6.100  65.459  1.00  0.00    -0.025 C  
HETATM   11  C   UNL     1      -7.736   6.521  63.798  1.00  0.00    -0.108 C  
ENDBRANCH   7   8
BRANCH   7  12
HETATM   12  C   UNL     1      -7.679   7.164  67.722  1.00  0.00    -0.112 C  
HETATM   13  N   UNL     1      -6.966   8.237  68.224  1.00  0.00    -0.075 N  
HETATM   14  O   UNL     1      -7.843   6.154  68.401  1.00  0.00    -0.101 OA 
HETATM   15  H   UNL     1      -6.680   8.985  67.593  1.00  0.00     0.000 HD 
BRANCH  13  16
HETATM   16  C   UNL     1      -6.608   8.324  69.668  1.00  0.00    -0.037 C  
BRANCH  16  17
HETATM   17  C   UNL     1      -7.904   8.561  70.503  1.00  0.00    -0.086 C  
HETATM   18  H   UNL     1      -8.325   8.550  72.393  1.00  0.00     0.000 HD 
HETATM   19  O   UNL     1      -7.536   8.405  71.885  1.00  0.00    -0.092 OA 
BRANCH  17  20
HETATM   20  C   UNL     1      -8.526   9.964  70.270  1.00  0.00    -0.034 C  
BRANCH  20  21
HETATM   21  N   UNL     1      -9.850  10.011  69.584  1.00  0.00    -0.226 NA 
BRANCH  21  22
HETATM   22  N   UNL     1     -10.137  11.295  69.004  1.00  0.00    -0.359 N  
HETATM   23  C   UNL     1     -11.433  11.692  68.705  1.00  0.00    -0.290 C  
HETATM   24  H   UNL     1      -9.366  11.932  68.805  1.00  0.00     0.000 HD 
HETATM   25  O   UNL     1     -12.396  10.935  68.777  1.00  0.00    -0.495 OA 
BRANCH  23  26
HETATM   26  C   UNL     1     -11.525  13.151  68.181  1.00  0.00    -0.314 C  
BRANCH  26  27
HETATM   27  N   UNL     1     -10.441  13.932  68.775  1.00  0.00    -0.269 N  
HETATM   28  O   UNL     1     -11.551  15.925  68.900  1.00  0.00    -0.371 OA 
HETATM   29  C   UNL     1     -10.553  15.248  69.093  1.00  0.00    -0.250 C  
HETATM   30  H   UNL     1      -9.554  13.464  68.960  1.00  0.00     0.000 HD 
BRANCH  29  31
HETATM   31  O   UNL     1      -9.400  15.670  69.663  1.00  0.00    -0.280 OA 
HETATM   32  C   UNL     1      -8.208  15.247  68.995  1.00  0.00    -0.205 C  
ENDBRANCH  29  31
ENDBRANCH  26  27
BRANCH  26  33
HETATM   33  C   UNL     1     -11.540  13.254  66.621  1.00  0.00    -0.408 C  
HETATM   34  C   UNL     1     -12.613  14.215  66.070  1.00  0.00    -0.407 C  
HETATM   35  C   UNL     1     -10.149  13.714  66.134  1.00  0.00    -0.311 C  
HETATM   36  C   UNL     1     -11.814  11.864  66.007  1.00  0.00    -0.101 C  
ENDBRANCH  26  33
ENDBRANCH  23  26
ENDBRANCH  21  22
BRANCH  21  37
HETATM   37  C   UNL     1     -10.989   9.565  70.416  1.00  0.00    -0.278 C  
BRANCH  37  38
HETATM   38  C   UNL     1     -10.943   8.150  70.972  1.00  0.00    -0.273 A  
HETATM   39  C   UNL     1     -10.699   7.016  70.188  1.00  0.00    -0.265 A  
HETATM   40  C   UNL     1     -10.646   5.744  70.737  1.00  0.00    -0.337 A  
HETATM   41  C   UNL     1     -11.118   7.959  72.348  1.00  0.00    -0.392 A  
HETATM   42  C   UNL     1     -10.793   5.545  72.109  1.00  0.00    -0.293 A  
HETATM   43  C   UNL     1     -11.036   6.676  72.907  1.00  0.00    -0.263 A  
BRANCH  42  44
HETATM   44  C   UNL     1     -10.667   4.187  72.650  1.00  0.00    -0.072 A  
HETATM   45  C   UNL     1     -10.632   3.921  74.014  1.00  0.00    -0.290 A  
HETATM   46  C   UNL     1     -10.453   2.608  74.438  1.00  0.00    -0.210 A  
HETATM   47  C   UNL     1     -10.305   1.599  73.494  1.00  0.00    -0.169 A  
HETATM   48  C   UNL     1     -10.337   1.946  72.157  1.00  0.00    -0.113 A  
HETATM   49  N   UNL     1     -10.513   3.206  71.720  1.00  0.00     0.218 NA 
ENDBRANCH  42  44
ENDBRANCH  37  38
ENDBRANCH  21  37
ENDBRANCH  20  21
ENDBRANCH  17  20
ENDBRANCH  16  17
BRANCH  16  50
HETATM   50  C   UNL     1      -5.428   9.299  69.929  1.00  0.00    -0.032 C  
BRANCH  50  51
HETATM   51  C   UNL     1      -5.377  10.462  68.970  1.00  0.00    -0.038 A  
HETATM   52  C   UNL     1      -5.615  11.773  69.404  1.00  0.00    -0.062 A  
HETATM   53  C   UNL     1      -5.636  12.553  67.128  1.00  0.00     0.002 A  
HETATM   54  C   UNL     1      -5.152  10.234  67.607  1.00  0.00    -0.034 A  
HETATM   55  C   UNL     1      -5.785  12.805  68.487  1.00  0.00    -0.061 A  
HETATM   56  C   UNL     1      -5.281  11.279  66.691  1.00  0.00    -0.114 A  
ENDBRANCH  50  51
ENDBRANCH  16  50
ENDBRANCH  13  16
ENDBRANCH   7  12
ENDBRANCH   4   7
ENDBRANCH   2   3
TORSDOF 18
ENDMDL
MODEL       36
REMARK 921   NORMALIZED FREE ENERGY PREDICTED BY IDOCK:   -2.67 KCAL/MOL
REMARK 922        TOTAL FREE ENERGY PREDICTED BY IDOCK:  -10.21 KCAL/MOL
REMARK 923 INTER-LIGAND FREE ENERGY PREDICTED BY IDOCK:  -10.84 KCAL/MOL
REMARK 924 INTRA-LIGAND FREE ENERGY PREDICTED BY IDOCK:    0.62 KCAL/MOL
REMARK 927      BINDING AFFINITY PREDICTED BY RF-SCORE:    0.00 PKD
ROOT
HETATM    1  C   UNL     1      -5.455  20.863  70.474  1.00  0.00    -0.110 C  
HETATM    2  O   UNL     1      -6.351  19.763  70.658  1.00  0.00    -0.227 OA 
ENDROOT
BRANCH   2   3
HETATM    3  C   UNL     1      -6.817  19.190  69.519  1.00  0.00    -0.208 C  
HETATM    4  N   UNL     1      -8.154  19.420  69.425  1.00  0.00    -0.084 N  
HETATM    5  O   UNL     1      -6.157  18.525  68.733  1.00  0.00    -0.205 OA 
HETATM    6  H   UNL     1      -8.576  20.100  70.058  1.00  0.00     0.000 HD 
BRANCH   4   7
HETATM    7  C   UNL     1      -9.014  18.741  68.463  1.00  0.00    -0.341 C  
BRANCH   7   8
HETATM    8  C   UNL     1      -8.700  19.175  66.977  1.00  0.00    -0.313 C  
HETATM    9  C   UNL     1     -10.013  19.579  66.275  1.00  0.00    -0.538 C  
HETATM   10  C   UNL     1      -8.000  18.075  66.151  1.00  0.00    -0.227 C  
HETATM   11  C   UNL     1      -7.764  20.407  66.925  1.00  0.00    -0.346 C  
ENDBRANCH   7   8
BRANCH   7  12
HETATM   12  C   UNL     1      -8.849  17.208  68.705  1.00  0.00    -0.235 C  
HETATM   13  N   UNL     1      -9.965  16.522  69.147  1.00  0.00    -0.274 N  
HETATM   14  O   UNL     1      -7.769  16.635  68.596  1.00  0.00    -0.200 OA 
HETATM   15  H   UNL     1     -10.801  17.044  69.410  1.00  0.00     0.000 HD 
BRANCH  13  16
HETATM   16  C   UNL     1      -9.973  15.035  69.248  1.00  0.00    -0.215 C  
BRANCH  16  17
HETATM   17  C   UNL     1     -10.859  14.451  68.105  1.00  0.00    -0.244 C  
HETATM   18  H   UNL     1     -12.207  15.180  66.921  1.00  0.00     0.000 HD 
HETATM   19  O   UNL     1     -11.668  15.536  67.617  1.00  0.00    -0.229 OA 
BRANCH  17  20
HETATM   20  C   UNL     1     -10.027  13.840  66.945  1.00  0.00    -0.264 C  
BRANCH  20  21
HETATM   21  N   UNL     1      -9.691  12.390  67.044  1.00  0.00    -0.207 NA 
BRANCH  21  22
HETATM   22  N   UNL     1      -9.972  11.835  68.340  1.00  0.00    -0.200 N  
HETATM   23  C   UNL     1     -10.955  10.873  68.528  1.00  0.00    -0.230 C  
HETATM   24  H   UNL     1      -9.435  12.157  69.144  1.00  0.00     0.000 HD 
HETATM   25  O   UNL     1     -11.739  10.539  67.645  1.00  0.00    -0.401 OA 
BRANCH  23  26
HETATM   26  C   UNL     1     -11.023  10.337  69.984  1.00  0.00    -0.311 C  
BRANCH  26  27
HETATM   27  N   UNL     1     -12.341   9.743  70.204  1.00  0.00    -0.476 N  
HETATM   28  O   UNL     1     -12.724  10.640  72.271  1.00  0.00    -0.196 OA 
HETATM   29  C   UNL     1     -13.081   9.956  71.323  1.00  0.00    -0.400 C  
HETATM   30  H   UNL     1     -12.725   9.137  69.479  1.00  0.00     0.000 HD 
BRANCH  29  31
HETATM   31  O   UNL     1     -14.264   9.308  71.207  1.00  0.00    -0.193 OA 
HETATM   32  C   UNL     1     -14.346   8.072  71.921  1.00  0.00    -0.457 C  
ENDBRANCH  29  31
ENDBRANCH  26  27
BRANCH  26  33
HETATM   33  C   UNL     1      -9.865   9.348  70.340  1.00  0.00    -0.313 C  
HETATM   34  C   UNL     1      -9.870   8.055  69.500  1.00  0.00    -0.181 C  
HETATM   35  C   UNL     1      -8.513  10.069  70.154  1.00  0.00    -0.054 C  
HETATM   36  C   UNL     1      -9.972   8.929  71.823  1.00  0.00    -0.397 C  
ENDBRANCH  26  33
ENDBRANCH  23  26
ENDBRANCH  21  22
BRANCH  21  37
HETATM   37  C   UNL     1      -8.311  12.050  66.635  1.00  0.00    -0.085 C  
BRANCH  37  38
HETATM   38  C   UNL     1      -8.076  10.679  66.022  1.00  0.00    -0.159 A  
HETATM   39  C   UNL     1      -9.107   9.834  65.592  1.00  0.00    -0.222 A  
HETATM   40  C   UNL     1      -8.850   8.597  65.020  1.00  0.00    -0.114 A  
HETATM   41  C   UNL     1      -6.760  10.236  65.839  1.00  0.00    -0.117 A  
HETATM   42  C   UNL     1      -7.543   8.159  64.809  1.00  0.00    -0.101 A  
HETATM   43  C   UNL     1      -6.499   8.999  65.234  1.00  0.00    -0.068 A  
BRANCH  42  44
HETATM   44  C   UNL     1      -7.322   6.870  64.143  1.00  0.00    -0.086 A  
HETATM   45  C   UNL     1      -8.072   5.736  64.433  1.00  0.00    -0.133 A  
HETATM   46  C   UNL     1      -7.758   4.541  63.793  1.00  0.00    -0.072 A  
HETATM   47  C   UNL     1      -6.702   4.506  62.891  1.00  0.00    -0.031 A  
HETATM   48  C   UNL     1      -5.995   5.673  62.667  1.00  0.00    -0.018 A  
HETATM   49  N   UNL     1      -6.281   6.842  63.268  1.00  0.00    -0.041 NA 
ENDBRANCH  42  44
ENDBRANCH  37  38
ENDBRANCH  21  37
ENDBRANCH  20  21
ENDBRANCH  17  20
ENDBRANCH  16  17
BRANCH  16  50
HETATM   50  C   UNL     1     -10.282  14.539  70.686  1.00  0.00     1.122 C  
BRANCH  50  51
HETATM   51  C   UNL     1     -11.729  14.690  71.084  1.00  0.00    -0.332 A  
HETATM   52  C   UNL     1     -12.208  15.879  71.649  1.00  0.00    -0.544 A  
HETATM   53  C   UNL     1     -14.315  14.830  72.145  1.00  0.00    -0.589 A  
HETATM   54  C   UNL     1     -12.607  13.607  70.951  1.00  0.00    -0.421 A  
HETATM   55  C   UNL     1     -13.477  15.937  72.214  1.00  0.00    -0.396 A  
HETATM   56  C   UNL     1     -13.896  13.680  71.480  1.00  0.00    -0.152 A  
ENDBRANCH  50  51
ENDBRANCH  16  50
ENDBRANCH  13  16
ENDBRANCH   7  12
ENDBRANCH   4   7
ENDBRANCH   2   3
TORSDOF 18
ENDMDL
MODEL       37
REMARK 921   NORMALIZED FREE ENERGY PREDICTED BY IDOCK:   -2.50 KCAL/MOL
REMARK 922        TOTAL FREE ENERGY PREDICTED BY IDOCK:   -9.86 KCAL/MOL
REMARK 923 INTER-LIGAND FREE ENERGY PREDICTED BY IDOCK:   -8.89 KCAL/MOL
REMARK 924 INTRA-LIGAND FREE ENERGY PREDICTED BY IDOCK:   -0.97 KCAL/MOL
REMARK 927      BINDING AFFINITY PREDICTED BY RF-SCORE:    0.00 PKD
ROOT
HETATM    1  C   UNL     1     -12.064  11.235  70.174  1.00  0.00    -0.366 C  
HETATM    2  O   UNL     1     -11.136  10.184  70.460  1.00  0.00    -0.294 OA 
ENDROOT
BRANCH   2   3
HETATM    3  C   UNL     1     -10.844   9.363  69.420  1.00  0.00    -0.189 C  
HETATM    4  N   UNL     1      -9.880   8.485  69.810  1.00  0.00    -0.183 N  
HETATM    5  O   UNL     1     -11.322   9.434  68.297  1.00  0.00     0.082 OA 
HETATM    6  H   UNL     1      -9.653   8.423  70.802  1.00  0.00     0.000 HD 
BRANCH   4   7
HETATM    7  C   UNL     1      -9.157   7.630  68.877  1.00  0.00    -0.140 C  
BRANCH   7   8
HETATM    8  C   UNL     1      -9.616   6.122  68.976  1.00  0.00    -0.144 C  
HETATM    9  C   UNL     1     -10.985   6.051  69.683  1.00  0.00    -0.470 C  
HETATM   10  C   UNL     1      -8.609   5.222  69.726  1.00  0.00    -0.102 C  
HETATM   11  C   UNL     1      -9.796   5.484  67.578  1.00  0.00    -0.165 C  
ENDBRANCH   7   8
BRANCH   7  12
HETATM   12  C   UNL     1      -9.350   8.241  67.454  1.00  0.00    -0.141 C  
HETATM   13  N   UNL     1      -8.692   9.428  67.189  1.00  0.00    -0.127 N  
HETATM   14  O   UNL     1     -10.111   7.752  66.623  1.00  0.00    -0.253 OA 
HETATM   15  H   UNL     1      -8.216   9.915  67.948  1.00  0.00     0.000 HD 
BRANCH  13  16
HETATM   16  C   UNL     1      -8.665  10.011  65.818  1.00  0.00    -0.145 C  
BRANCH  16  17
HETATM   17  C   UNL     1      -7.315   9.638  65.131  1.00  0.00    -0.115 C  
HETATM   18  H   UNL     1      -6.633   9.750  63.322  1.00  0.00     0.000 HD 
HETATM   19  O   UNL     1      -7.455   9.977  63.740  1.00  0.00    -0.137 OA 
BRANCH  17  20
HETATM   20  C   UNL     1      -6.098  10.383  65.743  1.00  0.00    -0.122 C  
BRANCH  20  21
HETATM   21  N   UNL     1      -6.288  10.999  67.088  1.00  0.00    -0.068 NA 
BRANCH  21  22
HETATM   22  N   UNL     1      -6.441  12.427  67.036  1.00  0.00    -0.332 N  
HETATM   23  C   UNL     1      -7.342  13.098  67.850  1.00  0.00    -0.131 C  
HETATM   24  H   UNL     1      -5.871  12.963  66.381  1.00  0.00     0.000 HD 
HETATM   25  O   UNL     1      -8.162  12.520  68.557  1.00  0.00    -0.147 OA 
BRANCH  23  26
HETATM   26  C   UNL     1      -7.273  14.644  67.704  1.00  0.00    -0.186 C  
BRANCH  26  27
HETATM   27  N   UNL     1      -8.573  15.207  68.067  1.00  0.00    -0.153 N  
HETATM   28  O   UNL     1      -9.375  15.479  65.945  1.00  0.00    -0.338 OA 
HETATM   29  C   UNL     1      -9.514  15.565  67.156  1.00  0.00    -0.215 C  
HETATM   30  H   UNL     1      -8.783  15.339  69.056  1.00  0.00     0.000 HD 
BRANCH  29  31
HETATM   31  O   UNL     1     -10.617  16.009  67.803  1.00  0.00    -0.293 OA 
HETATM   32  C   UNL     1     -10.360  16.923  68.873  1.00  0.00    -0.333 C  
ENDBRANCH  29  31
ENDBRANCH  26  27
BRANCH  26  33
HETATM   33  C   UNL     1      -6.103  15.295  68.511  1.00  0.00    -0.094 C  
HETATM   34  C   UNL     1      -6.565  16.346  69.540  1.00  0.00    -0.210 C  
HETATM   35  C   UNL     1      -5.314  14.185  69.238  1.00  0.00    -0.081 C  
HETATM   36  C   UNL     1      -5.129  16.003  67.542  1.00  0.00    -0.101 C  
ENDBRANCH  26  33
ENDBRANCH  23  26
ENDBRANCH  21  22
BRANCH  21  37
HETATM   37  C   UNL     1      -5.254  10.635  68.082  1.00  0.00    -0.037 C  
BRANCH  37  38
HETATM   38  C   UNL     1      -5.645   9.659  69.180  1.00  0.00    -0.035 A  
HETATM   39  C   UNL     1      -5.308   8.300  69.166  1.00  0.00    -0.031 A  
HETATM   40  C   UNL     1      -5.668   7.445  70.197  1.00  0.00    -0.024 A  
HETATM   41  C   UNL     1      -6.352  10.137  70.290  1.00  0.00    -0.117 A  
HETATM   42  C   UNL     1      -6.349   7.917  71.318  1.00  0.00    -0.034 A  
HETATM   43  C   UNL     1      -6.691   9.279  71.345  1.00  0.00    -0.011 A  
BRANCH  42  44
HETATM   44  C   UNL     1      -6.652   6.986  72.411  1.00  0.00    -0.057 A  
HETATM   45  C   UNL     1      -5.986   5.776  72.575  1.00  0.00    -0.036 A  
HETATM   46  C   UNL     1      -6.376   4.929  73.607  1.00  0.00    -0.059 A  
HETATM   47  C   UNL     1      -7.424   5.303  74.439  1.00  0.00    -0.086 A  
HETATM   48  C   UNL     1      -8.045   6.515  74.203  1.00  0.00    -0.122 A  
HETATM   49  N   UNL     1      -7.685   7.354  73.217  1.00  0.00    -0.092 NA 
ENDBRANCH  42  44
ENDBRANCH  37  38
ENDBRANCH  21  37
ENDBRANCH  20  21
ENDBRANCH  17  20
ENDBRANCH  16  17
BRANCH  16  50
HETATM   50  C   UNL     1      -9.056  11.514  65.805  1.00  0.00    -0.164 C  
BRANCH  50  51
HETATM   51  C   UNL     1     -10.441  11.777  65.266  1.00  0.00    -0.320 A  
HETATM   52  C   UNL     1     -10.807  11.375  63.975  1.00  0.00    -0.450 A  
HETATM   53  C   UNL     1     -12.878  12.586  64.154  1.00  0.00    -0.333 A  
HETATM   54  C   UNL     1     -11.366  12.491  66.037  1.00  0.00    -0.386 A  
HETATM   55  C   UNL     1     -11.998  11.812  63.406  1.00  0.00    -0.443 A  
HETATM   56  C   UNL     1     -12.580  12.894  65.480  1.00  0.00    -0.359 A  
ENDBRANCH  50  51
ENDBRANCH  16  50
ENDBRANCH  13  16
ENDBRANCH   7  12
ENDBRANCH   4   7
ENDBRANCH   2   3
TORSDOF 18
ENDMDL
MODEL       38
REMARK 921   NORMALIZED FREE ENERGY PREDICTED BY IDOCK:   -2.36 KCAL/MOL
REMARK 922        TOTAL FREE ENERGY PREDICTED BY IDOCK:   -9.58 KCAL/MOL
REMARK 923 INTER-LIGAND FREE ENERGY PREDICTED BY IDOCK:   -9.54 KCAL/MOL
REMARK 924 INTRA-LIGAND FREE ENERGY PREDICTED BY IDOCK:   -0.04 KCAL/MOL
REMARK 927      BINDING AFFINITY PREDICTED BY RF-SCORE:    0.00 PKD
ROOT
HETATM    1  C   UNL     1      -7.991   5.546  74.059  1.00  0.00    -0.107 C  
HETATM    2  O   UNL     1      -8.784   6.509  73.358  1.00  0.00    -0.123 OA 
ENDROOT
BRANCH   2   3
HETATM    3  C   UNL     1      -8.244   6.986  72.208  1.00  0.00    -0.099 C  
HETATM    4  N   UNL     1      -7.002   6.454  72.051  1.00  0.00    -0.072 N  
HETATM    5  O   UNL     1      -8.762   7.805  71.461  1.00  0.00    -0.117 OA 
HETATM    6  H   UNL     1      -6.725   5.680  72.654  1.00  0.00     0.000 HD 
BRANCH   4   7
HETATM    7  C   UNL     1      -6.047   6.938  71.061  1.00  0.00    -0.036 C  
BRANCH   7   8
HETATM    8  C   UNL     1      -6.086   6.084  69.732  1.00  0.00    -0.026 C  
HETATM    9  C   UNL     1      -5.154   6.727  68.684  1.00  0.00    -0.015 C  
HETATM   10  C   UNL     1      -7.503   5.943  69.134  1.00  0.00    -0.085 C  
HETATM   11  C   UNL     1      -5.576   4.641  69.963  1.00  0.00    -0.012 C  
ENDBRANCH   7   8
BRANCH   7  12
HETATM   12  C   UNL     1      -6.355   8.450  70.831  1.00  0.00    -0.038 C  
HETATM   13  N   UNL     1      -6.760   8.819  69.562  1.00  0.00    -0.047 N  
HETATM   14  O   UNL     1      -6.172   9.301  71.698  1.00  0.00    -0.137 OA 
HETATM   15  H   UNL     1      -6.728   8.133  68.808  1.00  0.00     0.000 HD 
BRANCH  13  16
HETATM   16  C   UNL     1      -7.244  10.199  69.271  1.00  0.00    -0.085 C  
BRANCH  16  17
HETATM   17  C   UNL     1      -8.598  10.114  68.502  1.00  0.00    -0.118 C  
HETATM   18  H   UNL     1      -9.910   8.720  68.207  1.00  0.00     0.000 HD 
HETATM   19  O   UNL     1      -9.085   8.772  68.676  1.00  0.00    -0.141 OA 
BRANCH  17  20
HETATM   20  C   UNL     1      -9.649  11.135  69.014  1.00  0.00    -0.083 C  
BRANCH  20  21
HETATM   21  N   UNL     1     -11.055  10.948  68.551  1.00  0.00    -0.235 NA 
BRANCH  21  22
HETATM   22  N   UNL     1     -11.158  10.752  67.131  1.00  0.00    -0.274 N  
HETATM   23  C   UNL     1     -10.364  11.453  66.234  1.00  0.00    -0.243 C  
HETATM   24  H   UNL     1     -11.835  10.079  66.771  1.00  0.00     0.000 HD 
HETATM   25  O   UNL     1      -9.633  12.378  66.573  1.00  0.00    -0.229 OA 
BRANCH  23  26
HETATM   26  C   UNL     1     -10.566  11.014  64.758  1.00  0.00    -0.280 C  
BRANCH  26  27
HETATM   27  N   UNL     1     -10.965  12.182  63.972  1.00  0.00    -0.343 N  
HETATM   28  O   UNL     1     -13.221  11.978  64.273  1.00  0.00    -0.710 OA 
HETATM   29  C   UNL     1     -12.257  12.568  63.808  1.00  0.00    -0.525 C  
HETATM   30  H   UNL     1     -10.235  12.735  63.524  1.00  0.00     0.000 HD 
BRANCH  29  31
HETATM   31  O   UNL     1     -12.294  13.703  63.071  1.00  0.00    -0.672 OA 
HETATM   32  C   UNL     1     -12.307  14.914  63.832  1.00  0.00     0.111 C  
ENDBRANCH  29  31
ENDBRANCH  26  27
BRANCH  26  33
HETATM   33  C   UNL     1      -9.323  10.290  64.147  1.00  0.00    -0.336 C  
HETATM   34  C   UNL     1      -7.993  11.040  64.371  1.00  0.00     0.482 C  
HETATM   35  C   UNL     1      -9.216   8.875  64.753  1.00  0.00     0.103 C  
HETATM   36  C   UNL     1      -9.506  10.133  62.620  1.00  0.00    -0.277 C  
ENDBRANCH  26  33
ENDBRANCH  23  26
ENDBRANCH  21  22
BRANCH  21  37
HETATM   37  C   UNL     1     -11.992  12.006  68.987  1.00  0.00    -0.264 C  
BRANCH  37  38
HETATM   38  C   UNL     1     -11.585  13.451  68.740  1.00  0.00    -0.363 A  
HETATM   39  C   UNL     1     -10.683  14.152  69.550  1.00  0.00    -0.051 A  
HETATM   40  C   UNL     1     -10.323  15.464  69.279  1.00  0.00    -0.253 A  
HETATM   41  C   UNL     1     -12.107  14.120  67.627  1.00  0.00    -0.337 A  
HETATM   42  C   UNL     1     -10.818  16.130  68.159  1.00  0.00    -0.329 A  
HETATM   43  C   UNL     1     -11.722  15.436  67.337  1.00  0.00    -0.040 A  
BRANCH  42  44
HETATM   44  C   UNL     1     -10.358  17.495  67.882  1.00  0.00    -0.371 A  
HETATM   45  C   UNL     1      -9.717  18.280  68.833  1.00  0.00    -0.302 A  
HETATM   46  C   UNL     1      -9.365  19.585  68.501  1.00  0.00    -0.435 A  
HETATM   47  C   UNL     1      -9.670  20.074  67.237  1.00  0.00    -0.545 A  
HETATM   48  C   UNL     1     -10.322  19.237  66.352  1.00  0.00    -0.471 A  
HETATM   49  N   UNL     1     -10.668  17.971  66.645  1.00  0.00    -0.227 NA 
ENDBRANCH  42  44
ENDBRANCH  37  38
ENDBRANCH  21  37
ENDBRANCH  20  21
ENDBRANCH  17  20
ENDBRANCH  16  17
BRANCH  16  50
HETATM   50  C   UNL     1      -6.142  11.093  68.639  1.00  0.00    -0.043 C  
BRANCH  50  51
HETATM   51  C   UNL     1      -6.422  12.571  68.747  1.00  0.00    -0.084 A  
HETATM   52  C   UNL     1      -6.687  13.346  67.610  1.00  0.00    -0.174 A  
HETATM   53  C   UNL     1      -6.580  15.360  68.921  1.00  0.00    -0.110 A  
HETATM   54  C   UNL     1      -6.356  13.205  69.993  1.00  0.00    -0.006 A  
HETATM   55  C   UNL     1      -6.724  14.733  67.689  1.00  0.00    -0.198 A  
HETATM   56  C   UNL     1      -6.435  14.596  70.078  1.00  0.00    -0.168 A  
ENDBRANCH  50  51
ENDBRANCH  16  50
ENDBRANCH  13  16
ENDBRANCH   7  12
ENDBRANCH   4   7
ENDBRANCH   2   3
TORSDOF 18
ENDMDL
MODEL       39
REMARK 921   NORMALIZED FREE ENERGY PREDICTED BY IDOCK:   -2.36 KCAL/MOL
REMARK 922        TOTAL FREE ENERGY PREDICTED BY IDOCK:   -9.58 KCAL/MOL
REMARK 923 INTER-LIGAND FREE ENERGY PREDICTED BY IDOCK:   -9.36 KCAL/MOL
REMARK 924 INTRA-LIGAND FREE ENERGY PREDICTED BY IDOCK:   -0.22 KCAL/MOL
REMARK 927      BINDING AFFINITY PREDICTED BY RF-SCORE:    0.00 PKD
ROOT
HETATM    1  C   UNL     1      -7.482   5.932  73.378  1.00  0.00    -0.094 C  
HETATM    2  O   UNL     1      -8.710   5.282  73.038  1.00  0.00    -0.118 OA 
ENDROOT
BRANCH   2   3
HETATM    3  C   UNL     1      -8.801   4.835  71.760  1.00  0.00    -0.123 C  
HETATM    4  N   UNL     1      -7.581   4.383  71.364  1.00  0.00    -0.069 N  
HETATM    5  O   UNL     1      -9.800   4.883  71.056  1.00  0.00    -0.172 OA 
HETATM    6  H   UNL     1      -6.856   4.260  72.070  1.00  0.00     0.000 HD 
BRANCH   4   7
HETATM    7  C   UNL     1      -7.261   4.066  69.976  1.00  0.00    -0.042 C  
BRANCH   7   8
HETATM    8  C   UNL     1      -7.866   2.676  69.531  1.00  0.00    -0.049 C  
HETATM    9  C   UNL     1      -7.991   1.755  70.763  1.00  0.00    -0.044 C  
HETATM   10  C   UNL     1      -7.029   1.963  68.446  1.00  0.00    -0.039 C  
HETATM   11  C   UNL     1      -9.287   2.832  68.939  1.00  0.00    -0.220 C  
ENDBRANCH   7   8
BRANCH   7  12
HETATM   12  C   UNL     1      -7.761   5.262  69.108  1.00  0.00    -0.081 C  
HETATM   13  N   UNL     1      -7.655   6.524  69.664  1.00  0.00    -0.096 N  
HETATM   14  O   UNL     1      -8.300   5.106  68.016  1.00  0.00    -0.098 OA 
HETATM   15  H   UNL     1      -7.378   6.618  70.640  1.00  0.00     0.000 HD 
BRANCH  13  16
HETATM   16  C   UNL     1      -7.939   7.750  68.865  1.00  0.00    -0.124 C  
BRANCH  16  17
HETATM   17  C   UNL     1      -7.025   8.909  69.367  1.00  0.00    -0.053 C  
HETATM   18  H   UNL     1      -5.119   9.117  69.645  1.00  0.00     0.000 HD 
HETATM   19  O   UNL     1      -5.676   8.410  69.339  1.00  0.00    -0.030 OA 
BRANCH  17  20
HETATM   20  C   UNL     1      -7.140  10.191  68.499  1.00  0.00    -0.074 C  
BRANCH  20  21
HETATM   21  N   UNL     1      -6.944  11.498  69.191  1.00  0.00    -0.112 NA 
BRANCH  21  22
HETATM   22  N   UNL     1      -8.051  12.398  69.017  1.00  0.00    -0.331 N  
HETATM   23  C   UNL     1      -8.680  12.557  67.790  1.00  0.00    -0.178 C  
HETATM   24  H   UNL     1      -8.384  12.935  69.817  1.00  0.00     0.000 HD 
HETATM   25  O   UNL     1      -8.253  12.061  66.752  1.00  0.00    -0.171 OA 
BRANCH  23  26
HETATM   26  C   UNL     1      -9.915  13.499  67.847  1.00  0.00    -0.245 C  
BRANCH  26  27
HETATM   27  N   UNL     1      -9.849  14.428  66.720  1.00  0.00    -0.256 N  
HETATM   28  O   UNL     1      -8.962  16.202  67.854  1.00  0.00    -0.182 OA 
HETATM   29  C   UNL     1      -9.368  15.694  66.820  1.00  0.00    -0.246 C  
HETATM   30  H   UNL     1     -10.181  14.108  65.810  1.00  0.00     0.000 HD 
BRANCH  29  31
HETATM   31  O   UNL     1      -9.397  16.281  65.600  1.00  0.00    -0.457 OA 
HETATM   32  C   UNL     1     -10.557  17.079  65.345  1.00  0.00    -0.134 C  
ENDBRANCH  29  31
ENDBRANCH  26  27
BRANCH  26  33
HETATM   33  C   UNL     1     -11.278  12.737  67.904  1.00  0.00    -0.315 C  
HETATM   34  C   UNL     1     -11.132  11.202  67.959  1.00  0.00    -0.334 C  
HETATM   35  C   UNL     1     -12.072  13.216  69.138  1.00  0.00    -0.261 C  
HETATM   36  C   UNL     1     -12.117  13.070  66.650  1.00  0.00    -0.386 C  
ENDBRANCH  26  33
ENDBRANCH  23  26
ENDBRANCH  21  22
BRANCH  21  37
HETATM   37  C   UNL     1      -5.676  12.183  68.862  1.00  0.00    -0.052 C  
BRANCH  37  38
HETATM   38  C   UNL     1      -5.609  13.686  69.086  1.00  0.00    -0.075 A  
HETATM   39  C   UNL     1      -5.573  14.624  68.047  1.00  0.00    -0.134 A  
HETATM   40  C   UNL     1      -5.532  15.989  68.294  1.00  0.00    -0.110 A  
HETATM   41  C   UNL     1      -5.618  14.175  70.398  1.00  0.00    -0.132 A  
HETATM   42  C   UNL     1      -5.567  16.486  69.596  1.00  0.00    -0.165 A  
HETATM   43  C   UNL     1      -5.605  15.554  70.647  1.00  0.00    -0.094 A  
BRANCH  42  44
HETATM   44  C   UNL     1      -5.584  17.939  69.802  1.00  0.00    -0.225 A  
HETATM   45  C   UNL     1      -5.156  18.535  70.983  1.00  0.00    -0.274 A  
HETATM   46  C   UNL     1      -5.260  19.917  71.114  1.00  0.00    -0.297 A  
HETATM   47  C   UNL     1      -5.796  20.663  70.072  1.00  0.00    -0.278 A  
HETATM   48  C   UNL     1      -6.212  19.995  68.936  1.00  0.00    -0.301 A  
HETATM   49  N   UNL     1      -6.119  18.662  68.782  1.00  0.00    -0.211 NA 
ENDBRANCH  42  44
ENDBRANCH  37  38
ENDBRANCH  21  37
ENDBRANCH  20  21
ENDBRANCH  17  20
ENDBRANCH  16  17
BRANCH  16  50
HETATM   50  C   UNL     1      -9.458   8.057  68.769  1.00  0.00    -0.147 C  
BRANCH  50  51
HETATM   51  C   UNL     1     -10.141   8.171  70.109  1.00  0.00    -0.194 A  
HETATM   52  C   UNL     1      -9.453   8.633  71.239  1.00  0.00    -0.289 A  
HETATM   53  C   UNL     1     -11.308   8.034  72.650  1.00  0.00    -0.469 A  
HETATM   54  C   UNL     1     -11.469   7.749  70.255  1.00  0.00    -0.117 A  
HETATM   55  C   UNL     1     -10.016   8.526  72.506  1.00  0.00    -0.322 A  
HETATM   56  C   UNL     1     -12.049   7.683  71.522  1.00  0.00    -0.338 A  
ENDBRANCH  50  51
ENDBRANCH  16  50
ENDBRANCH  13  16
ENDBRANCH   7  12
ENDBRANCH   4   7
ENDBRANCH   2   3
TORSDOF 18
ENDMDL
MODEL       40
REMARK 921   NORMALIZED FREE ENERGY PREDICTED BY IDOCK:   -2.20 KCAL/MOL
REMARK 922        TOTAL FREE ENERGY PREDICTED BY IDOCK:   -9.26 KCAL/MOL
REMARK 923 INTER-LIGAND FREE ENERGY PREDICTED BY IDOCK:  -11.43 KCAL/MOL
REMARK 924 INTRA-LIGAND FREE ENERGY PREDICTED BY IDOCK:    2.18 KCAL/MOL
REMARK 927      BINDING AFFINITY PREDICTED BY RF-SCORE:    0.00 PKD
ROOT
HETATM    1  C   UNL     1      -6.385   9.883  65.926  1.00  0.00    -0.085 C  
HETATM    2  O   UNL     1      -6.185   8.507  66.262  1.00  0.00    -0.051 OA 
ENDROOT
BRANCH   2   3
HETATM    3  C   UNL     1      -7.273   7.859  66.750  1.00  0.00    -0.088 C  
HETATM    4  N   UNL     1      -7.950   7.292  65.715  1.00  0.00    -0.115 N  
HETATM    5  O   UNL     1      -7.625   7.836  67.921  1.00  0.00    -0.110 OA 
HETATM    6  H   UNL     1      -7.497   7.254  64.802  1.00  0.00     0.000 HD 
BRANCH   4   7
HETATM    7  C   UNL     1      -9.291   6.736  65.849  1.00  0.00     0.100 C  
BRANCH   7   8
HETATM    8  C   UNL     1      -9.266   5.243  66.367  1.00  0.00    -0.145 C  
HETATM    9  C   UNL     1      -7.912   4.600  66.002  1.00  0.00    -0.103 C  
HETATM   10  C   UNL     1     -10.410   4.377  65.797  1.00  0.00    -0.246 C  
HETATM   11  C   UNL     1      -9.401   5.168  67.907  1.00  0.00    -0.139 C  
ENDBRANCH   7   8
BRANCH   7  12
HETATM   12  C   UNL     1     -10.093   7.698  66.780  1.00  0.00    -0.255 C  
HETATM   13  N   UNL     1      -9.843   9.051  66.645  1.00  0.00    -0.225 N  
HETATM   14  O   UNL     1     -10.854   7.290  67.654  1.00  0.00    -0.228 OA 
HETATM   15  H   UNL     1      -9.076   9.360  66.046  1.00  0.00     0.000 HD 
BRANCH  13  16
HETATM   16  C   UNL     1     -10.668  10.068  67.355  1.00  0.00    -0.274 C  
BRANCH  16  17
HETATM   17  C   UNL     1     -10.766  11.352  66.475  1.00  0.00    -0.277 C  
HETATM   18  H   UNL     1     -12.076  12.052  65.231  1.00  0.00     0.000 HD 
HETATM   19  O   UNL     1     -12.016  11.270  65.768  1.00  0.00     0.133 OA 
BRANCH  17  20
HETATM   20  C   UNL     1     -10.706  12.662  67.305  1.00  0.00    -0.237 C  
BRANCH  20  21
HETATM   21  N   UNL     1      -9.525  12.843  68.199  1.00  0.00    -0.216 NA 
BRANCH  21  22
HETATM   22  N   UNL     1      -9.743  13.826  69.225  1.00  0.00    -0.286 N  
HETATM   23  C   UNL     1     -11.008  14.092  69.730  1.00  0.00    -0.021 C  
HETATM   24  H   UNL     1      -8.944  14.344  69.592  1.00  0.00     0.000 HD 
HETATM   25  O   UNL     1     -12.032  13.621  69.245  1.00  0.00    -0.312 OA 
BRANCH  23  26
HETATM   26  C   UNL     1     -11.003  15.114  70.900  1.00  0.00    -0.195 C  
BRANCH  26  27
HETATM   27  N   UNL     1     -10.630  16.427  70.375  1.00  0.00    -0.044 N  
HETATM   28  O   UNL     1     -11.482  16.153  68.273  1.00  0.00    -0.348 OA 
HETATM   29  C   UNL     1     -10.912  16.835  69.111  1.00  0.00    -0.223 C  
HETATM   30  H   UNL     1     -10.132  17.069  70.991  1.00  0.00     0.000 HD 
BRANCH  29  31
HETATM   31  O   UNL     1     -10.480  18.107  68.945  1.00  0.00    -0.282 OA 
HETATM   32  C   UNL     1     -10.825  18.701  67.690  1.00  0.00    -0.294 C  
ENDBRANCH  29  31
ENDBRANCH  26  27
BRANCH  26  33
HETATM   33  C   UNL     1     -12.348  15.157  71.696  1.00  0.00    -0.415 C  
HETATM   34  C   UNL     1     -12.733  13.810  72.342  1.00  0.00    -0.254 C  
HETATM   35  C   UNL     1     -12.248  16.237  72.794  1.00  0.00    -0.592 C  
HETATM   36  C   UNL     1     -13.503  15.556  70.750  1.00  0.00    -0.226 C  
ENDBRANCH  26  33
ENDBRANCH  23  26
ENDBRANCH  21  22
BRANCH  21  37
HETATM   37  C   UNL     1      -8.256  13.119  67.492  1.00  0.00    -0.183 C  
BRANCH  37  38
HETATM   38  C   UNL     1      -7.840  14.574  67.334  1.00  0.00    -0.221 A  
HETATM   39  C   UNL     1      -8.529  15.496  66.538  1.00  0.00    -0.283 A  
HETATM   40  C   UNL     1      -8.129  16.820  66.436  1.00  0.00    -0.355 A  
HETATM   41  C   UNL     1      -6.728  15.040  68.046  1.00  0.00    -0.156 A  
HETATM   42  C   UNL     1      -7.038  17.299  67.160  1.00  0.00    -0.204 A  
HETATM   43  C   UNL     1      -6.339  16.384  67.965  1.00  0.00    -0.137 A  
BRANCH  42  44
HETATM   44  C   UNL     1      -6.692  18.722  67.067  1.00  0.00    -0.197 A  
HETATM   45  C   UNL     1      -6.350  19.335  65.866  1.00  0.00    -0.237 A  
HETATM   46  C   UNL     1      -5.981  20.677  65.879  1.00  0.00    -0.253 A  
HETATM   47  C   UNL     1      -5.953  21.367  67.084  1.00  0.00    -0.419 A  
HETATM   48  C   UNL     1      -6.293  20.683  68.236  1.00  0.00    -0.317 A  
HETATM   49  N   UNL     1      -6.657  19.389  68.252  1.00  0.00    -0.244 NA 
ENDBRANCH  42  44
ENDBRANCH  37  38
ENDBRANCH  21  37
ENDBRANCH  20  21
ENDBRANCH  17  20
ENDBRANCH  16  17
BRANCH  16  50
HETATM   50  C   UNL     1     -10.221  10.271  68.828  1.00  0.00    -0.205 C  
BRANCH  50  51
HETATM   51  C   UNL     1     -11.277   9.903  69.841  1.00  0.00    -0.298 A  
HETATM   52  C   UNL     1     -12.498  10.587  69.899  1.00  0.00    -0.190 A  
HETATM   53  C   UNL     1     -13.069   9.454  71.943  1.00  0.00    -0.505 A  
HETATM   54  C   UNL     1     -11.019   8.904  70.787  1.00  0.00    -0.305 A  
HETATM   55  C   UNL     1     -13.370  10.395  70.965  1.00  0.00    -0.251 A  
HETATM   56  C   UNL     1     -11.914   8.681  71.834  1.00  0.00    -0.424 A  
ENDBRANCH  50  51
ENDBRANCH  16  50
ENDBRANCH  13  16
ENDBRANCH   7  12
ENDBRANCH   4   7
ENDBRANCH   2   3
TORSDOF 18
ENDMDL
MODEL       41
REMARK 921   NORMALIZED FREE ENERGY PREDICTED BY IDOCK:   -2.19 KCAL/MOL
REMARK 922        TOTAL FREE ENERGY PREDICTED BY IDOCK:   -9.22 KCAL/MOL
REMARK 923 INTER-LIGAND FREE ENERGY PREDICTED BY IDOCK:  -10.57 KCAL/MOL
REMARK 924 INTRA-LIGAND FREE ENERGY PREDICTED BY IDOCK:    1.35 KCAL/MOL
REMARK 927      BINDING AFFINITY PREDICTED BY RF-SCORE:    0.00 PKD
ROOT
HETATM    1  C   UNL     1     -10.163  18.196  69.128  1.00  0.00    -0.116 C  
HETATM    2  O   UNL     1     -10.448  16.968  68.450  1.00  0.00    -0.327 OA 
ENDROOT
BRANCH   2   3
HETATM    3  C   UNL     1     -10.297  15.842  69.191  1.00  0.00    -0.240 C  
HETATM    4  N   UNL     1     -11.481  15.550  69.796  1.00  0.00    -0.303 N  
HETATM    5  O   UNL     1      -9.255  15.220  69.342  1.00  0.00    -0.246 OA 
HETATM    6  H   UNL     1     -12.316  16.051  69.494  1.00  0.00     0.000 HD 
BRANCH   4   7
HETATM    7  C   UNL     1     -11.611  14.557  70.855  1.00  0.00    -0.189 C  
BRANCH   7   8
HETATM    8  C   UNL     1     -12.762  14.923  71.874  1.00  0.00    -0.395 C  
HETATM    9  C   UNL     1     -13.995  15.422  71.092  1.00  0.00    -0.410 C  
HETATM   10  C   UNL     1     -12.349  15.992  72.908  1.00  0.00    -0.609 C  
HETATM   11  C   UNL     1     -13.216  13.691  72.693  1.00  0.00    -0.533 C  
ENDBRANCH   7   8
BRANCH   7  12
HETATM   12  C   UNL     1     -11.817  13.174  70.162  1.00  0.00    -0.257 C  
HETATM   13  N   UNL     1     -10.974  12.149  70.550  1.00  0.00     0.757 N  
HETATM   14  O   UNL     1     -12.627  13.004  69.255  1.00  0.00     0.128 OA 
HETATM   15  H   UNL     1     -10.189  12.355  71.168  1.00  0.00     0.000 HD 
BRANCH  13  16
HETATM   16  C   UNL     1     -11.188  10.750  70.084  1.00  0.00    -0.267 C  
BRANCH  16  17
HETATM   17  C   UNL     1     -10.474  10.553  68.712  1.00  0.00    -0.196 C  
HETATM   18  H   UNL     1     -11.051  10.574  66.863  1.00  0.00     0.000 HD 
HETATM   19  O   UNL     1     -11.486  10.693  67.699  1.00  0.00    -0.474 OA 
BRANCH  17  20
HETATM   20  C   UNL     1      -9.331  11.577  68.472  1.00  0.00    -0.170 C  
BRANCH  20  21
HETATM   21  N   UNL     1      -8.484  11.373  67.261  1.00  0.00    -0.143 NA 
BRANCH  21  22
HETATM   22  N   UNL     1      -9.178  11.659  66.035  1.00  0.00    -0.232 N  
HETATM   23  C   UNL     1      -9.588  12.944  65.707  1.00  0.00    -0.074 C  
HETATM   24  H   UNL     1      -9.375  10.896  65.387  1.00  0.00     0.000 HD 
HETATM   25  O   UNL     1      -9.519  13.886  66.489  1.00  0.00    -0.276 OA 
BRANCH  23  26
HETATM   26  C   UNL     1     -10.226  13.046  64.294  1.00  0.00    -0.292 C  
BRANCH  26  27
HETATM   27  N   UNL     1      -9.721  11.947  63.471  1.00  0.00    -0.560 N  
HETATM   28  O   UNL     1     -10.458  10.232  64.789  1.00  0.00    -0.200 OA 
HETATM   29  C   UNL     1      -9.891  10.637  63.785  1.00  0.00    -0.335 C  
HETATM   30  H   UNL     1      -9.214  12.177  62.616  1.00  0.00     0.000 HD 
BRANCH  29  31
HETATM   31  O   UNL     1      -9.351   9.869  62.809  1.00  0.00    -0.285 OA 
HETATM   32  C   UNL     1      -8.112   9.243  63.152  1.00  0.00    -0.158 C  
ENDBRANCH  29  31
ENDBRANCH  26  27
BRANCH  26  33
HETATM   33  C   UNL     1     -11.788  13.094  64.317  1.00  0.00    -0.462 C  
HETATM   34  C   UNL     1     -12.454  12.237  63.222  1.00  0.00    -0.490 C  
HETATM   35  C   UNL     1     -12.286  12.626  65.701  1.00  0.00    -0.474 C  
HETATM   36  C   UNL     1     -12.270  14.548  64.114  1.00  0.00    -0.372 C  
ENDBRANCH  26  33
ENDBRANCH  23  26
ENDBRANCH  21  22
BRANCH  21  37
HETATM   37  C   UNL     1      -7.837  10.046  67.180  1.00  0.00    -0.099 C  
BRANCH  37  38
HETATM   38  C   UNL     1      -7.899   9.156  68.412  1.00  0.00    -0.102 A  
HETATM   39  C   UNL     1      -8.597   7.943  68.457  1.00  0.00    -0.128 A  
HETATM   40  C   UNL     1      -8.614   7.149  69.595  1.00  0.00    -0.137 A  
HETATM   41  C   UNL     1      -7.198   9.540  69.560  1.00  0.00    -0.074 A  
HETATM   42  C   UNL     1      -7.897   7.511  70.735  1.00  0.00    -0.098 A  
HETATM   43  C   UNL     1      -7.191   8.726  70.701  1.00  0.00    -0.066 A  
BRANCH  42  44
HETATM   44  C   UNL     1      -7.896   6.608  71.891  1.00  0.00    -0.098 A  
HETATM   45  C   UNL     1      -7.511   5.275  71.804  1.00  0.00    -0.091 A  
HETATM   46  C   UNL     1      -7.594   4.476  72.939  1.00  0.00    -0.086 A  
HETATM   47  C   UNL     1      -8.066   5.022  74.126  1.00  0.00    -0.100 A  
HETATM   48  C   UNL     1      -8.443   6.351  74.129  1.00  0.00    -0.122 A  
HETATM   49  N   UNL     1      -8.368   7.147  73.048  1.00  0.00    -0.105 NA 
ENDBRANCH  42  44
ENDBRANCH  37  38
ENDBRANCH  21  37
ENDBRANCH  20  21
ENDBRANCH  17  20
ENDBRANCH  16  17
BRANCH  16  50
HETATM   50  C   UNL     1     -12.679  10.322  70.156  1.00  0.00    -0.089 C  
BRANCH  50  51
HETATM   51  C   UNL     1     -12.890   8.947  70.740  1.00  0.00     0.199 A  
HETATM   52  C   UNL     1     -14.150   8.537  71.198  1.00  0.00    -0.151 A  
HETATM   53  C   UNL     1     -13.189   6.545  72.145  1.00  0.00     0.110 A  
HETATM   54  C   UNL     1     -11.803   8.079  70.893  1.00  0.00    -0.236 A  
HETATM   55  C   UNL     1     -14.291   7.365  71.932  1.00  0.00    -0.520 A  
HETATM   56  C   UNL     1     -11.954   6.882  71.594  1.00  0.00    -0.379 A  
ENDBRANCH  50  51
ENDBRANCH  16  50
ENDBRANCH  13  16
ENDBRANCH   7  12
ENDBRANCH   4   7
ENDBRANCH   2   3
TORSDOF 18
ENDMDL
MODEL       42
REMARK 921   NORMALIZED FREE ENERGY PREDICTED BY IDOCK:   -2.11 KCAL/MOL
REMARK 922        TOTAL FREE ENERGY PREDICTED BY IDOCK:   -9.07 KCAL/MOL
REMARK 923 INTER-LIGAND FREE ENERGY PREDICTED BY IDOCK:   -8.78 KCAL/MOL
REMARK 924 INTRA-LIGAND FREE ENERGY PREDICTED BY IDOCK:   -0.29 KCAL/MOL
REMARK 927      BINDING AFFINITY PREDICTED BY RF-SCORE:    0.00 PKD
ROOT
HETATM    1  C   UNL     1      -7.763   3.143  67.566  1.00  0.00    -0.076 C  
HETATM    2  O   UNL     1      -9.167   3.411  67.635  1.00  0.00    -0.157 OA 
ENDROOT
BRANCH   2   3
HETATM    3  C   UNL     1      -9.504   4.674  68.001  1.00  0.00    -0.146 C  
HETATM    4  N   UNL     1      -8.402   5.467  67.915  1.00  0.00    -0.099 N  
HETATM    5  O   UNL     1     -10.603   5.032  68.402  1.00  0.00    -0.019 OA 
HETATM    6  H   UNL     1      -7.577   5.101  67.440  1.00  0.00     0.000 HD 
BRANCH   4   7
HETATM    7  C   UNL     1      -8.345   6.815  68.468  1.00  0.00    -0.120 C  
BRANCH   7   8
HETATM    8  C   UNL     1      -6.916   7.157  69.049  1.00  0.00    -0.075 C  
HETATM    9  C   UNL     1      -6.828   8.672  69.326  1.00  0.00    -0.050 C  
HETATM   10  C   UNL     1      -5.759   6.742  68.115  1.00  0.00    -0.017 C  
HETATM   11  C   UNL     1      -6.657   6.436  70.394  1.00  0.00    -0.048 C  
ENDBRANCH   7   8
BRANCH   7  12
HETATM   12  C   UNL     1      -8.802   7.791  67.340  1.00  0.00    -0.127 C  
HETATM   13  N   UNL     1      -8.123   8.991  67.240  1.00  0.00    -0.103 N  
HETATM   14  O   UNL     1      -9.770   7.561  66.619  1.00  0.00    -0.200 OA 
HETATM   15  H   UNL     1      -7.448   9.245  67.961  1.00  0.00     0.000 HD 
BRANCH  13  16
HETATM   16  C   UNL     1      -8.357   9.923  66.101  1.00  0.00    -0.122 C  
BRANCH  16  17
HETATM   17  C   UNL     1      -9.153  11.163  66.610  1.00  0.00    -0.170 C  
HETATM   18  H   UNL     1     -10.016  12.671  65.753  1.00  0.00     0.000 HD 
HETATM   19  O   UNL     1      -9.531  11.915  65.443  1.00  0.00    -0.207 OA 
BRANCH  17  20
HETATM   20  C   UNL     1     -10.414  10.778  67.430  1.00  0.00    -0.225 C  
BRANCH  20  21
HETATM   21  N   UNL     1     -11.236  11.899  67.973  1.00  0.00    -0.237 NA 
BRANCH  21  22
HETATM   22  N   UNL     1     -10.448  13.035  68.365  1.00  0.00    -0.248 N  
HETATM   23  C   UNL     1     -10.575  14.267  67.738  1.00  0.00    -0.253 C  
HETATM   24  H   UNL     1      -9.776  12.934  69.126  1.00  0.00     0.000 HD 
HETATM   25  O   UNL     1     -11.250  14.435  66.728  1.00  0.00    -0.318 OA 
BRANCH  23  26
HETATM   26  C   UNL     1      -9.705  15.380  68.385  1.00  0.00    -0.211 C  
BRANCH  26  27
HETATM   27  N   UNL     1      -8.708  15.822  67.410  1.00  0.00    -0.178 N  
HETATM   28  O   UNL     1      -6.924  14.695  68.286  1.00  0.00    -0.096 OA 
HETATM   29  C   UNL     1      -7.408  15.432  67.440  1.00  0.00    -0.213 C  
HETATM   30  H   UNL     1      -9.006  16.457  66.669  1.00  0.00     0.000 HD 
BRANCH  29  31
HETATM   31  O   UNL     1      -6.754  15.972  66.385  1.00  0.00    -0.012 OA 
HETATM   32  C   UNL     1      -6.902  17.388  66.247  1.00  0.00    -0.272 C  
ENDBRANCH  29  31
ENDBRANCH  26  27
BRANCH  26  33
HETATM   33  C   UNL     1     -10.541  16.573  68.954  1.00  0.00    -0.326 C  
HETATM   34  C   UNL     1     -11.777  16.929  68.103  1.00  0.00     0.609 C  
HETATM   35  C   UNL     1     -10.994  16.230  70.389  1.00  0.00    -0.282 C  
HETATM   36  C   UNL     1      -9.660  17.840  69.031  1.00  0.00    -0.137 C  
ENDBRANCH  26  33
ENDBRANCH  23  26
ENDBRANCH  21  22
BRANCH  21  37
HETATM   37  C   UNL     1     -12.152  11.514  69.069  1.00  0.00    -0.238 C  
BRANCH  37  38
HETATM   38  C   UNL     1     -11.656  10.484  70.072  1.00  0.00    -0.392 A  
HETATM   39  C   UNL     1     -12.490   9.823  70.982  1.00  0.00    -0.414 A  
HETATM   40  C   UNL     1     -12.001   8.875  71.869  1.00  0.00    -0.441 A  
HETATM   41  C   UNL     1     -10.299  10.141  70.074  1.00  0.00    -0.301 A  
HETATM   42  C   UNL     1     -10.656   8.508  71.861  1.00  0.00    -0.392 A  
HETATM   43  C   UNL     1      -9.809   9.163  70.950  1.00  0.00    -0.359 A  
BRANCH  42  44
HETATM   44  C   UNL     1     -10.200   7.456  72.775  1.00  0.00    -0.238 A  
HETATM   45  C   UNL     1      -9.015   7.548  73.498  1.00  0.00    -0.271 A  
HETATM   46  C   UNL     1      -8.632   6.478  74.299  1.00  0.00    -0.153 A  
HETATM   47  C   UNL     1      -9.431   5.343  74.352  1.00  0.00    -0.145 A  
HETATM   48  C   UNL     1     -10.586   5.322  73.594  1.00  0.00    -0.279 A  
HETATM   49  N   UNL     1     -10.983   6.344  72.815  1.00  0.00    -0.249 NA 
ENDBRANCH  42  44
ENDBRANCH  37  38
ENDBRANCH  21  37
ENDBRANCH  20  21
ENDBRANCH  17  20
ENDBRANCH  16  17
BRANCH  16  50
HETATM   50  C   UNL     1      -8.927   9.199  64.850  1.00  0.00    -0.201 C  
BRANCH  50  51
HETATM   51  C   UNL     1      -7.867   8.690  63.906  1.00  0.00    -0.147 A  
HETATM   52  C   UNL     1      -7.705   7.319  63.667  1.00  0.00    -0.120 A  
HETATM   53  C   UNL     1      -5.677   7.743  62.443  1.00  0.00    -0.067 A  
HETATM   54  C   UNL     1      -6.981   9.589  63.301  1.00  0.00    -0.104 A  
HETATM   55  C   UNL     1      -6.595   6.845  62.976  1.00  0.00    -0.043 A  
HETATM   56  C   UNL     1      -5.890   9.114  62.571  1.00  0.00    -0.090 A  
ENDBRANCH  50  51
ENDBRANCH  16  50
ENDBRANCH  13  16
ENDBRANCH   7  12
ENDBRANCH   4   7
ENDBRANCH   2   3
TORSDOF 18
ENDMDL
MODEL       43
REMARK 921   NORMALIZED FREE ENERGY PREDICTED BY IDOCK:   -2.02 KCAL/MOL
REMARK 922        TOTAL FREE ENERGY PREDICTED BY IDOCK:   -8.89 KCAL/MOL
REMARK 923 INTER-LIGAND FREE ENERGY PREDICTED BY IDOCK:   -8.18 KCAL/MOL
REMARK 924 INTRA-LIGAND FREE ENERGY PREDICTED BY IDOCK:   -0.71 KCAL/MOL
REMARK 927      BINDING AFFINITY PREDICTED BY RF-SCORE:    0.00 PKD
ROOT
HETATM    1  C   UNL     1     -11.285   5.852  69.653  1.00  0.00    -0.248 C  
HETATM    2  O   UNL     1     -10.265   5.124  70.343  1.00  0.00    -0.240 OA 
ENDROOT
BRANCH   2   3
HETATM    3  C   UNL     1      -9.284   5.878  70.902  1.00  0.00    -0.153 C  
HETATM    4  N   UNL     1      -9.788   6.520  71.990  1.00  0.00    -0.160 N  
HETATM    5  O   UNL     1      -8.148   6.008  70.468  1.00  0.00    -0.108 OA 
HETATM    6  H   UNL     1     -10.702   6.235  72.342  1.00  0.00     0.000 HD 
BRANCH   4   7
HETATM    7  C   UNL     1      -9.085   7.598  72.676  1.00  0.00    -0.157 C  
BRANCH   7   8
HETATM    8  C   UNL     1      -7.738   7.101  73.336  1.00  0.00    -0.099 C  
HETATM    9  C   UNL     1      -7.917   5.652  73.832  1.00  0.00    -0.107 C  
HETATM   10  C   UNL     1      -7.267   7.987  74.510  1.00  0.00    -0.209 C  
HETATM   11  C   UNL     1      -6.572   7.089  72.318  1.00  0.00    -0.057 C  
ENDBRANCH   7   8
BRANCH   7  12
HETATM   12  C   UNL     1      -8.877   8.742  71.636  1.00  0.00    -0.208 C  
HETATM   13  N   UNL     1      -7.679   8.749  70.945  1.00  0.00    -0.096 N  
HETATM   14  O   UNL     1      -9.689   9.651  71.482  1.00  0.00    -0.091 OA 
HETATM   15  H   UNL     1      -6.943   8.098  71.217  1.00  0.00     0.000 HD 
BRANCH  13  16
HETATM   16  C   UNL     1      -7.442   9.687  69.812  1.00  0.00    -0.110 C  
BRANCH  16  17
HETATM   17  C   UNL     1      -7.814   8.976  68.474  1.00  0.00    -0.102 C  
HETATM   18  H   UNL     1      -7.272   7.328  67.613  1.00  0.00     0.000 HD 
HETATM   19  O   UNL     1      -7.046   7.761  68.428  1.00  0.00    -0.073 OA 
BRANCH  17  20
HETATM   20  C   UNL     1      -9.329   8.656  68.359  1.00  0.00    -0.138 C  
BRANCH  20  21
HETATM   21  N   UNL     1      -9.794   8.029  67.088  1.00  0.00    -0.188 NA 
BRANCH  21  22
HETATM   22  N   UNL     1      -8.987   6.909  66.687  1.00  0.00    -0.139 N  
HETATM   23  C   UNL     1      -9.551   5.714  66.260  1.00  0.00    -0.147 C  
HETATM   24  H   UNL     1      -7.971   6.994  66.716  1.00  0.00     0.000 HD 
HETATM   25  O   UNL     1     -10.753   5.481  66.332  1.00  0.00    -0.281 OA 
BRANCH  23  26
HETATM   26  C   UNL     1      -8.502   4.675  65.777  1.00  0.00    -0.117 C  
BRANCH  26  27
HETATM   27  N   UNL     1      -8.570   3.501  66.646  1.00  0.00    -0.108 N  
HETATM   28  O   UNL     1      -6.764   3.999  67.953  1.00  0.00    -0.045 OA 
HETATM   29  C   UNL     1      -7.702   3.271  67.665  1.00  0.00    -0.072 C  
HETATM   30  H   UNL     1      -9.309   2.818  66.478  1.00  0.00     0.000 HD 
BRANCH  29  31
HETATM   31  O   UNL     1      -8.055   2.132  68.305  1.00  0.00    -0.057 OA 
HETATM   32  C   UNL     1      -9.464   1.936  68.452  1.00  0.00    -0.176 C  
ENDBRANCH  29  31
ENDBRANCH  26  27
BRANCH  26  33
HETATM   33  C   UNL     1      -8.646   4.299  64.266  1.00  0.00    -0.121 C  
HETATM   34  C   UNL     1      -8.772   5.519  63.330  1.00  0.00     0.128 C  
HETATM   35  C   UNL     1      -7.427   3.455  63.839  1.00  0.00    -0.066 C  
HETATM   36  C   UNL     1      -9.910   3.435  64.060  1.00  0.00    -0.170 C  
ENDBRANCH  26  33
ENDBRANCH  23  26
ENDBRANCH  21  22
BRANCH  21  37
HETATM   37  C   UNL     1      -9.951   8.971  65.959  1.00  0.00    -0.176 C  
BRANCH  37  38
HETATM   38  C   UNL     1     -10.016  10.455  66.285  1.00  0.00    -0.283 A  
HETATM   39  C   UNL     1      -8.963  11.347  66.052  1.00  0.00    -0.203 A  
HETATM   40  C   UNL     1      -9.069  12.699  66.345  1.00  0.00    -0.114 A  
HETATM   41  C   UNL     1     -11.201  10.980  66.816  1.00  0.00    -0.163 A  
HETATM   42  C   UNL     1     -10.253  13.235  66.851  1.00  0.00    -0.250 A  
HETATM   43  C   UNL     1     -11.318  12.350  67.087  1.00  0.00    -0.390 A  
BRANCH  42  44
HETATM   44  C   UNL     1     -10.336  14.681  67.086  1.00  0.00    -0.265 A  
HETATM   45  C   UNL     1     -10.937  15.225  68.215  1.00  0.00    -0.276 A  
HETATM   46  C   UNL     1     -11.021  16.609  68.330  1.00  0.00    -0.345 A  
HETATM   47  C   UNL     1     -10.514  17.411  67.316  1.00  0.00    -0.321 A  
HETATM   48  C   UNL     1      -9.943  16.795  66.219  1.00  0.00    -0.320 A  
HETATM   49  N   UNL     1      -9.845  15.460  66.085  1.00  0.00    -0.288 NA 
ENDBRANCH  42  44
ENDBRANCH  37  38
ENDBRANCH  21  37
ENDBRANCH  20  21
ENDBRANCH  17  20
ENDBRANCH  16  17
BRANCH  16  50
HETATM   50  C   UNL     1      -6.040  10.352  69.876  1.00  0.00    -0.068 C  
BRANCH  50  51
HETATM   51  C   UNL     1      -6.083  11.859  69.922  1.00  0.00    -0.153 A  
HETATM   52  C   UNL     1      -5.565  12.568  71.014  1.00  0.00    -0.079 A  
HETATM   53  C   UNL     1      -6.493  14.617  70.161  1.00  0.00    -0.166 A  
HETATM   54  C   UNL     1      -6.707  12.571  68.891  1.00  0.00    -0.098 A  
HETATM   55  C   UNL     1      -5.805  13.930  71.154  1.00  0.00    -0.194 A  
HETATM   56  C   UNL     1      -6.910  13.947  69.012  1.00  0.00    -0.111 A  
ENDBRANCH  50  51
ENDBRANCH  16  50
ENDBRANCH  13  16
ENDBRANCH   7  12
ENDBRANCH   4   7
ENDBRANCH   2   3
TORSDOF 18
ENDMDL
MODEL       44
REMARK 921   NORMALIZED FREE ENERGY PREDICTED BY IDOCK:   -1.97 KCAL/MOL
REMARK 922        TOTAL FREE ENERGY PREDICTED BY IDOCK:   -8.78 KCAL/MOL
REMARK 923 INTER-LIGAND FREE ENERGY PREDICTED BY IDOCK:   -8.95 KCAL/MOL
REMARK 924 INTRA-LIGAND FREE ENERGY PREDICTED BY IDOCK:    0.17 KCAL/MOL
REMARK 927      BINDING AFFINITY PREDICTED BY RF-SCORE:    0.00 PKD
ROOT
HETATM    1  C   UNL     1     -11.076   6.114  67.519  1.00  0.00    -0.215 C  
HETATM    2  O   UNL     1     -11.213   5.966  68.936  1.00  0.00    -0.291 OA 
ENDROOT
BRANCH   2   3
HETATM    3  C   UNL     1     -10.238   6.546  69.681  1.00  0.00    -0.187 C  
HETATM    4  N   UNL     1     -10.778   6.977  70.853  1.00  0.00    -0.231 N  
HETATM    5  O   UNL     1      -9.076   6.709  69.336  1.00  0.00    -0.142 OA 
HETATM    6  H   UNL     1     -11.719   6.668  71.097  1.00  0.00     0.000 HD 
BRANCH   4   7
HETATM    7  C   UNL     1     -10.076   7.860  71.777  1.00  0.00    -0.185 C  
BRANCH   7   8
HETATM    8  C   UNL     1      -8.989   7.089  72.625  1.00  0.00    -0.141 C  
HETATM    9  C   UNL     1      -8.702   7.874  73.922  1.00  0.00    -0.332 C  
HETATM   10  C   UNL     1      -7.664   6.862  71.864  1.00  0.00    -0.094 C  
HETATM   11  C   UNL     1      -9.483   5.684  73.048  1.00  0.00    -0.155 C  
ENDBRANCH   7   8
BRANCH   7  12
HETATM   12  C   UNL     1      -9.482   9.028  70.929  1.00  0.00    -0.267 C  
HETATM   13  N   UNL     1      -8.117   9.009  70.709  1.00  0.00    -0.151 N  
HETATM   14  O   UNL     1     -10.163   9.972  70.537  1.00  0.00    -0.251 OA 
HETATM   15  H   UNL     1      -7.542   8.322  71.196  1.00  0.00     0.000 HD 
BRANCH  13  16
HETATM   16  C   UNL     1      -7.468   9.973  69.776  1.00  0.00    -0.151 C  
BRANCH  16  17
HETATM   17  C   UNL     1      -7.537   9.404  68.326  1.00  0.00    -0.082 C  
HETATM   18  H   UNL     1      -8.914   9.308  66.966  1.00  0.00     0.000 HD 
HETATM   19  O   UNL     1      -8.871   9.655  67.850  1.00  0.00    -0.120 OA 
BRANCH  17  20
HETATM   20  C   UNL     1      -6.498  10.052  67.371  1.00  0.00    -0.068 C  
BRANCH  20  21
HETATM   21  N   UNL     1      -7.024  10.676  66.122  1.00  0.00    -0.130 NA 
BRANCH  21  22
HETATM   22  N   UNL     1      -8.442  10.904  66.162  1.00  0.00    -0.168 N  
HETATM   23  C   UNL     1      -8.977  12.178  66.298  1.00  0.00    -0.094 C  
HETATM   24  H   UNL     1      -9.075  10.107  66.088  1.00  0.00     0.000 HD 
HETATM   25  O   UNL     1      -8.292  13.167  66.536  1.00  0.00     0.108 OA 
BRANCH  23  26
HETATM   26  C   UNL     1     -10.528  12.208  66.214  1.00  0.00    -0.239 C  
BRANCH  26  27
HETATM   27  N   UNL     1     -11.045  12.949  67.364  1.00  0.00    -0.263 N  
HETATM   28  O   UNL     1     -12.164  11.217  68.349  1.00  0.00    -0.610 OA 
HETATM   29  C   UNL     1     -11.808  12.386  68.336  1.00  0.00    -0.309 C  
HETATM   30  H   UNL     1     -10.821  13.941  67.440  1.00  0.00     0.000 HD 
BRANCH  29  31
HETATM   31  O   UNL     1     -12.089  13.315  69.279  1.00  0.00    -0.301 OA 
HETATM   32  C   UNL     1     -12.361  12.788  70.581  1.00  0.00    -0.297 C  
ENDBRANCH  29  31
ENDBRANCH  26  27
BRANCH  26  33
HETATM   33  C   UNL     1     -11.069  12.770  64.859  1.00  0.00    -0.324 C  
HETATM   34  C   UNL     1     -10.872  14.290  64.693  1.00  0.00    -0.384 C  
HETATM   35  C   UNL     1     -10.369  12.037  63.695  1.00  0.00    -0.482 C  
HETATM   36  C   UNL     1     -12.585  12.491  64.745  1.00  0.00    -0.493 C  
ENDBRANCH  26  33
ENDBRANCH  23  26
ENDBRANCH  21  22
BRANCH  21  37
HETATM   37  C   UNL     1      -6.658   9.965  64.878  1.00  0.00    -0.119 C  
BRANCH  37  38
HETATM   38  C   UNL     1      -6.916   8.467  64.823  1.00  0.00    -0.072 A  
HETATM   39  C   UNL     1      -8.179   7.890  65.005  1.00  0.00    -0.134 A  
HETATM   40  C   UNL     1      -8.376   6.519  64.927  1.00  0.00    -0.049 A  
HETATM   41  C   UNL     1      -5.848   7.607  64.540  1.00  0.00    -0.037 A  
HETATM   42  C   UNL     1      -7.324   5.657  64.621  1.00  0.00    -0.068 A  
HETATM   43  C   UNL     1      -6.052   6.225  64.433  1.00  0.00    -0.029 A  
BRANCH  42  44
HETATM   44  C   UNL     1      -7.596   4.221  64.488  1.00  0.00    -0.073 A  
HETATM   45  C   UNL     1      -6.588   3.278  64.320  1.00  0.00    -0.035 A  
HETATM   46  C   UNL     1      -6.940   1.943  64.147  1.00  0.00    -0.032 A  
HETATM   47  C   UNL     1      -8.283   1.586  64.135  1.00  0.00    -0.069 A  
HETATM   48  C   UNL     1      -9.225   2.584  64.295  1.00  0.00    -0.126 A  
HETATM   49  N   UNL     1      -8.912   3.880  64.469  1.00  0.00    -0.126 NA 
ENDBRANCH  42  44
ENDBRANCH  37  38
ENDBRANCH  21  37
ENDBRANCH  20  21
ENDBRANCH  17  20
ENDBRANCH  16  17
BRANCH  16  50
HETATM   50  C   UNL     1      -6.070  10.431  70.274  1.00  0.00    -0.107 C  
BRANCH  50  51
HETATM   51  C   UNL     1      -5.910  11.929  70.342  1.00  0.00    -0.155 A  
HETATM   52  C   UNL     1      -5.195  12.537  71.383  1.00  0.00    -0.100 A  
HETATM   53  C   UNL     1      -5.927  14.710  70.654  1.00  0.00    -0.164 A  
HETATM   54  C   UNL     1      -6.536  12.743  69.390  1.00  0.00    -0.096 A  
HETATM   55  C   UNL     1      -5.237  13.916  71.562  1.00  0.00    -0.185 A  
HETATM   56  C   UNL     1      -6.543  14.129  69.547  1.00  0.00    -0.124 A  
ENDBRANCH  50  51
ENDBRANCH  16  50
ENDBRANCH  13  16
ENDBRANCH   7  12
ENDBRANCH   4   7
ENDBRANCH   2   3
TORSDOF 18
ENDMDL
MODEL       45
REMARK 921   NORMALIZED FREE ENERGY PREDICTED BY IDOCK:   -1.80 KCAL/MOL
REMARK 922        TOTAL FREE ENERGY PREDICTED BY IDOCK:   -8.43 KCAL/MOL
REMARK 923 INTER-LIGAND FREE ENERGY PREDICTED BY IDOCK:   -7.88 KCAL/MOL
REMARK 924 INTRA-LIGAND FREE ENERGY PREDICTED BY IDOCK:   -0.55 KCAL/MOL
REMARK 927      BINDING AFFINITY PREDICTED BY RF-SCORE:    0.00 PKD
ROOT
HETATM    1  C   UNL     1     -10.990  18.643  68.017  1.00  0.00     0.053 C  
HETATM    2  O   UNL     1     -10.327  17.712  68.878  1.00  0.00    -0.363 OA 
ENDROOT
BRANCH   2   3
HETATM    3  C   UNL     1     -10.644  16.407  68.682  1.00  0.00    -0.305 C  
HETATM    4  N   UNL     1     -10.411  15.720  69.833  1.00  0.00    -0.310 N  
HETATM    5  O   UNL     1     -11.020  15.913  67.628  1.00  0.00    -0.322 OA 
HETATM    6  H   UNL     1     -10.232  16.249  70.686  1.00  0.00     0.000 HD 
BRANCH   4   7
HETATM    7  C   UNL     1     -10.404  14.263  69.904  1.00  0.00     0.432 C  
BRANCH   7   8
HETATM    8  C   UNL     1     -11.845  13.653  69.686  1.00  0.00    -0.396 C  
HETATM    9  C   UNL     1     -12.903  14.632  70.236  1.00  0.00    -0.254 C  
HETATM   10  C   UNL     1     -12.034  12.273  70.353  1.00  0.00    -0.349 C  
HETATM   11  C   UNL     1     -12.159  13.446  68.184  1.00  0.00    -0.267 C  
ENDBRANCH   7   8
BRANCH   7  12
HETATM   12  C   UNL     1      -9.357  13.760  68.864  1.00  0.00     0.111 C  
HETATM   13  N   UNL     1      -9.484  12.452  68.431  1.00  0.00    -0.309 N  
HETATM   14  O   UNL     1      -8.408  14.447  68.495  1.00  0.00    -0.149 OA 
HETATM   15  H   UNL     1     -10.163  11.840  68.885  1.00  0.00     0.000 HD 
BRANCH  13  16
HETATM   16  C   UNL     1      -8.651  11.918  67.318  1.00  0.00    -0.170 C  
BRANCH  16  17
HETATM   17  C   UNL     1      -9.587  11.370  66.197  1.00  0.00    -0.218 C  
HETATM   18  H   UNL     1      -9.300  10.523  64.478  1.00  0.00     0.000 HD 
HETATM   19  O   UNL     1      -8.730  10.857  65.161  1.00  0.00    -0.187 OA 
BRANCH  17  20
HETATM   20  C   UNL     1     -10.544  10.255  66.699  1.00  0.00    -0.162 C  
BRANCH  20  21
HETATM   21  N   UNL     1      -9.997   8.869  66.759  1.00  0.00    -0.242 NA 
BRANCH  21  22
HETATM   22  N   UNL     1      -9.392   8.450  65.525  1.00  0.00    -0.427 N  
HETATM   23  C   UNL     1      -8.144   7.842  65.489  1.00  0.00    -0.130 C  
HETATM   24  H   UNL     1      -9.892   8.603  64.650  1.00  0.00     0.000 HD 
HETATM   25  O   UNL     1      -7.418   7.752  66.474  1.00  0.00    -0.085 OA 
BRANCH  23  26
HETATM   26  C   UNL     1      -7.725   7.378  64.067  1.00  0.00    -0.121 C  
BRANCH  26  27
HETATM   27  N   UNL     1      -6.525   8.113  63.669  1.00  0.00    -0.071 N  
HETATM   28  O   UNL     1      -7.560   9.683  62.373  1.00  0.00    -0.107 OA 
HETATM   29  C   UNL     1      -6.549   9.208  62.866  1.00  0.00    -0.093 C  
HETATM   30  H   UNL     1      -5.622   7.785  64.013  1.00  0.00     0.000 HD 
BRANCH  29  31
HETATM   31  O   UNL     1      -5.290   9.684  62.721  1.00  0.00    -0.081 OA 
HETATM   32  C   UNL     1      -5.151  11.091  62.935  1.00  0.00    -0.150 C  
ENDBRANCH  29  31
ENDBRANCH  26  27
BRANCH  26  33
HETATM   33  C   UNL     1      -7.535   5.831  63.947  1.00  0.00    -0.069 C  
HETATM   34  C   UNL     1      -6.301   5.294  64.701  1.00  0.00    -0.034 C  
HETATM   35  C   UNL     1      -8.801   5.126  64.479  1.00  0.00    -0.060 C  
HETATM   36  C   UNL     1      -7.369   5.437  62.462  1.00  0.00    -0.046 C  
ENDBRANCH  26  33
ENDBRANCH  23  26
ENDBRANCH  21  22
BRANCH  21  37
HETATM   37  C   UNL     1     -10.961   7.848  67.225  1.00  0.00     0.054 C  
BRANCH  37  38
HETATM   38  C   UNL     1     -10.574   7.017  68.438  1.00  0.00    -0.240 A  
HETATM   39  C   UNL     1      -9.303   6.462  68.625  1.00  0.00    -0.124 A  
HETATM   40  C   UNL     1      -8.984   5.725  69.756  1.00  0.00    -0.137 A  
HETATM   41  C   UNL     1     -11.522   6.815  69.448  1.00  0.00    -0.208 A  
HETATM   42  C   UNL     1      -9.912   5.540  70.780  1.00  0.00    -0.263 A  
HETATM   43  C   UNL     1     -11.192   6.094  70.605  1.00  0.00    -0.387 A  
BRANCH  42  44
HETATM   44  C   UNL     1      -9.508   4.807  71.984  1.00  0.00    -0.141 A  
HETATM   45  C   UNL     1      -8.643   3.719  71.947  1.00  0.00    -0.109 A  
HETATM   46  C   UNL     1      -8.357   3.047  73.131  1.00  0.00    -0.079 A  
HETATM   47  C   UNL     1      -8.946   3.469  74.316  1.00  0.00    -0.094 A  
HETATM   48  C   UNL     1      -9.806   4.550  74.269  1.00  0.00    -0.155 A  
HETATM   49  N   UNL     1     -10.095   5.220  73.139  1.00  0.00    -0.174 NA 
ENDBRANCH  42  44
ENDBRANCH  37  38
ENDBRANCH  21  37
ENDBRANCH  20  21
ENDBRANCH  17  20
ENDBRANCH  16  17
BRANCH  16  50
HETATM   50  C   UNL     1      -7.535  10.961  67.818  1.00  0.00    -0.094 C  
BRANCH  50  51
HETATM   51  C   UNL     1      -7.809  10.365  69.176  1.00  0.00    -0.134 A  
HETATM   52  C   UNL     1      -6.778   9.813  69.949  1.00  0.00    -0.078 A  
HETATM   53  C   UNL     1      -8.381   8.945  71.519  1.00  0.00    -0.163 A  
HETATM   54  C   UNL     1      -9.122  10.297  69.657  1.00  0.00    -0.149 A  
HETATM   55  C   UNL     1      -7.065   9.072  71.090  1.00  0.00    -0.107 A  
HETATM   56  C   UNL     1      -9.405   9.589  70.826  1.00  0.00    -0.218 A  
ENDBRANCH  50  51
ENDBRANCH  16  50
ENDBRANCH  13  16
ENDBRANCH   7  12
ENDBRANCH   4   7
ENDBRANCH   2   3
TORSDOF 18
ENDMDL
MODEL       46
REMARK 921   NORMALIZED FREE ENERGY PREDICTED BY IDOCK:   -1.77 KCAL/MOL
REMARK 922        TOTAL FREE ENERGY PREDICTED BY IDOCK:   -8.37 KCAL/MOL
REMARK 923 INTER-LIGAND FREE ENERGY PREDICTED BY IDOCK:   -9.41 KCAL/MOL
REMARK 924 INTRA-LIGAND FREE ENERGY PREDICTED BY IDOCK:    1.04 KCAL/MOL
REMARK 927      BINDING AFFINITY PREDICTED BY RF-SCORE:    0.00 PKD
ROOT
HETATM    1  C   UNL     1      -7.786   2.970  67.559  1.00  0.00    -0.076 C  
HETATM    2  O   UNL     1      -9.200   3.186  67.529  1.00  0.00    -0.163 OA 
ENDROOT
BRANCH   2   3
HETATM    3  C   UNL     1      -9.602   4.463  67.755  1.00  0.00    -0.160 C  
HETATM    4  N   UNL     1      -8.504   5.262  67.836  1.00  0.00    -0.101 N  
HETATM    5  O   UNL     1     -10.757   4.830  67.918  1.00  0.00     0.182 OA 
HETATM    6  H   UNL     1      -7.603   4.880  67.548  1.00  0.00     0.000 HD 
BRANCH   4   7
HETATM    7  C   UNL     1      -8.554   6.638  68.315  1.00  0.00    -0.119 C  
BRANCH   7   8
HETATM    8  C   UNL     1      -7.266   7.025  69.145  1.00  0.00    -0.090 C  
HETATM    9  C   UNL     1      -6.031   6.976  68.222  1.00  0.00    -0.025 C  
HETATM   10  C   UNL     1      -7.026   6.110  70.366  1.00  0.00    -0.059 C  
HETATM   11  C   UNL     1      -7.355   8.465  69.704  1.00  0.00    -0.072 C  
ENDBRANCH   7   8
BRANCH   7  12
HETATM   12  C   UNL     1      -8.780   7.548  67.068  1.00  0.00    -0.127 C  
HETATM   13  N   UNL     1      -8.016   8.697  66.987  1.00  0.00    -0.096 N  
HETATM   14  O   UNL     1      -9.648   7.317  66.230  1.00  0.00    -0.140 OA 
HETATM   15  H   UNL     1      -7.436   8.969  67.780  1.00  0.00     0.000 HD 
BRANCH  13  16
HETATM   16  C   UNL     1      -8.023   9.549  65.764  1.00  0.00    -0.111 C  
BRANCH  16  17
HETATM   17  C   UNL     1      -8.725  10.903  66.088  1.00  0.00    -0.184 C  
HETATM   18  H   UNL     1      -9.347  12.401  65.029  1.00  0.00     0.000 HD 
HETATM   19  O   UNL     1      -8.919  11.577  64.832  1.00  0.00    -0.003 OA 
BRANCH  17  20
HETATM   20  C   UNL     1     -10.086  10.721  66.813  1.00  0.00    -0.222 C  
BRANCH  20  21
HETATM   21  N   UNL     1     -10.863  11.958  67.115  1.00  0.00    -0.242 NA 
BRANCH  21  22
HETATM   22  N   UNL     1     -10.028  13.111  67.316  1.00  0.00    -0.227 N  
HETATM   23  C   UNL     1     -10.171  14.262  66.553  1.00  0.00    -0.276 C  
HETATM   24  H   UNL     1      -9.310  13.083  68.040  1.00  0.00     0.000 HD 
HETATM   25  O   UNL     1     -10.907  14.326  65.573  1.00  0.00    -0.298 OA 
BRANCH  23  26
HETATM   26  C   UNL     1      -9.238  15.420  67.004  1.00  0.00    -0.225 C  
BRANCH  26  27
HETATM   27  N   UNL     1     -10.026  16.649  67.091  1.00  0.00    -0.262 N  
HETATM   28  O   UNL     1      -8.507  18.041  66.104  1.00  0.00    -0.448 OA 
HETATM   29  C   UNL     1      -9.596  17.849  66.623  1.00  0.00    -0.309 C  
HETATM   30  H   UNL     1     -10.948  16.602  67.526  1.00  0.00     0.000 HD 
BRANCH  29  31
HETATM   31  O   UNL     1     -10.565  18.776  66.811  1.00  0.00    -0.402 OA 
HETATM   32  C   UNL     1     -10.628  19.793  65.806  1.00  0.00    -0.419 C  
ENDBRANCH  29  31
ENDBRANCH  26  27
BRANCH  26  33
HETATM   33  C   UNL     1      -8.467  15.120  68.330  1.00  0.00    -0.157 C  
HETATM   34  C   UNL     1      -7.916  13.682  68.418  1.00  0.00    -0.147 C  
HETATM   35  C   UNL     1      -7.300  16.120  68.471  1.00  0.00    -0.161 C  
HETATM   36  C   UNL     1      -9.406  15.322  69.540  1.00  0.00    -0.198 C  
ENDBRANCH  26  33
ENDBRANCH  23  26
ENDBRANCH  21  22
BRANCH  21  37
HETATM   37  C   UNL     1     -11.822  11.824  68.233  1.00  0.00    -0.271 C  
BRANCH  37  38
HETATM   38  C   UNL     1     -11.616  10.670  69.202  1.00  0.00    -0.342 A  
HETATM   39  C   UNL     1     -11.253   9.378  68.804  1.00  0.00     0.112 A  
HETATM   40  C   UNL     1     -11.056   8.357  69.721  1.00  0.00    -0.062 A  
HETATM   41  C   UNL     1     -11.761  10.906  70.574  1.00  0.00    -0.441 A  
HETATM   42  C   UNL     1     -11.173   8.588  71.091  1.00  0.00    -0.317 A  
HETATM   43  C   UNL     1     -11.535   9.882  71.504  1.00  0.00    -0.322 A  
BRANCH  42  44
HETATM   44  C   UNL     1     -10.893   7.491  72.025  1.00  0.00    -0.233 A  
HETATM   45  C   UNL     1     -11.335   6.190  71.810  1.00  0.00    -0.346 A  
HETATM   46  C   UNL     1     -11.073   5.224  72.776  1.00  0.00    -0.346 A  
HETATM   47  C   UNL     1     -10.387   5.580  73.930  1.00  0.00    -0.285 A  
HETATM   48  C   UNL     1      -9.993   6.896  74.077  1.00  0.00    -0.336 A  
HETATM   49  N   UNL     1     -10.230   7.849  73.157  1.00  0.00    -0.323 NA 
ENDBRANCH  42  44
ENDBRANCH  37  38
ENDBRANCH  21  37
ENDBRANCH  20  21
ENDBRANCH  17  20
ENDBRANCH  16  17
BRANCH  16  50
HETATM   50  C   UNL     1      -8.535   8.786  64.512  1.00  0.00    -0.158 C  
BRANCH  50  51
HETATM   51  C   UNL     1      -7.461   8.009  63.792  1.00  0.00    -0.121 A  
HETATM   52  C   UNL     1      -7.496   6.610  63.727  1.00  0.00    -0.090 A  
HETATM   53  C   UNL     1      -5.287   6.570  62.774  1.00  0.00    -0.023 A  
HETATM   54  C   UNL     1      -6.370   8.682  63.230  1.00  0.00    -0.086 A  
HETATM   55  C   UNL     1      -6.400   5.893  63.260  1.00  0.00    -0.025 A  
HETATM   56  C   UNL     1      -5.287   7.963  62.722  1.00  0.00    -0.055 A  
ENDBRANCH  50  51
ENDBRANCH  16  50
ENDBRANCH  13  16
ENDBRANCH   7  12
ENDBRANCH   4   7
ENDBRANCH   2   3
TORSDOF 18
ENDMDL
MODEL       47
REMARK 921   NORMALIZED FREE ENERGY PREDICTED BY IDOCK:   -1.74 KCAL/MOL
REMARK 922        TOTAL FREE ENERGY PREDICTED BY IDOCK:   -8.32 KCAL/MOL
REMARK 923 INTER-LIGAND FREE ENERGY PREDICTED BY IDOCK:   -9.67 KCAL/MOL
REMARK 924 INTRA-LIGAND FREE ENERGY PREDICTED BY IDOCK:    1.35 KCAL/MOL
REMARK 927      BINDING AFFINITY PREDICTED BY RF-SCORE:    0.00 PKD
ROOT
HETATM    1  C   UNL     1     -10.201  10.816  63.619  1.00  0.00    -0.261 C  
HETATM    2  O   UNL     1      -9.276   9.828  64.084  1.00  0.00    -0.256 OA 
ENDROOT
BRANCH   2   3
HETATM    3  C   UNL     1      -9.602   9.227  65.257  1.00  0.00    -0.105 C  
HETATM    4  N   UNL     1      -9.129   7.952  65.245  1.00  0.00    -0.372 N  
HETATM    5  O   UNL     1     -10.265   9.727  66.155  1.00  0.00    -0.259 OA 
HETATM    6  H   UNL     1      -8.475   7.683  64.510  1.00  0.00     0.000 HD 
BRANCH   4   7
HETATM    7  C   UNL     1      -9.513   6.951  66.233  1.00  0.00    -0.070 C  
BRANCH   7   8
HETATM    8  C   UNL     1      -8.919   5.526  65.896  1.00  0.00    -0.158 C  
HETATM    9  C   UNL     1     -10.017   4.655  65.251  1.00  0.00    -0.130 C  
HETATM   10  C   UNL     1      -8.346   4.792  67.128  1.00  0.00    -0.106 C  
HETATM   11  C   UNL     1      -7.758   5.616  64.876  1.00  0.00    -0.099 C  
ENDBRANCH   7   8
BRANCH   7  12
HETATM   12  C   UNL     1      -9.066   7.490  67.627  1.00  0.00    -0.125 C  
HETATM   13  N   UNL     1      -7.742   7.297  67.977  1.00  0.00    -0.114 N  
HETATM   14  O   UNL     1      -9.854   7.991  68.425  1.00  0.00    -0.161 OA 
HETATM   15  H   UNL     1      -7.149   6.717  67.384  1.00  0.00     0.000 HD 
BRANCH  13  16
HETATM   16  C   UNL     1      -7.165   7.917  69.203  1.00  0.00    -0.081 C  
BRANCH  16  17
HETATM   17  C   UNL     1      -8.298   8.124  70.253  1.00  0.00    -0.124 C  
HETATM   18  H   UNL     1      -8.484   7.752  72.145  1.00  0.00     0.000 HD 
HETATM   19  O   UNL     1      -7.793   7.626  71.505  1.00  0.00    -0.083 OA 
BRANCH  17  20
HETATM   20  C   UNL     1      -8.724   9.610  70.401  1.00  0.00    -0.166 C  
BRANCH  20  21
HETATM   21  N   UNL     1     -10.186   9.901  70.373  1.00  0.00    -0.275 NA 
BRANCH  21  22
HETATM   22  N   UNL     1     -10.482  11.256  69.996  1.00  0.00    -0.169 N  
HETATM   23  C   UNL     1     -11.583  11.576  69.214  1.00  0.00    -0.322 C  
HETATM   24  H   UNL     1      -9.866  12.005  70.312  1.00  0.00     0.000 HD 
HETATM   25  O   UNL     1     -12.288  10.728  68.676  1.00  0.00    -0.430 OA 
BRANCH  23  26
HETATM   26  C   UNL     1     -11.773  13.105  69.011  1.00  0.00    -0.321 C  
BRANCH  26  27
HETATM   27  N   UNL     1     -11.350  13.795  70.229  1.00  0.00    -0.494 N  
HETATM   28  O   UNL     1     -13.429  14.392  70.964  1.00  0.00    -0.350 OA 
HETATM   29  C   UNL     1     -12.216  14.369  71.104  1.00  0.00    -0.350 C  
HETATM   30  H   UNL     1     -10.351  13.848  70.432  1.00  0.00     0.000 HD 
BRANCH  29  31
HETATM   31  O   UNL     1     -11.522  14.884  72.146  1.00  0.00    -0.321 OA 
HETATM   32  C   UNL     1     -11.995  14.490  73.438  1.00  0.00     0.096 C  
ENDBRANCH  29  31
ENDBRANCH  26  27
BRANCH  26  33
HETATM   33  C   UNL     1     -11.053  13.659  67.739  1.00  0.00    -0.293 C  
HETATM   34  C   UNL     1      -9.577  13.228  67.621  1.00  0.00    -0.213 C  
HETATM   35  C   UNL     1     -11.821  13.194  66.484  1.00  0.00    -0.456 C  
HETATM   36  C   UNL     1     -11.077  15.204  67.756  1.00  0.00    -0.313 C  
ENDBRANCH  26  33
ENDBRANCH  23  26
ENDBRANCH  21  22
BRANCH  21  37
HETATM   37  C   UNL     1     -10.906   9.552  71.617  1.00  0.00    -0.155 C  
BRANCH  37  38
HETATM   38  C   UNL     1     -10.838   8.107  72.088  1.00  0.00    -0.370 A  
HETATM   39  C   UNL     1     -10.444   7.730  73.378  1.00  0.00    -0.271 A  
HETATM   40  C   UNL     1     -10.413   6.401  73.775  1.00  0.00    -0.319 A  
HETATM   41  C   UNL     1     -11.219   7.090  71.206  1.00  0.00    -0.296 A  
HETATM   42  C   UNL     1     -10.816   5.383  72.912  1.00  0.00    -0.318 A  
HETATM   43  C   UNL     1     -11.216   5.749  71.616  1.00  0.00    -0.258 A  
BRANCH  42  44
HETATM   44  C   UNL     1     -10.825   3.999  73.399  1.00  0.00    -0.236 A  
HETATM   45  C   UNL     1     -11.952   3.187  73.338  1.00  0.00     0.283 A  
HETATM   46  C   UNL     1     -11.887   1.905  73.874  1.00  0.00    -0.086 A  
HETATM   47  C   UNL     1     -10.707   1.471  74.465  1.00  0.00    -0.165 A  
HETATM   48  C   UNL     1      -9.634   2.342  74.500  1.00  0.00    -0.090 A  
HETATM   49  N   UNL     1      -9.669   3.583  73.985  1.00  0.00    -0.103 NA 
ENDBRANCH  42  44
ENDBRANCH  37  38
ENDBRANCH  21  37
ENDBRANCH  20  21
ENDBRANCH  17  20
ENDBRANCH  16  17
BRANCH  16  50
HETATM   50  C   UNL     1      -6.283   9.155  68.882  1.00  0.00    -0.044 C  
BRANCH  50  51
HETATM   51  C   UNL     1      -5.875   9.252  67.433  1.00  0.00    -0.046 A  
HETATM   52  C   UNL     1      -5.958  10.464  66.734  1.00  0.00    -0.063 A  
HETATM   53  C   UNL     1      -5.461   9.338  64.667  1.00  0.00    -0.054 A  
HETATM   54  C   UNL     1      -5.464   8.104  66.745  1.00  0.00    -0.032 A  
HETATM   55  C   UNL     1      -5.794  10.500  65.354  1.00  0.00    -0.134 A  
HETATM   56  C   UNL     1      -5.258   8.150  65.366  1.00  0.00    -0.032 A  
ENDBRANCH  50  51
ENDBRANCH  16  50
ENDBRANCH  13  16
ENDBRANCH   7  12
ENDBRANCH   4   7
ENDBRANCH   2   3
TORSDOF 18
ENDMDL
MODEL       48
REMARK 921   NORMALIZED FREE ENERGY PREDICTED BY IDOCK:   -1.42 KCAL/MOL
REMARK 922        TOTAL FREE ENERGY PREDICTED BY IDOCK:   -7.65 KCAL/MOL
REMARK 923 INTER-LIGAND FREE ENERGY PREDICTED BY IDOCK:   -8.85 KCAL/MOL
REMARK 924 INTRA-LIGAND FREE ENERGY PREDICTED BY IDOCK:    1.20 KCAL/MOL
REMARK 927      BINDING AFFINITY PREDICTED BY RF-SCORE:    0.00 PKD
ROOT
HETATM    1  C   UNL     1     -11.446  16.065  67.916  1.00  0.00    -0.140 C  
HETATM    2  O   UNL     1     -10.972  15.402  66.740  1.00  0.00    -0.314 OA 
ENDROOT
BRANCH   2   3
HETATM    3  C   UNL     1     -11.637  14.268  66.400  1.00  0.00    -0.372 C  
HETATM    4  N   UNL     1     -10.871  13.193  66.729  1.00  0.00    -0.274 N  
HETATM    5  O   UNL     1     -12.720  14.218  65.834  1.00  0.00    -0.451 OA 
HETATM    6  H   UNL     1     -10.053  13.342  67.319  1.00  0.00     0.000 HD 
BRANCH   4   7
HETATM    7  C   UNL     1     -11.166  11.837  66.280  1.00  0.00    -0.312 C  
BRANCH   7   8
HETATM    8  C   UNL     1     -10.200  11.374  65.118  1.00  0.00    -0.328 C  
HETATM    9  C   UNL     1      -9.772   9.913  65.363  1.00  0.00    -0.375 C  
HETATM   10  C   UNL     1      -8.941  12.257  64.979  1.00  0.00     0.754 C  
HETATM   11  C   UNL     1     -10.902  11.414  63.739  1.00  0.00    -0.468 C  
ENDBRANCH   7   8
BRANCH   7  12
HETATM   12  C   UNL     1     -11.105  10.916  67.537  1.00  0.00    -0.310 C  
HETATM   13  N   UNL     1     -10.222  11.282  68.537  1.00  0.00    -0.198 N  
HETATM   14  O   UNL     1     -11.739   9.867  67.620  1.00  0.00     0.229 OA 
HETATM   15  H   UNL     1      -9.571  12.049  68.373  1.00  0.00     0.000 HD 
BRANCH  13  16
HETATM   16  C   UNL     1     -10.202  10.577  69.850  1.00  0.00    -0.061 C  
BRANCH  16  17
HETATM   17  C   UNL     1      -9.208   9.378  69.772  1.00  0.00    -0.196 C  
HETATM   18  H   UNL     1      -8.728   8.097  68.401  1.00  0.00     0.000 HD 
HETATM   19  O   UNL     1      -9.334   8.827  68.449  1.00  0.00    -0.137 OA 
BRANCH  17  20
HETATM   20  C   UNL     1      -7.736   9.793  70.041  1.00  0.00    -0.171 C  
BRANCH  20  21
HETATM   21  N   UNL     1      -6.982  10.391  68.901  1.00  0.00    -0.063 NA 
BRANCH  21  22
HETATM   22  N   UNL     1      -6.381   9.404  68.046  1.00  0.00    -0.057 N  
HETATM   23  C   UNL     1      -5.665   8.330  68.556  1.00  0.00    -0.037 C  
HETATM   24  H   UNL     1      -6.482   9.496  67.036  1.00  0.00     0.000 HD 
HETATM   25  O   UNL     1      -5.375   8.225  69.744  1.00  0.00    -0.026 OA 
BRANCH  23  26
HETATM   26  C   UNL     1      -5.189   7.332  67.465  1.00  0.00    -0.020 C  
BRANCH  26  27
HETATM   27  N   UNL     1      -5.269   5.975  68.005  1.00  0.00    -0.004 N  
HETATM   28  O   UNL     1      -7.351   6.149  68.929  1.00  0.00    -0.081 OA 
HETATM   29  C   UNL     1      -6.347   5.499  68.680  1.00  0.00    -0.041 C  
HETATM   30  H   UNL     1      -4.472   5.353  67.867  1.00  0.00     0.000 HD 
BRANCH  29  31
HETATM   31  O   UNL     1      -6.133   4.203  69.008  1.00  0.00    -0.025 OA 
HETATM   32  C   UNL     1      -5.886   3.334  67.899  1.00  0.00    -0.026 C  
ENDBRANCH  29  31
ENDBRANCH  26  27
BRANCH  26  33
HETATM   33  C   UNL     1      -5.959   7.473  66.112  1.00  0.00    -0.037 C  
HETATM   34  C   UNL     1      -7.472   7.723  66.279  1.00  0.00    -0.079 C  
HETATM   35  C   UNL     1      -5.340   8.631  65.300  1.00  0.00    -0.035 C  
HETATM   36  C   UNL     1      -5.799   6.181  65.281  1.00  0.00    -0.025 C  
ENDBRANCH  26  33
ENDBRANCH  23  26
ENDBRANCH  21  22
BRANCH  21  37
HETATM   37  C   UNL     1      -5.978  11.403  69.292  1.00  0.00    -0.059 C  
BRANCH  37  38
HETATM   38  C   UNL     1      -6.272  12.856  68.951  1.00  0.00    -0.085 A  
HETATM   39  C   UNL     1      -6.832  13.268  67.735  1.00  0.00    -0.154 A  
HETATM   40  C   UNL     1      -7.104  14.602  67.469  1.00  0.00    -0.203 A  
HETATM   41  C   UNL     1      -6.006  13.843  69.907  1.00  0.00    -0.134 A  
HETATM   42  C   UNL     1      -6.866  15.590  68.425  1.00  0.00    -0.115 A  
HETATM   43  C   UNL     1      -6.307  15.187  69.650  1.00  0.00    -0.146 A  
BRANCH  42  44
HETATM   44  C   UNL     1      -7.228  16.978  68.119  1.00  0.00    -0.186 A  
HETATM   45  C   UNL     1      -6.577  18.067  68.687  1.00  0.00    -0.228 A  
HETATM   46  C   UNL     1      -7.023  19.350  68.383  1.00  0.00    -0.323 A  
HETATM   47  C   UNL     1      -8.109  19.512  67.532  1.00  0.00    -0.325 A  
HETATM   48  C   UNL     1      -8.712  18.379  67.020  1.00  0.00    -0.270 A  
HETATM   49  N   UNL     1      -8.299  17.129  67.293  1.00  0.00    -0.188 NA 
ENDBRANCH  42  44
ENDBRANCH  37  38
ENDBRANCH  21  37
ENDBRANCH  20  21
ENDBRANCH  17  20
ENDBRANCH  16  17
BRANCH  16  50
HETATM   50  C   UNL     1     -11.629  10.261  70.376  1.00  0.00    -0.411 C  
BRANCH  50  51
HETATM   51  C   UNL     1     -12.391  11.478  70.837  1.00  0.00    -0.460 A  
HETATM   52  C   UNL     1     -12.132  12.745  70.298  1.00  0.00    -0.373 A  
HETATM   53  C   UNL     1     -13.549  13.770  71.951  1.00  0.00    -0.514 A  
HETATM   54  C   UNL     1     -13.332  11.364  71.868  1.00  0.00    -0.409 A  
HETATM   55  C   UNL     1     -12.674  13.887  70.877  1.00  0.00    -0.410 A  
HETATM   56  C   UNL     1     -13.909  12.508  72.421  1.00  0.00    -0.171 A  
ENDBRANCH  50  51
ENDBRANCH  16  50
ENDBRANCH  13  16
ENDBRANCH   7  12
ENDBRANCH   4   7
ENDBRANCH   2   3
TORSDOF 18
ENDMDL
MODEL       49
REMARK 921   NORMALIZED FREE ENERGY PREDICTED BY IDOCK:   -1.39 KCAL/MOL
REMARK 922        TOTAL FREE ENERGY PREDICTED BY IDOCK:   -7.60 KCAL/MOL
REMARK 923 INTER-LIGAND FREE ENERGY PREDICTED BY IDOCK:   -9.39 KCAL/MOL
REMARK 924 INTRA-LIGAND FREE ENERGY PREDICTED BY IDOCK:    1.79 KCAL/MOL
REMARK 927      BINDING AFFINITY PREDICTED BY RF-SCORE:    0.00 PKD
ROOT
HETATM    1  C   UNL     1     -14.411   6.320  72.115  1.00  0.00     0.437 C  
HETATM    2  O   UNL     1     -14.114   7.514  71.383  1.00  0.00    -0.415 OA 
ENDROOT
BRANCH   2   3
HETATM    3  C   UNL     1     -12.895   8.059  71.623  1.00  0.00    -0.329 C  
HETATM    4  N   UNL     1     -12.006   7.563  70.720  1.00  0.00    -0.459 N  
HETATM    5  O   UNL     1     -12.622   8.825  72.536  1.00  0.00    -0.391 OA 
HETATM    6  H   UNL     1     -12.365   7.042  69.921  1.00  0.00     0.000 HD 
BRANCH   4   7
HETATM    7  C   UNL     1     -10.563   7.742  70.842  1.00  0.00    -0.213 C  
BRANCH   7   8
HETATM    8  C   UNL     1      -9.761   6.538  70.207  1.00  0.00    -0.181 C  
HETATM    9  C   UNL     1     -10.302   5.209  70.774  1.00  0.00    -0.294 C  
HETATM   10  C   UNL     1      -8.239   6.616  70.457  1.00  0.00    -0.118 C  
HETATM   11  C   UNL     1      -9.938   6.478  68.671  1.00  0.00    -0.155 C  
ENDBRANCH   7   8
BRANCH   7  12
HETATM   12  C   UNL     1     -10.218   9.121  70.198  1.00  0.00    -0.205 C  
HETATM   13  N   UNL     1      -9.236   9.127  69.225  1.00  0.00    -0.144 N  
HETATM   14  O   UNL     1     -10.723  10.173  70.580  1.00  0.00    -0.297 OA 
HETATM   15  H   UNL     1      -8.699   8.278  69.052  1.00  0.00     0.000 HD 
BRANCH  13  16
HETATM   16  C   UNL     1      -8.945  10.350  68.424  1.00  0.00    -0.137 C  
BRANCH  16  17
HETATM   17  C   UNL     1      -7.606  10.978  68.919  1.00  0.00    -0.134 C  
HETATM   18  H   UNL     1      -6.606  10.918  70.577  1.00  0.00     0.000 HD 
HETATM   19  O   UNL     1      -7.421  10.535  70.275  1.00  0.00    -0.176 OA 
BRANCH  17  20
HETATM   20  C   UNL     1      -6.386  10.565  68.051  1.00  0.00    -0.058 C  
BRANCH  20  21
HETATM   21  N   UNL     1      -6.197  11.290  66.761  1.00  0.00    -0.120 NA 
BRANCH  21  22
HETATM   22  N   UNL     1      -6.716  12.630  66.788  1.00  0.00    -0.188 N  
HETATM   23  C   UNL     1      -6.150  13.620  67.578  1.00  0.00    -0.010 C  
HETATM   24  H   UNL     1      -7.525  12.860  66.210  1.00  0.00     0.000 HD 
HETATM   25  O   UNL     1      -5.273  13.393  68.405  1.00  0.00    -0.080 OA 
BRANCH  23  26
HETATM   26  C   UNL     1      -6.801  15.017  67.378  1.00  0.00    -0.111 C  
BRANCH  26  27
HETATM   27  N   UNL     1      -8.184  14.831  66.941  1.00  0.00    -0.361 N  
HETATM   28  O   UNL     1      -8.466  16.884  65.980  1.00  0.00    -0.460 OA 
HETATM   29  C   UNL     1      -8.892  15.776  66.271  1.00  0.00    -0.343 C  
HETATM   30  H   UNL     1      -8.642  13.944  67.152  1.00  0.00     0.000 HD 
BRANCH  29  31
HETATM   31  O   UNL     1     -10.118  15.288  65.971  1.00  0.00    -0.277 OA 
HETATM   32  C   UNL     1     -10.795  15.972  64.912  1.00  0.00    -0.372 C  
ENDBRANCH  29  31
ENDBRANCH  26  27
BRANCH  26  33
HETATM   33  C   UNL     1      -6.699  15.938  68.636  1.00  0.00    -0.119 C  
HETATM   34  C   UNL     1      -7.865  15.765  69.631  1.00  0.00    -0.044 C  
HETATM   35  C   UNL     1      -5.366  15.654  69.362  1.00  0.00    -0.106 C  
HETATM   36  C   UNL     1      -6.688  17.421  68.200  1.00  0.00    -0.178 C  
ENDBRANCH  26  33
ENDBRANCH  23  26
ENDBRANCH  21  22
BRANCH  21  37
HETATM   37  C   UNL     1      -6.707  10.572  65.573  1.00  0.00    -0.092 C  
BRANCH  37  38
HETATM   38  C   UNL     1      -6.783   9.054  65.646  1.00  0.00    -0.072 A  
HETATM   39  C   UNL     1      -7.901   8.314  65.245  1.00  0.00    -0.120 A  
HETATM   40  C   UNL     1      -7.924   6.928  65.309  1.00  0.00    -0.127 A  
HETATM   41  C   UNL     1      -5.668   8.343  66.105  1.00  0.00    -0.043 A  
HETATM   42  C   UNL     1      -6.810   6.210  65.741  1.00  0.00    -0.056 A  
HETATM   43  C   UNL     1      -5.680   6.942  66.144  1.00  0.00    -0.030 A  
BRANCH  42  44
HETATM   44  C   UNL     1      -6.861   4.743  65.732  1.00  0.00    -0.061 A  
HETATM   45  C   UNL     1      -5.815   3.952  66.193  1.00  0.00    -0.019 A  
HETATM   46  C   UNL     1      -5.927   2.568  66.095  1.00  0.00    -0.023 A  
HETATM   47  C   UNL     1      -7.069   2.012  65.534  1.00  0.00    -0.052 A  
HETATM   48  C   UNL     1      -8.059   2.867  65.086  1.00  0.00    -0.083 A  
HETATM   49  N   UNL     1      -7.979   4.206  65.173  1.00  0.00    -0.092 NA 
ENDBRANCH  42  44
ENDBRANCH  37  38
ENDBRANCH  21  37
ENDBRANCH  20  21
ENDBRANCH  17  20
ENDBRANCH  16  17
BRANCH  16  50
HETATM   50  C   UNL     1     -10.166  11.305  68.334  1.00  0.00    -0.205 C  
BRANCH  50  51
HETATM   51  C   UNL     1     -10.536  11.689  66.923  1.00  0.00    -0.262 A  
HETATM   52  C   UNL     1     -11.450  12.719  66.666  1.00  0.00    -0.404 A  
HETATM   53  C   UNL     1     -11.483  12.145  64.330  1.00  0.00    -0.437 A  
HETATM   54  C   UNL     1     -10.013  10.967  65.843  1.00  0.00    -0.289 A  
HETATM   55  C   UNL     1     -11.952  12.919  65.385  1.00  0.00    -0.470 A  
HETATM   56  C   UNL     1     -10.486  11.197  64.551  1.00  0.00    -0.415 A  
ENDBRANCH  50  51
ENDBRANCH  16  50
ENDBRANCH  13  16
ENDBRANCH   7  12
ENDBRANCH   4   7
ENDBRANCH   2   3
TORSDOF 18
ENDMDL
MODEL       50
REMARK 921   NORMALIZED FREE ENERGY PREDICTED BY IDOCK:   -1.30 KCAL/MOL
REMARK 922        TOTAL FREE ENERGY PREDICTED BY IDOCK:   -7.40 KCAL/MOL
REMARK 923 INTER-LIGAND FREE ENERGY PREDICTED BY IDOCK:  -10.75 KCAL/MOL
REMARK 924 INTRA-LIGAND FREE ENERGY PREDICTED BY IDOCK:    3.35 KCAL/MOL
REMARK 927      BINDING AFFINITY PREDICTED BY RF-SCORE:    0.00 PKD
ROOT
HETATM    1  C   UNL     1      -5.669   8.817  66.938  1.00  0.00    -0.045 C  
HETATM    2  O   UNL     1      -5.727   7.390  66.856  1.00  0.00    -0.025 OA 
ENDROOT
BRANCH   2   3
HETATM    3  C   UNL     1      -6.929   6.835  67.156  1.00  0.00    -0.074 C  
HETATM    4  N   UNL     1      -7.581   6.544  65.998  1.00  0.00    -0.084 N  
HETATM    5  O   UNL     1      -7.382   6.674  68.281  1.00  0.00    -0.085 OA 
HETATM    6  H   UNL     1      -7.059   6.590  65.122  1.00  0.00     0.000 HD 
BRANCH   4   7
HETATM    7  C   UNL     1      -8.990   6.172  65.948  1.00  0.00    -0.121 C  
BRANCH   7   8
HETATM    8  C   UNL     1      -9.247   4.740  66.564  1.00  0.00    -0.133 C  
HETATM    9  C   UNL     1      -8.034   3.833  66.270  1.00  0.00    -0.089 C  
HETATM   10  C   UNL     1     -10.528   4.063  66.030  1.00  0.00     0.310 C  
HETATM   11  C   UNL     1      -9.405   4.797  68.103  1.00  0.00    -0.172 C  
ENDBRANCH   7   8
BRANCH   7  12
HETATM   12  C   UNL     1      -9.787   7.304  66.666  1.00  0.00    -0.187 C  
HETATM   13  N   UNL     1      -9.111   8.486  66.910  1.00  0.00    -0.141 N  
HETATM   14  O   UNL     1     -10.933   7.146  67.078  1.00  0.00    -0.369 OA 
HETATM   15  H   UNL     1      -8.109   8.534  66.730  1.00  0.00     0.000 HD 
BRANCH  13  16
HETATM   16  C   UNL     1      -9.817   9.690  67.432  1.00  0.00    -0.171 C  
BRANCH  16  17
HETATM   17  C   UNL     1      -9.722  10.835  66.377  1.00  0.00    -0.199 C  
HETATM   18  H   UNL     1     -10.438  11.109  64.599  1.00  0.00     0.000 HD 
HETATM   19  O   UNL     1     -10.496  10.412  65.241  1.00  0.00    -0.249 OA 
BRANCH  17  20
HETATM   20  C   UNL     1     -10.251  12.194  66.909  1.00  0.00    -0.208 C  
BRANCH  20  21
HETATM   21  N   UNL     1      -9.457  12.855  67.986  1.00  0.00    -0.208 NA 
BRANCH  21  22
HETATM   22  N   UNL     1     -10.099  14.025  68.519  1.00  0.00    -0.235 N  
HETATM   23  C   UNL     1     -11.423  14.330  68.234  1.00  0.00    -0.304 C  
HETATM   24  H   UNL     1      -9.567  14.650  69.124  1.00  0.00     0.000 HD 
HETATM   25  O   UNL     1     -12.086  13.714  67.406  1.00  0.00    -0.380 OA 
BRANCH  23  26
HETATM   26  C   UNL     1     -11.946  15.580  68.995  1.00  0.00    -0.301 C  
BRANCH  26  27
HETATM   27  N   UNL     1     -12.996  15.160  69.922  1.00  0.00    -0.590 N  
HETATM   28  O   UNL     1     -11.954  13.286  70.712  1.00  0.00    -0.288 OA 
HETATM   29  C   UNL     1     -12.903  14.056  70.708  1.00  0.00    -0.285 C  
HETATM   30  H   UNL     1     -13.842  15.726  69.981  1.00  0.00     0.000 HD 
BRANCH  29  31
HETATM   31  O   UNL     1     -14.010  13.963  71.482  1.00  0.00    -0.294 OA 
HETATM   32  C   UNL     1     -13.870  14.505  72.798  1.00  0.00    -0.270 C  
ENDBRANCH  29  31
ENDBRANCH  26  27
BRANCH  26  33
HETATM   33  C   UNL     1     -10.817  16.392  69.710  1.00  0.00    -0.343 C  
HETATM   34  C   UNL     1     -10.310  17.601  68.899  1.00  0.00    -0.323 C  
HETATM   35  C   UNL     1     -11.340  16.881  71.078  1.00  0.00     0.557 C  
HETATM   36  C   UNL     1      -9.601  15.477  69.974  1.00  0.00     0.022 C  
ENDBRANCH  26  33
ENDBRANCH  23  26
ENDBRANCH  21  22
BRANCH  21  37
HETATM   37  C   UNL     1      -8.060  13.167  67.615  1.00  0.00    -0.176 C  
BRANCH  37  38
HETATM   38  C   UNL     1      -7.724  14.615  67.291  1.00  0.00    -0.198 A  
HETATM   39  C   UNL     1      -6.576  15.267  67.756  1.00  0.00    -0.182 A  
HETATM   40  C   UNL     1      -6.295  16.584  67.422  1.00  0.00    -0.199 A  
HETATM   41  C   UNL     1      -8.583  15.337  66.455  1.00  0.00    -0.264 A  
HETATM   42  C   UNL     1      -7.131  17.303  66.569  1.00  0.00    -0.300 A  
HETATM   43  C   UNL     1      -8.286  16.658  66.094  1.00  0.00    -0.305 A  
BRANCH  42  44
HETATM   44  C   UNL     1      -6.759  18.672  66.195  1.00  0.00    -0.233 A  
HETATM   45  C   UNL     1      -6.595  19.689  67.130  1.00  0.00    -0.215 A  
HETATM   46  C   UNL     1      -6.295  20.971  66.682  1.00  0.00    -0.359 A  
HETATM   47  C   UNL     1      -6.178  21.209  65.318  1.00  0.00    -0.140 A  
HETATM   48  C   UNL     1      -6.369  20.150  64.451  1.00  0.00    -0.216 A  
HETATM   49  N   UNL     1      -6.655  18.900  64.858  1.00  0.00    -0.493 NA 
ENDBRANCH  42  44
ENDBRANCH  37  38
ENDBRANCH  21  37
ENDBRANCH  20  21
ENDBRANCH  17  20
ENDBRANCH  16  17
BRANCH  16  50
HETATM   50  C   UNL     1      -9.389  10.047  68.882  1.00  0.00    -0.172 C  
BRANCH  50  51
HETATM   51  C   UNL     1     -10.269   9.436  69.943  1.00  0.00    -0.247 A  
HETATM   52  C   UNL     1     -11.425  10.088  70.393  1.00  0.00    -0.389 A  
HETATM   53  C   UNL     1     -11.687   8.471  72.156  1.00  0.00    -0.448 A  
HETATM   54  C   UNL     1      -9.901   8.226  70.545  1.00  0.00    -0.197 A  
HETATM   55  C   UNL     1     -12.106   9.633  71.517  1.00  0.00    -0.482 A  
HETATM   56  C   UNL     1     -10.610   7.747  71.647  1.00  0.00    -0.252 A  
ENDBRANCH  50  51
ENDBRANCH  16  50
ENDBRANCH  13  16
ENDBRANCH   7  12
ENDBRANCH   4   7
ENDBRANCH   2   3
TORSDOF 18
ENDMDL
MODEL       51
REMARK 921   NORMALIZED FREE ENERGY PREDICTED BY IDOCK:   -1.27 KCAL/MOL
REMARK 922        TOTAL FREE ENERGY PREDICTED BY IDOCK:   -7.35 KCAL/MOL
REMARK 923 INTER-LIGAND FREE ENERGY PREDICTED BY IDOCK:   -8.40 KCAL/MOL
REMARK 924 INTRA-LIGAND FREE ENERGY PREDICTED BY IDOCK:    1.05 KCAL/MOL
REMARK 927      BINDING AFFINITY PREDICTED BY RF-SCORE:    0.00 PKD
ROOT
HETATM    1  C   UNL     1     -10.672  12.041  64.637  1.00  0.00    -0.309 C  
HETATM    2  O   UNL     1     -10.405  10.788  64.000  1.00  0.00    -0.354 OA 
ENDROOT
BRANCH   2   3
HETATM    3  C   UNL     1      -9.767   9.866  64.765  1.00  0.00    -0.235 C  
HETATM    4  N   UNL     1      -8.883   9.185  63.988  1.00  0.00    -0.403 N  
HETATM    5  O   UNL     1      -9.989   9.641  65.946  1.00  0.00    -0.285 OA 
HETATM    6  H   UNL     1      -8.678   9.544  63.055  1.00  0.00     0.000 HD 
BRANCH   4   7
HETATM    7  C   UNL     1      -8.214   7.965  64.424  1.00  0.00    -0.051 C  
BRANCH   7   8
HETATM    8  C   UNL     1      -7.527   7.203  63.222  1.00  0.00    -0.092 C  
HETATM    9  C   UNL     1      -6.752   8.214  62.353  1.00  0.00    -0.087 C  
HETATM   10  C   UNL     1      -8.526   6.429  62.335  1.00  0.00     0.044 C  
HETATM   11  C   UNL     1      -6.500   6.156  63.719  1.00  0.00    -0.029 C  
ENDBRANCH   7   8
BRANCH   7  12
HETATM   12  C   UNL     1      -7.213   8.370  65.550  1.00  0.00    -0.079 C  
HETATM   13  N   UNL     1      -7.678   8.310  66.850  1.00  0.00    -0.094 N  
HETATM   14  O   UNL     1      -6.089   8.805  65.310  1.00  0.00    -0.054 OA 
HETATM   15  H   UNL     1      -8.666   8.126  67.019  1.00  0.00     0.000 HD 
BRANCH  13  16
HETATM   16  C   UNL     1      -6.764   8.508  68.011  1.00  0.00    -0.065 C  
BRANCH  16  17
HETATM   17  C   UNL     1      -6.352  10.010  68.086  1.00  0.00    -0.054 C  
HETATM   18  H   UNL     1      -6.546  11.535  66.907  1.00  0.00     0.000 HD 
HETATM   19  O   UNL     1      -6.798  10.620  66.862  1.00  0.00    -0.087 OA 
BRANCH  17  20
HETATM   20  C   UNL     1      -6.967  10.747  69.306  1.00  0.00    -0.102 C  
BRANCH  20  21
HETATM   21  N   UNL     1      -8.376  10.410  69.660  1.00  0.00    -0.121 NA 
BRANCH  21  22
HETATM   22  N   UNL     1      -8.553   9.027  70.008  1.00  0.00    -0.137 N  
HETATM   23  C   UNL     1      -9.335   8.635  71.085  1.00  0.00    -0.216 C  
HETATM   24  H   UNL     1      -8.090   8.312  69.447  1.00  0.00     0.000 HD 
HETATM   25  O   UNL     1      -9.806   9.431  71.892  1.00  0.00    -0.155 OA 
BRANCH  23  26
HETATM   26  C   UNL     1      -9.473   7.093  71.220  1.00  0.00    -0.163 C  
BRANCH  26  27
HETATM   27  N   UNL     1      -8.902   6.682  72.502  1.00  0.00    -0.128 N  
HETATM   28  O   UNL     1      -6.718   7.136  72.008  1.00  0.00    -0.055 OA 
HETATM   29  C   UNL     1      -7.576   6.750  72.787  1.00  0.00    -0.091 C  
HETATM   30  H   UNL     1      -9.533   6.325  73.219  1.00  0.00     0.000 HD 
BRANCH  29  31
HETATM   31  O   UNL     1      -7.372   6.342  74.062  1.00  0.00    -0.087 OA 
HETATM   32  C   UNL     1      -6.895   4.999  74.194  1.00  0.00    -0.076 C  
ENDBRANCH  29  31
ENDBRANCH  26  27
BRANCH  26  33
HETATM   33  C   UNL     1     -10.938   6.579  71.035  1.00  0.00    -0.314 C  
HETATM   34  C   UNL     1     -11.357   5.509  72.064  1.00  0.00    -0.181 C  
HETATM   35  C   UNL     1     -11.907   7.778  71.125  1.00  0.00    -0.311 C  
HETATM   36  C   UNL     1     -11.099   5.951  69.633  1.00  0.00    -0.414 C  
ENDBRANCH  26  33
ENDBRANCH  23  26
ENDBRANCH  21  22
BRANCH  21  37
HETATM   37  C   UNL     1      -9.377  10.811  68.648  1.00  0.00    -0.184 C  
BRANCH  37  38
HETATM   38  C   UNL     1      -9.469  12.287  68.294  1.00  0.00    -0.209 A  
HETATM   39  C   UNL     1     -10.442  13.150  68.812  1.00  0.00    -0.187 A  
HETATM   40  C   UNL     1     -10.480  14.496  68.480  1.00  0.00    -0.250 A  
HETATM   41  C   UNL     1      -8.514  12.836  67.430  1.00  0.00    -0.191 A  
HETATM   42  C   UNL     1      -9.518  15.057  67.641  1.00  0.00    -0.195 A  
HETATM   43  C   UNL     1      -8.535  14.202  67.116  1.00  0.00    -0.214 A  
BRANCH  42  44
HETATM   44  C   UNL     1      -9.565  16.498  67.369  1.00  0.00    -0.238 A  
HETATM   45  C   UNL     1      -8.524  17.180  66.747  1.00  0.00    -0.264 A  
HETATM   46  C   UNL     1      -8.629  18.557  66.579  1.00  0.00    -0.289 A  
HETATM   47  C   UNL     1      -9.760  19.218  67.042  1.00  0.00    -0.406 A  
HETATM   48  C   UNL     1     -10.745  18.472  67.661  1.00  0.00    -0.364 A  
HETATM   49  N   UNL     1     -10.671  17.140  67.832  1.00  0.00    -0.372 NA 
ENDBRANCH  42  44
ENDBRANCH  37  38
ENDBRANCH  21  37
ENDBRANCH  20  21
ENDBRANCH  17  20
ENDBRANCH  16  17
BRANCH  16  50
HETATM   50  C   UNL     1      -5.609   7.470  68.041  1.00  0.00    -0.027 C  
BRANCH  50  51
HETATM   51  C   UNL     1      -6.069   6.056  68.292  1.00  0.00    -0.021 A  
HETATM   52  C   UNL     1      -7.289   5.790  68.927  1.00  0.00    -0.083 A  
HETATM   53  C   UNL     1      -6.737   3.452  69.072  1.00  0.00    -0.037 A  
HETATM   54  C   UNL     1      -5.241   4.981  67.947  1.00  0.00    -0.007 A  
HETATM   55  C   UNL     1      -7.603   4.503  69.352  1.00  0.00    -0.055 A  
HETATM   56  C   UNL     1      -5.576   3.684  68.336  1.00  0.00    -0.017 A  
ENDBRANCH  50  51
ENDBRANCH  16  50
ENDBRANCH  13  16
ENDBRANCH   7  12
ENDBRANCH   4   7
ENDBRANCH   2   3
TORSDOF 18
ENDMDL
MODEL       52
REMARK 921   NORMALIZED FREE ENERGY PREDICTED BY IDOCK:   -1.10 KCAL/MOL
REMARK 922        TOTAL FREE ENERGY PREDICTED BY IDOCK:   -7.01 KCAL/MOL
REMARK 923 INTER-LIGAND FREE ENERGY PREDICTED BY IDOCK:   -7.66 KCAL/MOL
REMARK 924 INTRA-LIGAND FREE ENERGY PREDICTED BY IDOCK:    0.65 KCAL/MOL
REMARK 927      BINDING AFFINITY PREDICTED BY RF-SCORE:    0.00 PKD
ROOT
HETATM    1  C   UNL     1     -11.294   6.900  67.218  1.00  0.00     0.057 C  
HETATM    2  O   UNL     1     -10.483   6.618  66.074  1.00  0.00     0.347 OA 
ENDROOT
BRANCH   2   3
HETATM    3  C   UNL     1      -9.183   6.995  66.171  1.00  0.00    -0.077 C  
HETATM    4  N   UNL     1      -8.989   8.106  65.411  1.00  0.00    -0.390 N  
HETATM    5  O   UNL     1      -8.311   6.402  66.791  1.00  0.00    -0.109 OA 
HETATM    6  H   UNL     1      -9.807   8.596  65.049  1.00  0.00     0.000 HD 
BRANCH   4   7
HETATM    7  C   UNL     1      -7.667   8.631  65.089  1.00  0.00    -0.101 C  
BRANCH   7   8
HETATM    8  C   UNL     1      -7.438   8.746  63.530  1.00  0.00    -0.108 C  
HETATM    9  C   UNL     1      -7.712   7.378  62.871  1.00  0.00    -0.128 C  
HETATM   10  C   UNL     1      -6.017   9.217  63.151  1.00  0.00    -0.089 C  
HETATM   11  C   UNL     1      -8.410   9.762  62.882  1.00  0.00    -0.163 C  
ENDBRANCH   7   8
BRANCH   7  12
HETATM   12  C   UNL     1      -7.521   9.992  65.836  1.00  0.00    -0.115 C  
HETATM   13  N   UNL     1      -6.734   9.999  66.973  1.00  0.00    -0.077 N  
HETATM   14  O   UNL     1      -8.132  11.002  65.496  1.00  0.00    -0.083 OA 
HETATM   15  H   UNL     1      -6.385   9.116  67.345  1.00  0.00     0.000 HD 
BRANCH  13  16
HETATM   16  C   UNL     1      -6.385  11.271  67.668  1.00  0.00    -0.059 C  
BRANCH  16  17
HETATM   17  C   UNL     1      -6.850  11.185  69.154  1.00  0.00    -0.102 C  
HETATM   18  H   UNL     1      -6.187  11.895  70.830  1.00  0.00     0.000 HD 
HETATM   19  O   UNL     1      -5.904  11.947  69.925  1.00  0.00    -0.106 OA 
BRANCH  17  20
HETATM   20  C   UNL     1      -8.285  11.737  69.373  1.00  0.00     0.653 C  
BRANCH  20  21
HETATM   21  N   UNL     1      -9.358  11.201  68.487  1.00  0.00    -0.185 NA 
BRANCH  21  22
HETATM   22  N   UNL     1     -10.022  12.224  67.726  1.00  0.00    -0.195 N  
HETATM   23  C   UNL     1     -11.320  12.624  68.011  1.00  0.00    -0.290 C  
HETATM   24  H   UNL     1      -9.526  12.669  66.954  1.00  0.00     0.000 HD 
HETATM   25  O   UNL     1     -12.034  12.045  68.824  1.00  0.00    -0.307 OA 
BRANCH  23  26
HETATM   26  C   UNL     1     -11.806  13.811  67.134  1.00  0.00    -0.406 C  
BRANCH  26  27
HETATM   27  N   UNL     1     -11.180  15.040  67.620  1.00  0.00    -0.317 N  
HETATM   28  O   UNL     1     -12.579  15.401  69.391  1.00  0.00    -0.096 OA 
HETATM   29  C   UNL     1     -11.614  15.721  68.712  1.00  0.00    -0.395 C  
HETATM   30  H   UNL     1     -10.374  15.405  67.112  1.00  0.00     0.000 HD 
BRANCH  29  31
HETATM   31  O   UNL     1     -10.804  16.784  68.928  1.00  0.00    -0.320 OA 
HETATM   32  C   UNL     1     -10.606  17.630  67.792  1.00  0.00    -0.378 C  
ENDBRANCH  29  31
ENDBRANCH  26  27
BRANCH  26  33
HETATM   33  C   UNL     1     -11.570  13.595  65.604  1.00  0.00    -0.342 C  
HETATM   34  C   UNL     1     -12.225  12.314  65.048  1.00  0.00    -0.374 C  
HETATM   35  C   UNL     1     -12.110  14.818  64.833  1.00  0.00    -0.335 C  
HETATM   36  C   UNL     1     -10.055  13.492  65.318  1.00  0.00    -0.277 C  
ENDBRANCH  26  33
ENDBRANCH  23  26
ENDBRANCH  21  22
BRANCH  21  37
HETATM   37  C   UNL     1     -10.356  10.352  69.174  1.00  0.00    -0.222 C  
BRANCH  37  38
HETATM   38  C   UNL     1      -9.836   9.207  70.029  1.00  0.00    -0.217 A  
HETATM   39  C   UNL     1      -9.891   9.196  71.428  1.00  0.00    -0.354 A  
HETATM   40  C   UNL     1      -9.423   8.122  72.171  1.00  0.00    -0.291 A  
HETATM   41  C   UNL     1      -9.301   8.079  69.395  1.00  0.00    -0.155 A  
HETATM   42  C   UNL     1      -8.912   6.984  71.549  1.00  0.00    -0.139 A  
HETATM   43  C   UNL     1      -8.854   6.982  70.144  1.00  0.00    -0.145 A  
BRANCH  42  44
HETATM   44  C   UNL     1      -8.488   5.849  72.376  1.00  0.00    -0.117 A  
HETATM   45  C   UNL     1      -8.727   4.527  72.019  1.00  0.00    -0.128 A  
HETATM   46  C   UNL     1      -8.338   3.515  72.891  1.00  0.00    -0.082 A  
HETATM   47  C   UNL     1      -7.734   3.847  74.097  1.00  0.00    -0.079 A  
HETATM   48  C   UNL     1      -7.543   5.185  74.386  1.00  0.00    -0.089 A  
HETATM   49  N   UNL     1      -7.905   6.182  73.559  1.00  0.00    -0.099 NA 
ENDBRANCH  42  44
ENDBRANCH  37  38
ENDBRANCH  21  37
ENDBRANCH  20  21
ENDBRANCH  17  20
ENDBRANCH  16  17
BRANCH  16  50
HETATM   50  C   UNL     1      -6.838  12.525  66.872  1.00  0.00     0.199 C  
BRANCH  50  51
HETATM   51  C   UNL     1      -6.578  13.827  67.589  1.00  0.00    -0.181 A  
HETATM   52  C   UNL     1      -5.309  14.139  68.093  1.00  0.00    -0.120 A  
HETATM   53  C   UNL     1      -6.199  16.066  69.224  1.00  0.00    -0.151 A  
HETATM   54  C   UNL     1      -7.632  14.719  67.820  1.00  0.00    -0.174 A  
HETATM   55  C   UNL     1      -5.128  15.228  68.938  1.00  0.00    -0.096 A  
HETATM   56  C   UNL     1      -7.441  15.836  68.635  1.00  0.00    -0.151 A  
ENDBRANCH  50  51
ENDBRANCH  16  50
ENDBRANCH  13  16
ENDBRANCH   7  12
ENDBRANCH   4   7
ENDBRANCH   2   3
TORSDOF 18
ENDMDL
MODEL       53
REMARK 921   NORMALIZED FREE ENERGY PREDICTED BY IDOCK:   -0.69 KCAL/MOL
REMARK 922        TOTAL FREE ENERGY PREDICTED BY IDOCK:   -6.16 KCAL/MOL
REMARK 923 INTER-LIGAND FREE ENERGY PREDICTED BY IDOCK:   -5.69 KCAL/MOL
REMARK 924 INTRA-LIGAND FREE ENERGY PREDICTED BY IDOCK:   -0.47 KCAL/MOL
REMARK 927      BINDING AFFINITY PREDICTED BY RF-SCORE:    0.00 PKD
ROOT
HETATM    1  C   UNL     1      -6.789  15.085  70.294  1.00  0.00     0.025 C  
HETATM    2  O   UNL     1      -7.498  14.860  69.071  1.00  0.00    -0.124 OA 
ENDROOT
BRANCH   2   3
HETATM    3  C   UNL     1      -8.819  14.579  69.204  1.00  0.00     0.038 C  
HETATM    4  N   UNL     1      -9.203  13.776  68.175  1.00  0.00    -0.195 N  
HETATM    5  O   UNL     1      -9.560  15.020  70.071  1.00  0.00    -0.012 OA 
HETATM    6  H   UNL     1      -8.481  13.357  67.590  1.00  0.00     0.000 HD 
BRANCH   4   7
HETATM    7  C   UNL     1     -10.599  13.486  67.869  1.00  0.00    -0.248 C  
BRANCH   7   8
HETATM    8  C   UNL     1     -10.787  12.968  66.389  1.00  0.00    -0.294 C  
HETATM    9  C   UNL     1     -12.222  13.280  65.916  1.00  0.00    -0.497 C  
HETATM   10  C   UNL     1     -10.517  11.456  66.230  1.00  0.00    -0.301 C  
HETATM   11  C   UNL     1      -9.824  13.677  65.406  1.00  0.00    -0.153 C  
ENDBRANCH   7   8
BRANCH   7  12
HETATM   12  C   UNL     1     -11.103  12.475  68.945  1.00  0.00    -0.260 C  
HETATM   13  N   UNL     1     -10.510  11.226  68.955  1.00  0.00    -0.207 N  
HETATM   14  O   UNL     1     -12.036  12.727  69.703  1.00  0.00    -0.289 OA 
HETATM   15  H   UNL     1      -9.869  10.972  68.203  1.00  0.00     0.000 HD 
BRANCH  13  16
HETATM   16  C   UNL     1     -10.787  10.243  70.040  1.00  0.00    -0.307 C  
BRANCH  16  17
HETATM   17  C   UNL     1      -9.437   9.802  70.685  1.00  0.00     0.003 C  
HETATM   18  H   UNL     1      -8.869   8.283  71.746  1.00  0.00     0.000 HD 
HETATM   19  O   UNL     1      -9.691   8.552  71.353  1.00  0.00    -0.180 OA 
BRANCH  17  20
HETATM   20  C   UNL     1      -8.296   9.631  69.647  1.00  0.00    -0.168 C  
BRANCH  20  21
HETATM   21  N   UNL     1      -7.845   8.239  69.358  1.00  0.00    -0.102 NA 
BRANCH  21  22
HETATM   22  N   UNL     1      -7.262   8.096  68.053  1.00  0.00    -0.092 N  
HETATM   23  C   UNL     1      -6.008   8.609  67.750  1.00  0.00    -0.047 C  
HETATM   24  H   UNL     1      -7.784   7.604  67.328  1.00  0.00     0.000 HD 
HETATM   25  O   UNL     1      -5.381   9.333  68.516  1.00  0.00    -0.037 OA 
BRANCH  23  26
HETATM   26  C   UNL     1      -5.527   8.254  66.316  1.00  0.00    -0.031 C  
BRANCH  26  27
HETATM   27  N   UNL     1      -5.881   6.863  66.033  1.00  0.00    -0.033 N  
HETATM   28  O   UNL     1      -5.241   5.984  68.043  1.00  0.00    -0.004 OA 
HETATM   29  C   UNL     1      -5.718   5.852  66.925  1.00  0.00    -0.017 C  
HETATM   30  H   UNL     1      -6.272   6.641  65.117  1.00  0.00     0.000 HD 
BRANCH  29  31
HETATM   31  O   UNL     1      -6.179   4.700  66.385  1.00  0.00    -0.030 OA 
HETATM   32  C   UNL     1      -6.189   4.668  64.955  1.00  0.00    -0.034 C  
ENDBRANCH  29  31
ENDBRANCH  26  27
BRANCH  26  33
HETATM   33  C   UNL     1      -6.059   9.232  65.219  1.00  0.00    -0.063 C  
HETATM   34  C   UNL     1      -7.595   9.234  65.078  1.00  0.00    -0.107 C  
HETATM   35  C   UNL     1      -5.578  10.662  65.544  1.00  0.00    -0.135 C  
HETATM   36  C   UNL     1      -5.475   8.843  63.842  1.00  0.00    -0.061 C  
ENDBRANCH  26  33
ENDBRANCH  23  26
ENDBRANCH  21  22
BRANCH  21  37
HETATM   37  C   UNL     1      -8.880   7.203  69.568  1.00  0.00    -0.137 C  
BRANCH  37  38
HETATM   38  C   UNL     1      -9.182   6.265  68.410  1.00  0.00    -0.112 A  
HETATM   39  C   UNL     1      -9.544   6.704  67.130  1.00  0.00    -0.168 A  
HETATM   40  C   UNL     1      -9.793   5.817  66.094  1.00  0.00    -0.087 A  
HETATM   41  C   UNL     1      -9.063   4.885  68.608  1.00  0.00    -0.145 A  
HETATM   42  C   UNL     1      -9.652   4.442  66.275  1.00  0.00    -0.201 A  
HETATM   43  C   UNL     1      -9.287   3.988  67.554  1.00  0.00    -0.219 A  
BRANCH  42  44
HETATM   44  C   UNL     1      -9.866   3.547  65.132  1.00  0.00    -0.086 A  
HETATM   45  C   UNL     1      -9.219   2.323  65.003  1.00  0.00    -0.114 A  
HETATM   46  C   UNL     1      -9.439   1.564  63.858  1.00  0.00    -0.122 A  
HETATM   47  C   UNL     1     -10.287   2.048  62.870  1.00  0.00    -0.118 A  
HETATM   48  C   UNL     1     -10.882   3.280  63.065  1.00  0.00    -0.174 A  
HETATM   49  N   UNL     1     -10.690   4.031  64.164  1.00  0.00    -0.224 NA 
ENDBRANCH  42  44
ENDBRANCH  37  38
ENDBRANCH  21  37
ENDBRANCH  20  21
ENDBRANCH  17  20
ENDBRANCH  16  17
BRANCH  16  50
HETATM   50  C   UNL     1     -11.740   9.106  69.582  1.00  0.00     0.423 C  
BRANCH  50  51
HETATM   51  C   UNL     1     -12.756   8.708  70.623  1.00  0.00     0.373 A  
HETATM   52  C   UNL     1     -13.433   9.670  71.384  1.00  0.00    -0.403 A  
HETATM   53  C   UNL     1     -14.359   7.950  72.789  1.00  0.00     0.276 A  
HETATM   54  C   UNL     1     -12.988   7.353  70.890  1.00  0.00    -0.103 A  
HETATM   55  C   UNL     1     -14.196   9.297  72.485  1.00  0.00    -0.205 A  
HETATM   56  C   UNL     1     -13.788   6.978  71.970  1.00  0.00    -0.175 A  
ENDBRANCH  50  51
ENDBRANCH  16  50
ENDBRANCH  13  16
ENDBRANCH   7  12
ENDBRANCH   4   7
ENDBRANCH   2   3
TORSDOF 18
ENDMDL
MODEL       54
REMARK 921   NORMALIZED FREE ENERGY PREDICTED BY IDOCK:   -0.54 KCAL/MOL
REMARK 922        TOTAL FREE ENERGY PREDICTED BY IDOCK:   -5.85 KCAL/MOL
REMARK 923 INTER-LIGAND FREE ENERGY PREDICTED BY IDOCK:   -8.01 KCAL/MOL
REMARK 924 INTRA-LIGAND FREE ENERGY PREDICTED BY IDOCK:    2.16 KCAL/MOL
REMARK 927      BINDING AFFINITY PREDICTED BY RF-SCORE:    0.00 PKD
ROOT
HETATM    1  C   UNL     1      -8.092   3.189  67.911  1.00  0.00    -0.078 C  
HETATM    2  O   UNL     1      -9.453   3.516  68.208  1.00  0.00    -0.175 OA 
ENDROOT
BRANCH   2   3
HETATM    3  C   UNL     1      -9.703   4.831  68.432  1.00  0.00    -0.146 C  
HETATM    4  N   UNL     1      -8.803   5.575  67.735  1.00  0.00    -0.106 N  
HETATM    5  O   UNL     1     -10.559   5.277  69.184  1.00  0.00    -0.204 OA 
HETATM    6  H   UNL     1      -8.225   5.110  67.036  1.00  0.00     0.000 HD 
BRANCH   4   7
HETATM    7  C   UNL     1      -8.624   7.008  67.941  1.00  0.00    -0.126 C  
BRANCH   7   8
HETATM    8  C   UNL     1      -7.322   7.330  68.776  1.00  0.00    -0.096 C  
HETATM    9  C   UNL     1      -6.934   8.808  68.566  1.00  0.00    -0.065 C  
HETATM   10  C   UNL     1      -6.121   6.431  68.409  1.00  0.00    -0.024 C  
HETATM   11  C   UNL     1      -7.551   7.135  70.294  1.00  0.00    -0.090 C  
ENDBRANCH   7   8
BRANCH   7  12
HETATM   12  C   UNL     1      -8.635   7.677  66.532  1.00  0.00    -0.138 C  
HETATM   13  N   UNL     1      -7.576   8.513  66.229  1.00  0.00    -0.089 N  
HETATM   14  O   UNL     1      -9.569   7.546  65.745  1.00  0.00     0.124 OA 
HETATM   15  H   UNL     1      -6.907   8.756  66.960  1.00  0.00     0.000 HD 
BRANCH  13  16
HETATM   16  C   UNL     1      -7.392   9.068  64.859  1.00  0.00    -0.100 C  
BRANCH  16  17
HETATM   17  C   UNL     1      -8.294  10.330  64.693  1.00  0.00    -0.169 C  
HETATM   18  H   UNL     1      -8.744  11.496  63.213  1.00  0.00     0.000 HD 
HETATM   19  O   UNL     1      -8.194  10.728  63.314  1.00  0.00    -0.103 OA 
BRANCH  17  20
HETATM   20  C   UNL     1      -9.777  10.068  65.069  1.00  0.00    -0.317 C  
BRANCH  20  21
HETATM   21  N   UNL     1     -10.572  11.236  65.546  1.00  0.00    -0.262 NA 
BRANCH  21  22
HETATM   22  N   UNL     1      -9.755  12.286  66.090  1.00  0.00    -0.243 N  
HETATM   23  C   UNL     1      -9.623  13.515  65.459  1.00  0.00     0.062 C  
HETATM   24  H   UNL     1      -9.256  12.124  66.965  1.00  0.00     0.000 HD 
HETATM   25  O   UNL     1     -10.070  13.741  64.338  1.00  0.00    -0.319 OA 
BRANCH  23  26
HETATM   26  C   UNL     1      -8.778  14.538  66.268  1.00  0.00     0.209 C  
BRANCH  26  27
HETATM   27  N   UNL     1      -9.672  15.564  66.805  1.00  0.00    -0.231 N  
HETATM   28  O   UNL     1      -8.616  17.375  65.896  1.00  0.00    -0.525 OA 
HETATM   29  C   UNL     1      -9.519  16.891  66.563  1.00  0.00    -0.276 C  
HETATM   30  H   UNL     1     -10.450  15.266  67.393  1.00  0.00     0.000 HD 
BRANCH  29  31
HETATM   31  O   UNL     1     -10.525  17.573  67.159  1.00  0.00    -0.335 OA 
HETATM   32  C   UNL     1     -10.200  18.915  67.537  1.00  0.00    -0.391 C  
ENDBRANCH  29  31
ENDBRANCH  26  27
BRANCH  26  33
HETATM   33  C   UNL     1      -7.901  13.879  67.382  1.00  0.00    -0.177 C  
HETATM   34  C   UNL     1      -6.582  14.628  67.660  1.00  0.00    -0.177 C  
HETATM   35  C   UNL     1      -8.722  13.796  68.686  1.00  0.00    -0.051 C  
HETATM   36  C   UNL     1      -7.528  12.437  66.971  1.00  0.00    -0.037 C  
ENDBRANCH  26  33
ENDBRANCH  23  26
ENDBRANCH  21  22
BRANCH  21  37
HETATM   37  C   UNL     1     -11.657  10.896  66.492  1.00  0.00     0.684 C  
BRANCH  37  38
HETATM   38  C   UNL     1     -11.879  11.828  67.673  1.00  0.00    -0.241 A  
HETATM   39  C   UNL     1     -11.658  11.457  69.005  1.00  0.00    -0.383 A  
HETATM   40  C   UNL     1     -11.854  12.343  70.054  1.00  0.00    -0.363 A  
HETATM   41  C   UNL     1     -12.294  13.142  67.429  1.00  0.00    -0.027 A  
HETATM   42  C   UNL     1     -12.242  13.662  69.820  1.00  0.00    -0.350 A  
HETATM   43  C   UNL     1     -12.465  14.046  68.487  1.00  0.00     0.212 A  
BRANCH  42  44
HETATM   44  C   UNL     1     -12.376  14.578  70.958  1.00  0.00    -0.347 A  
HETATM   45  C   UNL     1     -11.437  15.563  71.244  1.00  0.00    -0.462 A  
HETATM   46  C   UNL     1     -11.615  16.351  72.377  1.00  0.00    -0.293 A  
HETATM   47  C   UNL     1     -12.715  16.132  73.197  1.00  0.00    -0.578 A  
HETATM   48  C   UNL     1     -13.596  15.124  72.852  1.00  0.00    -0.459 A  
HETATM   49  N   UNL     1     -13.450  14.351  71.761  1.00  0.00    -0.348 NA 
ENDBRANCH  42  44
ENDBRANCH  37  38
ENDBRANCH  21  37
ENDBRANCH  20  21
ENDBRANCH  17  20
ENDBRANCH  16  17
BRANCH  16  50
HETATM   50  C   UNL     1      -7.514   7.981  63.757  1.00  0.00    -0.121 C  
BRANCH  50  51
HETATM   51  C   UNL     1      -6.992   6.629  64.175  1.00  0.00    -0.051 A  
HETATM   52  C   UNL     1      -7.753   5.467  63.993  1.00  0.00    -0.089 A  
HETATM   53  C   UNL     1      -6.169   4.193  65.280  1.00  0.00    -0.027 A  
HETATM   54  C   UNL     1      -5.752   6.528  64.818  1.00  0.00    -0.030 A  
HETATM   55  C   UNL     1      -7.366   4.266  64.577  1.00  0.00    -0.071 A  
HETATM   56  C   UNL     1      -5.344   5.312  65.367  1.00  0.00    -0.013 A  
ENDBRANCH  50  51
ENDBRANCH  16  50
ENDBRANCH  13  16
ENDBRANCH   7  12
ENDBRANCH   4   7
ENDBRANCH   2   3
TORSDOF 18
ENDMDL
MODEL       55
REMARK 921   NORMALIZED FREE ENERGY PREDICTED BY IDOCK:   -0.30 KCAL/MOL
REMARK 922        TOTAL FREE ENERGY PREDICTED BY IDOCK:   -5.35 KCAL/MOL
REMARK 923 INTER-LIGAND FREE ENERGY PREDICTED BY IDOCK:   -6.09 KCAL/MOL
REMARK 924 INTRA-LIGAND FREE ENERGY PREDICTED BY IDOCK:    0.74 KCAL/MOL
REMARK 927      BINDING AFFINITY PREDICTED BY RF-SCORE:    0.00 PKD
ROOT
HETATM    1  C   UNL     1     -10.236  10.926  65.936  1.00  0.00    -0.257 C  
HETATM    2  O   UNL     1     -10.000   9.861  65.010  1.00  0.00    -0.316 OA 
ENDROOT
BRANCH   2   3
HETATM    3  C   UNL     1      -9.445   8.740  65.535  1.00  0.00    -0.026 C  
HETATM    4  N   UNL     1      -8.606   8.192  64.616  1.00  0.00    -0.392 N  
HETATM    5  O   UNL     1      -9.699   8.264  66.633  1.00  0.00    -0.210 OA 
HETATM    6  H   UNL     1      -8.362   8.741  63.792  1.00  0.00     0.000 HD 
BRANCH   4   7
HETATM    7  C   UNL     1      -8.038   6.855  64.753  1.00  0.00    -0.095 C  
BRANCH   7   8
HETATM    8  C   UNL     1      -7.658   6.226  63.354  1.00  0.00    -0.086 C  
HETATM    9  C   UNL     1      -7.091   7.329  62.436  1.00  0.00    -0.075 C  
HETATM   10  C   UNL     1      -8.846   5.538  62.648  1.00  0.00     0.091 C  
HETATM   11  C   UNL     1      -6.560   5.144  63.491  1.00  0.00    -0.030 C  
ENDBRANCH   7   8
BRANCH   7  12
HETATM   12  C   UNL     1      -6.825   6.972  65.726  1.00  0.00    -0.056 C  
HETATM   13  N   UNL     1      -7.106   6.958  67.080  1.00  0.00    -0.077 N  
HETATM   14  O   UNL     1      -5.676   7.152  65.332  1.00  0.00    -0.034 OA 
HETATM   15  H   UNL     1      -8.078   6.995  67.388  1.00  0.00     0.000 HD 
BRANCH  13  16
HETATM   16  C   UNL     1      -6.021   6.891  68.099  1.00  0.00    -0.032 C  
BRANCH  16  17
HETATM   17  C   UNL     1      -5.211   8.223  68.071  1.00  0.00    -0.034 C  
HETATM   18  H   UNL     1      -5.183   9.774  66.910  1.00  0.00     0.000 HD 
HETATM   19  O   UNL     1      -5.676   8.962  66.927  1.00  0.00    -0.043 OA 
BRANCH  17  20
HETATM   20  C   UNL     1      -5.390   9.068  69.362  1.00  0.00    -0.035 C  
BRANCH  20  21
HETATM   21  N   UNL     1      -6.779   9.217  69.886  1.00  0.00    -0.047 NA 
BRANCH  21  22
HETATM   22  N   UNL     1      -7.270   8.026  70.523  1.00  0.00    -0.051 N  
HETATM   23  C   UNL     1      -7.808   8.047  71.802  1.00  0.00    -0.110 C  
HETATM   24  H   UNL     1      -7.222   7.139  70.021  1.00  0.00     0.000 HD 
HETATM   25  O   UNL     1      -7.771   9.038  72.525  1.00  0.00    -0.338 OA 
BRANCH  23  26
HETATM   26  C   UNL     1      -8.371   6.673  72.258  1.00  0.00    -0.107 C  
BRANCH  26  27
HETATM   27  N   UNL     1      -9.056   6.049  71.126  1.00  0.00    -0.146 N  
HETATM   28  O   UNL     1     -11.192   6.316  71.893  1.00  0.00    -0.257 OA 
HETATM   29  C   UNL     1     -10.406   5.935  71.038  1.00  0.00    -0.223 C  
HETATM   30  H   UNL     1      -8.489   5.679  70.363  1.00  0.00     0.000 HD 
BRANCH  29  31
HETATM   31  O   UNL     1     -10.731   5.355  69.858  1.00  0.00    -0.316 OA 
HETATM   32  C   UNL     1     -11.265   6.248  68.876  1.00  0.00    -0.309 C  
ENDBRANCH  29  31
ENDBRANCH  26  27
BRANCH  26  33
HETATM   33  C   UNL     1      -7.291   5.732  72.884  1.00  0.00    -0.091 C  
HETATM   34  C   UNL     1      -6.182   5.314  71.897  1.00  0.00    -0.034 C  
HETATM   35  C   UNL     1      -6.650   6.440  74.097  1.00  0.00    -0.070 C  
HETATM   36  C   UNL     1      -7.958   4.436  73.396  1.00  0.00    -0.094 C  
ENDBRANCH  26  33
ENDBRANCH  23  26
ENDBRANCH  21  22
BRANCH  21  37
HETATM   37  C   UNL     1      -7.761   9.704  68.893  1.00  0.00    -0.077 C  
BRANCH  37  38
HETATM   38  C   UNL     1      -7.778  11.194  68.592  1.00  0.00    -0.135 A  
HETATM   39  C   UNL     1      -8.885  12.020  68.822  1.00  0.00     0.079 A  
HETATM   40  C   UNL     1      -8.854  13.380  68.551  1.00  0.00    -0.068 A  
HETATM   41  C   UNL     1      -6.618  11.795  68.088  1.00  0.00    -0.056 A  
HETATM   42  C   UNL     1      -7.696  13.992  68.074  1.00  0.00    -0.149 A  
HETATM   43  C   UNL     1      -6.577  13.174  67.841  1.00  0.00    -0.137 A  
BRANCH  42  44
HETATM   44  C   UNL     1      -7.693  15.444  67.863  1.00  0.00    -0.133 A  
HETATM   45  C   UNL     1      -7.263  16.344  68.831  1.00  0.00    -0.203 A  
HETATM   46  C   UNL     1      -7.348  17.707  68.566  1.00  0.00    -0.256 A  
HETATM   47  C   UNL     1      -7.866  18.136  67.351  1.00  0.00    -0.222 A  
HETATM   48  C   UNL     1      -8.285  17.180  66.445  1.00  0.00    -0.292 A  
HETATM   49  N   UNL     1      -8.210  15.857  66.674  1.00  0.00    -0.271 NA 
ENDBRANCH  42  44
ENDBRANCH  37  38
ENDBRANCH  21  37
ENDBRANCH  20  21
ENDBRANCH  17  20
ENDBRANCH  16  17
BRANCH  16  50
HETATM   50  C   UNL     1      -5.196   5.578  68.001  1.00  0.00    -0.004 C  
BRANCH  50  51
HETATM   51  C   UNL     1      -6.019   4.328  68.187  1.00  0.00    -0.027 A  
HETATM   52  C   UNL     1      -5.481   3.059  67.935  1.00  0.00    -0.017 A  
HETATM   53  C   UNL     1      -7.653   2.056  68.186  1.00  0.00    -0.054 A  
HETATM   54  C   UNL     1      -7.366   4.427  68.556  1.00  0.00    -0.060 A  
HETATM   55  C   UNL     1      -6.300   1.936  67.894  1.00  0.00    -0.025 A  
HETATM   56  C   UNL     1      -8.179   3.292  68.555  1.00  0.00    -0.082 A  
ENDBRANCH  50  51
ENDBRANCH  16  50
ENDBRANCH  13  16
ENDBRANCH   7  12
ENDBRANCH   4   7
ENDBRANCH   2   3
TORSDOF 18
ENDMDL
MODEL       56
REMARK 921   NORMALIZED FREE ENERGY PREDICTED BY IDOCK:   -0.20 KCAL/MOL
REMARK 922        TOTAL FREE ENERGY PREDICTED BY IDOCK:   -5.15 KCAL/MOL
REMARK 923 INTER-LIGAND FREE ENERGY PREDICTED BY IDOCK:   -7.13 KCAL/MOL
REMARK 924 INTRA-LIGAND FREE ENERGY PREDICTED BY IDOCK:    1.98 KCAL/MOL
REMARK 927      BINDING AFFINITY PREDICTED BY RF-SCORE:    0.00 PKD
ROOT
HETATM    1  C   UNL     1      -9.940  10.824  63.815  1.00  0.00    -0.351 C  
HETATM    2  O   UNL     1      -8.819  10.057  64.268  1.00  0.00    -0.183 OA 
ENDROOT
BRANCH   2   3
HETATM    3  C   UNL     1      -9.088   9.141  65.232  1.00  0.00    -0.195 C  
HETATM    4  N   UNL     1      -8.142   8.165  65.188  1.00  0.00    -0.132 N  
HETATM    5  O   UNL     1     -10.055   9.155  65.981  1.00  0.00    -0.284 OA 
HETATM    6  H   UNL     1      -7.308   8.321  64.622  1.00  0.00     0.000 HD 
BRANCH   4   7
HETATM    7  C   UNL     1      -8.263   6.904  65.912  1.00  0.00    -0.129 C  
BRANCH   7   8
HETATM    8  C   UNL     1      -7.355   5.772  65.287  1.00  0.00    -0.075 C  
HETATM    9  C   UNL     1      -8.087   5.134  64.089  1.00  0.00    -0.119 C  
HETATM   10  C   UNL     1      -6.972   4.667  66.296  1.00  0.00    -0.070 C  
HETATM   11  C   UNL     1      -6.019   6.340  64.750  1.00  0.00    -0.026 C  
ENDBRANCH   7   8
BRANCH   7  12
HETATM   12  C   UNL     1      -7.936   7.203  67.407  1.00  0.00    -0.112 C  
HETATM   13  N   UNL     1      -6.622   7.514  67.709  1.00  0.00    -0.059 N  
HETATM   14  O   UNL     1      -8.770   7.092  68.302  1.00  0.00    -0.128 OA 
HETATM   15  H   UNL     1      -5.908   7.421  66.987  1.00  0.00     0.000 HD 
BRANCH  13  16
HETATM   16  C   UNL     1      -6.228   7.983  69.068  1.00  0.00    -0.039 C  
BRANCH  16  17
HETATM   17  C   UNL     1      -7.513   8.222  69.918  1.00  0.00    -0.065 C  
HETATM   18  H   UNL     1      -8.000   7.903  71.766  1.00  0.00     0.000 HD 
HETATM   19  O   UNL     1      -7.218   7.757  71.247  1.00  0.00    -0.059 OA 
BRANCH  17  20
HETATM   20  C   UNL     1      -7.946   9.712  69.957  1.00  0.00    -0.172 C  
BRANCH  20  21
HETATM   21  N   UNL     1      -9.411   9.991  69.991  1.00  0.00    -0.186 NA 
BRANCH  21  22
HETATM   22  N   UNL     1      -9.741  11.320  69.553  1.00  0.00    -0.313 N  
HETATM   23  C   UNL     1     -10.996  11.637  69.052  1.00  0.00    -0.233 C  
HETATM   24  H   UNL     1      -9.032  12.051  69.611  1.00  0.00     0.000 HD 
HETATM   25  O   UNL     1     -11.852  10.791  68.814  1.00  0.00    -0.359 OA 
BRANCH  23  26
HETATM   26  C   UNL     1     -11.170  13.148  68.734  1.00  0.00    -0.281 C  
BRANCH  26  27
HETATM   27  N   UNL     1     -11.718  13.283  67.385  1.00  0.00    -0.355 N  
HETATM   28  O   UNL     1      -9.842  12.656  66.242  1.00  0.00    -0.252 OA 
HETATM   29  C   UNL     1     -11.010  13.014  66.258  1.00  0.00    -0.284 C  
HETATM   30  H   UNL     1     -12.684  13.595  67.286  1.00  0.00     0.000 HD 
BRANCH  29  31
HETATM   31  O   UNL     1     -11.805  13.191  65.177  1.00  0.00    -0.326 OA 
HETATM   32  C   UNL     1     -11.754  14.499  64.600  1.00  0.00    -0.431 C  
ENDBRANCH  29  31
ENDBRANCH  26  27
BRANCH  26  33
HETATM   33  C   UNL     1     -12.023  13.914  69.796  1.00  0.00    -0.398 C  
HETATM   34  C   UNL     1     -11.244  15.018  70.541  1.00  0.00    -0.286 C  
HETATM   35  C   UNL     1     -13.249  14.541  69.100  1.00  0.00     1.898 C  
HETATM   36  C   UNL     1     -12.543  12.925  70.863  1.00  0.00    -0.355 C  
ENDBRANCH  26  33
ENDBRANCH  23  26
ENDBRANCH  21  22
BRANCH  21  37
HETATM   37  C   UNL     1     -10.060   9.709  71.290  1.00  0.00     0.044 C  
BRANCH  37  38
HETATM   38  C   UNL     1     -10.166   8.255  71.723  1.00  0.00    -0.297 A  
HETATM   39  C   UNL     1     -10.613   7.227  70.885  1.00  0.00    -0.234 A  
HETATM   40  C   UNL     1     -10.677   5.909  71.312  1.00  0.00    -0.325 A  
HETATM   41  C   UNL     1      -9.766   7.905  73.018  1.00  0.00    -0.349 A  
HETATM   42  C   UNL     1     -10.256   5.546  72.591  1.00  0.00    -0.222 A  
HETATM   43  C   UNL     1      -9.804   6.569  73.441  1.00  0.00    -0.200 A  
BRANCH  42  44
HETATM   44  C   UNL     1     -10.285   4.130  72.975  1.00  0.00    -0.161 A  
HETATM   45  C   UNL     1      -9.188   3.289  72.825  1.00  0.00    -0.125 A  
HETATM   46  C   UNL     1      -9.321   1.946  73.163  1.00  0.00    -0.094 A  
HETATM   47  C   UNL     1     -10.542   1.476  73.631  1.00  0.00    -0.186 A  
HETATM   48  C   UNL     1     -11.589   2.372  73.739  1.00  0.00    -0.055 A  
HETATM   49  N   UNL     1     -11.486   3.676  73.423  1.00  0.00    -0.130 NA 
ENDBRANCH  42  44
ENDBRANCH  37  38
ENDBRANCH  21  37
ENDBRANCH  20  21
ENDBRANCH  17  20
ENDBRANCH  16  17
BRANCH  16  50
HETATM   50  C   UNL     1      -5.203   9.149  69.019  1.00  0.00    -0.037 C  
BRANCH  50  51
HETATM   51  C   UNL     1      -5.786  10.451  68.529  1.00  0.00    -0.040 A  
HETATM   52  C   UNL     1      -6.603  10.500  67.392  1.00  0.00    -0.067 A  
HETATM   53  C   UNL     1      -6.560  12.905  67.427  1.00  0.00    -0.132 A  
HETATM   54  C   UNL     1      -5.460  11.649  69.175  1.00  0.00    -0.047 A  
HETATM   55  C   UNL     1      -6.953  11.718  66.820  1.00  0.00    -0.047 A  
HETATM   56  C   UNL     1      -5.847  12.872  68.624  1.00  0.00    -0.069 A  
ENDBRANCH  50  51
ENDBRANCH  16  50
ENDBRANCH  13  16
ENDBRANCH   7  12
ENDBRANCH   4   7
ENDBRANCH   2   3
TORSDOF 18
ENDMDL
MODEL       57
REMARK 921   NORMALIZED FREE ENERGY PREDICTED BY IDOCK:   -0.19 KCAL/MOL
REMARK 922        TOTAL FREE ENERGY PREDICTED BY IDOCK:   -5.12 KCAL/MOL
REMARK 923 INTER-LIGAND FREE ENERGY PREDICTED BY IDOCK:   -7.56 KCAL/MOL
REMARK 924 INTRA-LIGAND FREE ENERGY PREDICTED BY IDOCK:    2.44 KCAL/MOL
REMARK 927      BINDING AFFINITY PREDICTED BY RF-SCORE:    0.00 PKD
ROOT
HETATM    1  C   UNL     1     -14.325   7.873  72.508  1.00  0.00     0.039 C  
HETATM    2  O   UNL     1     -14.055   8.782  71.436  1.00  0.00    -0.371 OA 
ENDROOT
BRANCH   2   3
HETATM    3  C   UNL     1     -12.763   9.183  71.320  1.00  0.00    -0.278 C  
HETATM    4  N   UNL     1     -12.090   8.283  70.554  1.00  0.00    -0.479 N  
HETATM    5  O   UNL     1     -12.267  10.160  71.863  1.00  0.00    -0.332 OA 
HETATM    6  H   UNL     1     -12.627   7.585  70.040  1.00  0.00     0.000 HD 
BRANCH   4   7
HETATM    7  C   UNL     1     -10.637   8.270  70.432  1.00  0.00    -0.224 C  
BRANCH   7   8
HETATM    8  C   UNL     1     -10.119   6.999  69.650  1.00  0.00    -0.194 C  
HETATM    9  C   UNL     1     -10.255   7.243  68.133  1.00  0.00    -0.222 C  
HETATM   10  C   UNL     1     -10.867   5.701  70.024  1.00  0.00    -0.366 C  
HETATM   11  C   UNL     1      -8.622   6.724  69.930  1.00  0.00    -0.141 C  
ENDBRANCH   7   8
BRANCH   7  12
HETATM   12  C   UNL     1     -10.222   9.617  69.764  1.00  0.00    -0.237 C  
HETATM   13  N   UNL     1      -9.031   9.626  69.062  1.00  0.00    -0.141 N  
HETATM   14  O   UNL     1     -10.865  10.653  69.910  1.00  0.00    -0.267 OA 
HETATM   15  H   UNL     1      -8.419   8.810  69.106  1.00  0.00     0.000 HD 
BRANCH  13  16
HETATM   16  C   UNL     1      -8.620  10.801  68.244  1.00  0.00    -0.135 C  
BRANCH  16  17
HETATM   17  C   UNL     1      -7.507  11.587  69.001  1.00  0.00    -0.073 C  
HETATM   18  H   UNL     1      -6.792  11.539  70.801  1.00  0.00     0.000 HD 
HETATM   19  O   UNL     1      -7.470  11.060  70.340  1.00  0.00     0.303 OA 
BRANCH  17  20
HETATM   20  C   UNL     1      -6.110  11.453  68.336  1.00  0.00    -0.045 C  
BRANCH  20  21
HETATM   21  N   UNL     1      -5.864  12.267  67.110  1.00  0.00    -0.235 NA 
BRANCH  21  22
HETATM   22  N   UNL     1      -6.507  13.552  67.149  1.00  0.00    -0.062 N  
HETATM   23  C   UNL     1      -6.407  14.389  68.252  1.00  0.00    -0.118 C  
HETATM   24  H   UNL     1      -7.053  13.858  66.344  1.00  0.00     0.000 HD 
HETATM   25  O   UNL     1      -5.893  14.039  69.310  1.00  0.00    -0.082 OA 
BRANCH  23  26
HETATM   26  C   UNL     1      -7.091  15.768  68.044  1.00  0.00    -0.123 C  
BRANCH  26  27
HETATM   27  N   UNL     1      -6.623  16.337  66.780  1.00  0.00    -0.084 N  
HETATM   28  O   UNL     1      -5.351  18.014  67.668  1.00  0.00    -0.142 OA 
HETATM   29  C   UNL     1      -5.785  17.403  66.703  1.00  0.00    -0.197 C  
HETATM   30  H   UNL     1      -6.944  15.910  65.911  1.00  0.00     0.000 HD 
BRANCH  29  31
HETATM   31  O   UNL     1      -5.505  17.659  65.404  1.00  0.00    -0.113 OA 
HETATM   32  C   UNL     1      -6.043  18.887  64.903  1.00  0.00    -0.266 C  
ENDBRANCH  29  31
ENDBRANCH  26  27
BRANCH  26  33
HETATM   33  C   UNL     1      -8.651  15.709  68.122  1.00  0.00    -0.159 C  
HETATM   34  C   UNL     1      -9.298  17.007  68.647  1.00  0.00    -0.270 C  
HETATM   35  C   UNL     1      -9.213  15.393  66.720  1.00  0.00    -0.273 C  
HETATM   36  C   UNL     1      -9.085  14.568  69.068  1.00  0.00    -0.053 C  
ENDBRANCH  26  33
ENDBRANCH  23  26
ENDBRANCH  21  22
BRANCH  21  37
HETATM   37  C   UNL     1      -6.184  11.578  65.841  1.00  0.00     0.491 C  
BRANCH  37  38
HETATM   38  C   UNL     1      -6.005  10.068  65.795  1.00  0.00    -0.077 A  
HETATM   39  C   UNL     1      -6.337   9.215  66.854  1.00  0.00    -0.063 A  
HETATM   40  C   UNL     1      -6.177   7.840  66.766  1.00  0.00    -0.049 A  
HETATM   41  C   UNL     1      -5.515   9.481  64.622  1.00  0.00    -0.060 A  
HETATM   42  C   UNL     1      -5.714   7.244  65.594  1.00  0.00    -0.036 A  
HETATM   43  C   UNL     1      -5.380   8.090  64.522  1.00  0.00    -0.036 A  
BRANCH  42  44
HETATM   44  C   UNL     1      -5.621   5.781  65.528  1.00  0.00    -0.013 A  
HETATM   45  C   UNL     1      -5.902   5.061  64.372  1.00  0.00    -0.017 A  
HETATM   46  C   UNL     1      -5.842   3.672  64.415  1.00  0.00    -0.014 A  
HETATM   47  C   UNL     1      -5.515   3.038  65.607  1.00  0.00    -0.017 A  
HETATM   48  C   UNL     1      -5.262   3.823  66.716  1.00  0.00    -0.012 A  
HETATM   49  N   UNL     1      -5.309   5.167  66.701  1.00  0.00    -0.008 NA 
ENDBRANCH  42  44
ENDBRANCH  37  38
ENDBRANCH  21  37
ENDBRANCH  20  21
ENDBRANCH  17  20
ENDBRANCH  16  17
BRANCH  16  50
HETATM   50  C   UNL     1      -9.835  11.630  67.744  1.00  0.00    -0.186 C  
BRANCH  50  51
HETATM   51  C   UNL     1     -10.182  11.387  66.296  1.00  0.00    -0.274 A  
HETATM   52  C   UNL     1      -9.461  10.471  65.519  1.00  0.00    -0.265 A  
HETATM   53  C   UNL     1     -10.600  11.214  63.534  1.00  0.00    -0.393 A  
HETATM   54  C   UNL     1     -11.200  12.132  65.688  1.00  0.00    -0.381 A  
HETATM   55  C   UNL     1      -9.638  10.414  64.141  1.00  0.00    -0.381 A  
HETATM   56  C   UNL     1     -11.407  12.043  64.311  1.00  0.00    -0.433 A  
ENDBRANCH  50  51
ENDBRANCH  16  50
ENDBRANCH  13  16
ENDBRANCH   7  12
ENDBRANCH   4   7
ENDBRANCH   2   3
TORSDOF 18
ENDMDL
MODEL       58
REMARK 921   NORMALIZED FREE ENERGY PREDICTED BY IDOCK:    1.45 KCAL/MOL
REMARK 922        TOTAL FREE ENERGY PREDICTED BY IDOCK:   -1.76 KCAL/MOL
REMARK 923 INTER-LIGAND FREE ENERGY PREDICTED BY IDOCK:   -5.38 KCAL/MOL
REMARK 924 INTRA-LIGAND FREE ENERGY PREDICTED BY IDOCK:    3.62 KCAL/MOL
REMARK 927      BINDING AFFINITY PREDICTED BY RF-SCORE:    0.00 PKD
ROOT
HETATM    1  C   UNL     1     -10.784  17.562  69.568  1.00  0.00     0.335 C  
HETATM    2  O   UNL     1      -9.985  16.424  69.230  1.00  0.00    -0.260 OA 
ENDROOT
BRANCH   2   3
HETATM    3  C   UNL     1     -10.301  15.274  69.878  1.00  0.00    -0.243 C  
HETATM    4  N   UNL     1     -11.532  15.411  70.442  1.00  0.00    -0.299 N  
HETATM    5  O   UNL     1      -9.577  14.295  69.990  1.00  0.00     0.765 OA 
HETATM    6  H   UNL     1     -12.103  16.210  70.172  1.00  0.00     0.000 HD 
BRANCH   4   7
HETATM    7  C   UNL     1     -12.071  14.467  71.414  1.00  0.00    -0.354 C  
BRANCH   7   8
HETATM    8  C   UNL     1     -13.417  14.986  72.060  1.00  0.00    -0.500 C  
HETATM    9  C   UNL     1     -14.117  13.819  72.786  1.00  0.00    -0.045 C  
HETATM   10  C   UNL     1     -14.391  15.605  71.034  1.00  0.00     0.287 C  
HETATM   11  C   UNL     1     -13.158  16.085  73.118  1.00  0.00    -0.631 C  
ENDBRANCH   7   8
BRANCH   7  12
HETATM   12  C   UNL     1     -12.226  13.097  70.684  1.00  0.00    -0.321 C  
HETATM   13  N   UNL     1     -11.496  12.036  71.186  1.00  0.00     0.798 N  
HETATM   14  O   UNL     1     -12.893  12.965  69.661  1.00  0.00     0.397 OA 
HETATM   15  H   UNL     1     -10.807  12.206  71.918  1.00  0.00     0.000 HD 
BRANCH  13  16
HETATM   16  C   UNL     1     -11.694  10.648  70.679  1.00  0.00    -0.356 C  
BRANCH  16  17
HETATM   17  C   UNL     1     -11.254  10.583  69.184  1.00  0.00    -0.256 C  
HETATM   18  H   UNL     1     -11.871  11.414  67.547  1.00  0.00     0.000 HD 
HETATM   19  O   UNL     1     -12.139  11.454  68.457  1.00  0.00    -0.550 OA 
BRANCH  17  20
HETATM   20  C   UNL     1      -9.779  11.018  68.967  1.00  0.00    -0.134 C  
BRANCH  20  21
HETATM   21  N   UNL     1      -9.304  11.121  67.556  1.00  0.00    -0.166 NA 
BRANCH  21  22
HETATM   22  N   UNL     1     -10.154  11.941  66.736  1.00  0.00    -0.200 N  
HETATM   23  C   UNL     1     -11.118  11.393  65.902  1.00  0.00    -0.162 C  
HETATM   24  H   UNL     1     -10.044  12.954  66.767  1.00  0.00     0.000 HD 
HETATM   25  O   UNL     1     -11.217  10.187  65.698  1.00  0.00     0.637 OA 
BRANCH  23  26
HETATM   26  C   UNL     1     -11.990  12.459  65.184  1.00  0.00    -0.400 C  
BRANCH  26  27
HETATM   27  N   UNL     1     -11.775  13.754  65.831  1.00  0.00    -0.338 N  
HETATM   28  O   UNL     1      -9.543  13.939  65.378  1.00  0.00    -0.108 OA 
HETATM   29  C   UNL     1     -10.573  14.385  65.861  1.00  0.00    -0.307 C  
HETATM   30  H   UNL     1     -12.570  14.205  66.283  1.00  0.00     0.000 HD 
BRANCH  29  31
HETATM   31  O   UNL     1     -10.709  15.576  66.490  1.00  0.00    -0.306 OA 
HETATM   32  C   UNL     1     -10.189  16.698  65.772  1.00  0.00    -0.307 C  
ENDBRANCH  29  31
ENDBRANCH  26  27
BRANCH  26  33
HETATM   33  C   UNL     1     -11.751  12.525  63.640  1.00  0.00    -0.594 C  
HETATM   34  C   UNL     1     -11.967  13.928  63.036  1.00  0.00     0.805 C  
HETATM   35  C   UNL     1     -10.313  12.056  63.334  1.00  0.00    -0.468 C  
HETATM   36  C   UNL     1     -12.722  11.563  62.919  1.00  0.00     0.593 C  
ENDBRANCH  26  33
ENDBRANCH  23  26
ENDBRANCH  21  22
BRANCH  21  37
HETATM   37  C   UNL     1      -9.060   9.821  66.894  1.00  0.00    -0.142 C  
BRANCH  37  38
HETATM   38  C   UNL     1      -8.572   8.670  67.760  1.00  0.00    -0.136 A  
HETATM   39  C   UNL     1      -7.233   8.491  68.129  1.00  0.00    -0.087 A  
HETATM   40  C   UNL     1      -6.830   7.438  68.937  1.00  0.00    -0.072 A  
HETATM   41  C   UNL     1      -9.505   7.750  68.251  1.00  0.00    -0.150 A  
HETATM   42  C   UNL     1      -7.756   6.532  69.452  1.00  0.00    -0.101 A  
HETATM   43  C   UNL     1      -9.103   6.702  69.090  1.00  0.00    -0.137 A  
BRANCH  42  44
HETATM   44  C   UNL     1      -7.289   5.472  70.353  1.00  0.00    -0.071 A  
HETATM   45  C   UNL     1      -7.864   5.235  71.596  1.00  0.00    -0.110 A  
HETATM   46  C   UNL     1      -7.321   4.245  72.409  1.00  0.00    -0.068 A  
HETATM   47  C   UNL     1      -6.217   3.526  71.967  1.00  0.00    -0.014 A  
HETATM   48  C   UNL     1      -5.695   3.830  70.724  1.00  0.00    -0.013 A  
HETATM   49  N   UNL     1      -6.202   4.778  69.917  1.00  0.00    -0.025 NA 
ENDBRANCH  42  44
ENDBRANCH  37  38
ENDBRANCH  21  37
ENDBRANCH  20  21
ENDBRANCH  17  20
ENDBRANCH  16  17
BRANCH  16  50
HETATM   50  C   UNL     1     -13.105  10.091  71.010  1.00  0.00    -0.435 C  
BRANCH  50  51
HETATM   51  C   UNL     1     -13.090   8.690  71.569  1.00  0.00    -0.339 A  
HETATM   52  C   UNL     1     -11.897   7.962  71.672  1.00  0.00    -0.325 A  
HETATM   53  C   UNL     1     -13.126   5.980  72.264  1.00  0.00     0.525 A  
HETATM   54  C   UNL     1     -14.291   8.071  71.935  1.00  0.00    -0.559 A  
HETATM   55  C   UNL     1     -11.918   6.605  71.977  1.00  0.00    -0.361 A  
HETATM   56  C   UNL     1     -14.306   6.720  72.282  1.00  0.00    -0.069 A  
ENDBRANCH  50  51
ENDBRANCH  16  50
ENDBRANCH  13  16
ENDBRANCH   7  12
ENDBRANCH   4   7
ENDBRANCH   2   3
TORSDOF 18
ENDMDL
MODEL       59
REMARK 921   NORMALIZED FREE ENERGY PREDICTED BY IDOCK:    1.87 KCAL/MOL
REMARK 922        TOTAL FREE ENERGY PREDICTED BY IDOCK:   -0.91 KCAL/MOL
REMARK 923 INTER-LIGAND FREE ENERGY PREDICTED BY IDOCK:   -5.32 KCAL/MOL
REMARK 924 INTRA-LIGAND FREE ENERGY PREDICTED BY IDOCK:    4.41 KCAL/MOL
REMARK 927      BINDING AFFINITY PREDICTED BY RF-SCORE:    0.00 PKD
ROOT
HETATM    1  C   UNL     1     -13.136  13.347  65.646  1.00  0.00     0.154 C  
HETATM    2  O   UNL     1     -11.893  13.201  66.339  1.00  0.00    -0.363 OA 
ENDROOT
BRANCH   2   3
HETATM    3  C   UNL     1     -11.710  12.012  66.967  1.00  0.00    -0.267 C  
HETATM    4  N   UNL     1     -11.472  12.242  68.286  1.00  0.00    -0.291 N  
HETATM    5  O   UNL     1     -11.700  10.913  66.429  1.00  0.00     0.053 OA 
HETATM    6  H   UNL     1     -11.640  13.179  68.653  1.00  0.00     0.000 HD 
BRANCH   4   7
HETATM    7  C   UNL     1     -10.988  11.214  69.201  1.00  0.00    -0.242 C  
BRANCH   7   8
HETATM    8  C   UNL     1     -12.033  10.897  70.342  1.00  0.00    -0.453 C  
HETATM    9  C   UNL     1     -12.288  12.173  71.170  1.00  0.00    -0.265 C  
HETATM   10  C   UNL     1     -11.584   9.760  71.286  1.00  0.00    -0.465 C  
HETATM   11  C   UNL     1     -13.398  10.454  69.763  1.00  0.00     1.007 C  
ENDBRANCH   7   8
BRANCH   7  12
HETATM   12  C   UNL     1     -10.623   9.969  68.335  1.00  0.00    -0.220 C  
HETATM   13  N   UNL     1      -9.278   9.731  68.120  1.00  0.00    -0.129 N  
HETATM   14  O   UNL     1     -11.473   9.268  67.793  1.00  0.00     0.395 OA 
HETATM   15  H   UNL     1      -8.593  10.425  68.420  1.00  0.00     0.000 HD 
BRANCH  13  16
HETATM   16  C   UNL     1      -8.807   8.482  67.456  1.00  0.00    -0.135 C  
BRANCH  16  17
HETATM   17  C   UNL     1      -7.477   8.778  66.697  1.00  0.00    -0.085 C  
HETATM   18  H   UNL     1      -6.919  10.097  65.393  1.00  0.00     0.000 HD 
HETATM   19  O   UNL     1      -7.729   9.917  65.856  1.00  0.00    -0.103 OA 
BRANCH  17  20
HETATM   20  C   UNL     1      -6.287   9.070  67.651  1.00  0.00    -0.056 C  
BRANCH  20  21
HETATM   21  N   UNL     1      -6.412  10.258  68.544  1.00  0.00    -0.052 NA 
BRANCH  21  22
HETATM   22  N   UNL     1      -6.911   9.928  69.851  1.00  0.00    -0.088 N  
HETATM   23  C   UNL     1      -6.591   8.732  70.478  1.00  0.00    -0.042 C  
HETATM   24  H   UNL     1      -7.519  10.591  70.332  1.00  0.00     0.000 HD 
HETATM   25  O   UNL     1      -5.988   7.823  69.915  1.00  0.00    -0.023 OA 
BRANCH  23  26
HETATM   26  C   UNL     1      -7.151   8.623  71.923  1.00  0.00    -0.068 C  
BRANCH  26  27
HETATM   27  N   UNL     1      -7.977   7.419  72.017  1.00  0.00    -0.092 N  
HETATM   28  O   UNL     1      -9.173   7.736  70.096  1.00  0.00    -0.153 OA 
HETATM   29  C   UNL     1      -8.907   7.075  71.089  1.00  0.00    -0.141 C  
HETATM   30  H   UNL     1      -7.846   6.806  72.821  1.00  0.00     0.000 HD 
BRANCH  29  31
HETATM   31  O   UNL     1      -9.467   5.893  71.435  1.00  0.00    -0.149 OA 
HETATM   32  C   UNL     1     -10.896   5.859  71.361  1.00  0.00    -0.271 C  
ENDBRANCH  29  31
ENDBRANCH  26  27
BRANCH  26  33
HETATM   33  C   UNL     1      -6.045   8.666  73.027  1.00  0.00    -0.086 C  
HETATM   34  C   UNL     1      -5.161   7.403  73.072  1.00  0.00    -0.037 C  
HETATM   35  C   UNL     1      -5.151   9.903  72.795  1.00  0.00    -0.012 C  
HETATM   36  C   UNL     1      -6.699   8.815  74.419  1.00  0.00    -0.104 C  
ENDBRANCH  26  33
ENDBRANCH  23  26
ENDBRANCH  21  22
BRANCH  21  37
HETATM   37  C   UNL     1      -7.189  11.378  67.972  1.00  0.00    -0.084 C  
BRANCH  37  38
HETATM   38  C   UNL     1      -6.797  12.789  68.383  1.00  0.00    -0.091 A  
HETATM   39  C   UNL     1      -5.474  13.249  68.414  1.00  0.00    -0.086 A  
HETATM   40  C   UNL     1      -5.159  14.550  68.776  1.00  0.00    -0.089 A  
HETATM   41  C   UNL     1      -7.805  13.701  68.718  1.00  0.00    -0.043 A  
HETATM   42  C   UNL     1      -6.158  15.472  69.087  1.00  0.00    -0.110 A  
HETATM   43  C   UNL     1      -7.489  15.024  69.056  1.00  0.00    -0.156 A  
BRANCH  42  44
HETATM   44  C   UNL     1      -5.778  16.854  69.403  1.00  0.00    -0.176 A  
HETATM   45  C   UNL     1      -5.731  17.342  70.704  1.00  0.00     0.048 A  
HETATM   46  C   UNL     1      -5.414  18.681  70.908  1.00  0.00    -0.199 A  
HETATM   47  C   UNL     1      -5.163  19.498  69.813  1.00  0.00    -0.221 A  
HETATM   48  C   UNL     1      -5.242  18.942  68.551  1.00  0.00    -0.192 A  
HETATM   49  N   UNL     1      -5.541  17.650  68.326  1.00  0.00    -0.151 NA 
ENDBRANCH  42  44
ENDBRANCH  37  38
ENDBRANCH  21  37
ENDBRANCH  20  21
ENDBRANCH  17  20
ENDBRANCH  16  17
BRANCH  16  50
HETATM   50  C   UNL     1      -9.929   7.784  66.641  1.00  0.00    -0.299 C  
BRANCH  50  51
HETATM   51  C   UNL     1      -9.650   6.331  66.344  1.00  0.00    -0.159 A  
HETATM   52  C   UNL     1      -8.849   5.952  65.259  1.00  0.00    -0.029 A  
HETATM   53  C   UNL     1      -9.440   3.644  65.593  1.00  0.00    -0.156 A  
HETATM   54  C   UNL     1     -10.250   5.332  67.121  1.00  0.00    -0.264 A  
HETATM   55  C   UNL     1      -8.778   4.622  64.860  1.00  0.00    -0.145 A  
HETATM   56  C   UNL     1     -10.143   3.993  66.745  1.00  0.00     0.065 A  
ENDBRANCH  50  51
ENDBRANCH  16  50
ENDBRANCH  13  16
ENDBRANCH   7  12
ENDBRANCH   4   7
ENDBRANCH   2   3
TORSDOF 18
ENDMDL
MODEL       60
REMARK 921   NORMALIZED FREE ENERGY PREDICTED BY IDOCK:    1.90 KCAL/MOL
REMARK 922        TOTAL FREE ENERGY PREDICTED BY IDOCK:   -0.83 KCAL/MOL
REMARK 923 INTER-LIGAND FREE ENERGY PREDICTED BY IDOCK:   -7.06 KCAL/MOL
REMARK 924 INTRA-LIGAND FREE ENERGY PREDICTED BY IDOCK:    6.23 KCAL/MOL
REMARK 927      BINDING AFFINITY PREDICTED BY RF-SCORE:    0.00 PKD
ROOT
HETATM    1  C   UNL     1     -11.079   7.268  67.892  1.00  0.00     0.069 C  
HETATM    2  O   UNL     1     -10.552   6.980  66.593  1.00  0.00    -0.239 OA 
ENDROOT
BRANCH   2   3
HETATM    3  C   UNL     1      -9.213   7.153  66.454  1.00  0.00    -0.157 C  
HETATM    4  N   UNL     1      -8.988   8.262  65.699  1.00  0.00    -0.331 N  
HETATM    5  O   UNL     1      -8.347   6.405  66.886  1.00  0.00    -0.109 OA 
HETATM    6  H   UNL     1      -9.771   8.887  65.509  1.00  0.00     0.000 HD 
BRANCH   4   7
HETATM    7  C   UNL     1      -7.681   8.599  65.148  1.00  0.00    -0.101 C  
BRANCH   7   8
HETATM    8  C   UNL     1      -7.771   9.040  63.633  1.00  0.00    -0.122 C  
HETATM    9  C   UNL     1      -6.379   9.495  63.150  1.00  0.00    -0.102 C  
HETATM   10  C   UNL     1      -8.791  10.172  63.384  1.00  0.00    -0.240 C  
HETATM   11  C   UNL     1      -8.205   7.868  62.720  1.00  0.00    -0.089 C  
ENDBRANCH   7   8
BRANCH   7  12
HETATM   12  C   UNL     1      -7.064   9.694  66.072  1.00  0.00    -0.097 C  
HETATM   13  N   UNL     1      -6.352   9.253  67.173  1.00  0.00    -0.062 N  
HETATM   14  O   UNL     1      -7.258  10.894  65.897  1.00  0.00    -0.123 OA 
HETATM   15  H   UNL     1      -6.356   8.260  67.406  1.00  0.00     0.000 HD 
BRANCH  13  16
HETATM   16  C   UNL     1      -5.577  10.198  68.026  1.00  0.00    -0.038 C  
BRANCH  16  17
HETATM   17  C   UNL     1      -6.147  10.160  69.477  1.00  0.00    -0.043 C  
HETATM   18  H   UNL     1      -5.578  10.884  71.182  1.00  0.00     0.000 HD 
HETATM   19  O   UNL     1      -5.231  10.907  70.297  1.00  0.00    -0.052 OA 
BRANCH  17  20
HETATM   20  C   UNL     1      -7.574  10.762  69.584  1.00  0.00    -0.042 C  
BRANCH  20  21
HETATM   21  N   UNL     1      -8.616  10.199  68.677  1.00  0.00    -0.118 NA 
BRANCH  21  22
HETATM   22  N   UNL     1      -9.449  11.208  68.084  1.00  0.00    -0.173 N  
HETATM   23  C   UNL     1     -10.774  11.379  68.460  1.00  0.00    -0.201 C  
HETATM   24  H   UNL     1      -9.057  11.816  67.365  1.00  0.00     0.000 HD 
HETATM   25  O   UNL     1     -11.361  10.603  69.208  1.00  0.00    -0.244 OA 
BRANCH  23  26
HETATM   26  C   UNL     1     -11.460  12.590  67.769  1.00  0.00    -0.321 C  
BRANCH  26  27
HETATM   27  N   UNL     1     -11.118  13.806  68.506  1.00  0.00    -0.255 N  
HETATM   28  O   UNL     1     -12.109  13.238  70.484  1.00  0.00    -0.352 OA 
HETATM   29  C   UNL     1     -11.462  14.019  69.802  1.00  0.00    -0.230 C  
HETATM   30  H   UNL     1     -10.592  14.533  68.020  1.00  0.00     0.000 HD 
BRANCH  29  31
HETATM   31  O   UNL     1     -10.964  15.210  70.208  1.00  0.00    -0.261 OA 
HETATM   32  C   UNL     1     -11.936  16.251  70.353  1.00  0.00     0.092 C  
ENDBRANCH  29  31
ENDBRANCH  26  27
BRANCH  26  33
HETATM   33  C   UNL     1     -11.127  12.710  66.247  1.00  0.00    -0.330 C  
HETATM   34  C   UNL     1      -9.914  13.613  65.944  1.00  0.00    -0.304 C  
HETATM   35  C   UNL     1     -10.866  11.300  65.676  1.00  0.00    -0.242 C  
HETATM   36  C   UNL     1     -12.337  13.304  65.491  1.00  0.00    -0.533 C  
ENDBRANCH  26  33
ENDBRANCH  23  26
ENDBRANCH  21  22
BRANCH  21  37
HETATM   37  C   UNL     1      -9.453   9.141  69.285  1.00  0.00    -0.158 C  
BRANCH  37  38
HETATM   38  C   UNL     1      -8.740   7.985  69.968  1.00  0.00    -0.135 A  
HETATM   39  C   UNL     1      -8.645   7.845  71.358  1.00  0.00    -0.141 A  
HETATM   40  C   UNL     1      -8.002   6.764  71.943  1.00  0.00    -0.101 A  
HETATM   41  C   UNL     1      -8.173   6.978  69.178  1.00  0.00    -0.122 A  
HETATM   42  C   UNL     1      -7.457   5.744  71.165  1.00  0.00    -0.091 A  
HETATM   43  C   UNL     1      -7.548   5.871  69.769  1.00  0.00    -0.081 A  
BRANCH  42  44
HETATM   44  C   UNL     1      -6.842   4.591  71.833  1.00  0.00    -0.042 A  
HETATM   45  C   UNL     1      -5.774   4.713  72.714  1.00  0.00    -0.008 A  
HETATM   46  C   UNL     1      -5.217   3.561  73.259  1.00  0.00     0.000 A  
HETATM   47  C   UNL     1      -5.731   2.320  72.904  1.00  0.00    -0.004 A  
HETATM   48  C   UNL     1      -6.785   2.280  72.011  1.00  0.00    -0.015 A  
HETATM   49  N   UNL     1      -7.345   3.378  71.474  1.00  0.00    -0.042 NA 
ENDBRANCH  42  44
ENDBRANCH  37  38
ENDBRANCH  21  37
ENDBRANCH  20  21
ENDBRANCH  17  20
ENDBRANCH  16  17
BRANCH  16  50
HETATM   50  C   UNL     1      -5.431  11.601  67.376  1.00  0.00    -0.080 C  
BRANCH  50  51
HETATM   51  C   UNL     1      -5.973  12.724  68.225  1.00  0.00    -0.075 A  
HETATM   52  C   UNL     1      -7.190  13.347  67.916  1.00  0.00    -0.133 A  
HETATM   53  C   UNL     1      -6.785  15.031  69.586  1.00  0.00    -0.177 A  
HETATM   54  C   UNL     1      -5.226  13.205  69.307  1.00  0.00    -0.074 A  
HETATM   55  C   UNL     1      -7.573  14.516  68.563  1.00  0.00    -0.123 A  
HETATM   56  C   UNL     1      -5.633  14.355  69.984  1.00  0.00    -0.112 A  
ENDBRANCH  50  51
ENDBRANCH  16  50
ENDBRANCH  13  16
ENDBRANCH   7  12
ENDBRANCH   4   7
ENDBRANCH   2   3
TORSDOF 18
ENDMDL
MODEL       61
REMARK 921   NORMALIZED FREE ENERGY PREDICTED BY IDOCK:    1.91 KCAL/MOL
REMARK 922        TOTAL FREE ENERGY PREDICTED BY IDOCK:   -0.81 KCAL/MOL
REMARK 923 INTER-LIGAND FREE ENERGY PREDICTED BY IDOCK:   -4.11 KCAL/MOL
REMARK 924 INTRA-LIGAND FREE ENERGY PREDICTED BY IDOCK:    3.30 KCAL/MOL
REMARK 927      BINDING AFFINITY PREDICTED BY RF-SCORE:    0.00 PKD
ROOT
HETATM    1  C   UNL     1     -11.768   5.836  67.024  1.00  0.00     1.819 C  
HETATM    2  O   UNL     1     -11.097   7.096  66.929  1.00  0.00    -0.327 OA 
ENDROOT
BRANCH   2   3
HETATM    3  C   UNL     1     -10.222   7.370  67.930  1.00  0.00    -0.194 C  
HETATM    4  N   UNL     1     -10.766   8.315  68.744  1.00  0.00    -0.407 N  
HETATM    5  O   UNL     1      -9.103   6.891  68.051  1.00  0.00    -0.122 OA 
HETATM    6  H   UNL     1     -11.754   8.542  68.632  1.00  0.00     0.000 HD 
BRANCH   4   7
HETATM    7  C   UNL     1     -10.003   9.018  69.768  1.00  0.00    -0.196 C  
BRANCH   7   8
HETATM    8  C   UNL     1      -9.272   8.022  70.753  1.00  0.00    -0.165 C  
HETATM    9  C   UNL     1     -10.063   6.700  70.821  1.00  0.00    -0.205 C  
HETATM   10  C   UNL     1      -9.101   8.586  72.180  1.00  0.00    -0.319 C  
HETATM   11  C   UNL     1      -7.847   7.671  70.260  1.00  0.00    -0.092 C  
ENDBRANCH   7   8
BRANCH   7  12
HETATM   12  C   UNL     1      -9.024   9.982  69.027  1.00  0.00    -0.163 C  
HETATM   13  N   UNL     1      -8.205  10.768  69.816  1.00  0.00    -0.336 N  
HETATM   14  O   UNL     1      -9.024  10.112  67.806  1.00  0.00    -0.128 OA 
HETATM   15  H   UNL     1      -8.348  10.783  70.826  1.00  0.00     0.000 HD 
BRANCH  13  16
HETATM   16  C   UNL     1      -7.117  11.596  69.222  1.00  0.00    -0.055 C  
BRANCH  16  17
HETATM   17  C   UNL     1      -6.142  10.668  68.435  1.00  0.00    -0.046 C  
HETATM   18  H   UNL     1      -6.278   8.899  67.656  1.00  0.00     0.000 HD 
HETATM   19  O   UNL     1      -6.872   9.465  68.136  1.00  0.00    -0.063 OA 
BRANCH  17  20
HETATM   20  C   UNL     1      -5.617  11.314  67.124  1.00  0.00    -0.075 C  
BRANCH  20  21
HETATM   21  N   UNL     1      -6.632  11.913  66.211  1.00  0.00     0.229 NA 
BRANCH  21  22
HETATM   22  N   UNL     1      -7.915  12.090  66.835  1.00  0.00    -0.287 N  
HETATM   23  C   UNL     1      -8.544  13.326  66.882  1.00  0.00    -0.105 C  
HETATM   24  H   UNL     1      -8.377  11.284  67.255  1.00  0.00     0.000 HD 
HETATM   25  O   UNL     1      -7.997  14.367  66.530  1.00  0.00     0.342 OA 
BRANCH  23  26
HETATM   26  C   UNL     1      -9.965  13.272  67.509  1.00  0.00    -0.223 C  
BRANCH  26  27
HETATM   27  N   UNL     1     -10.227  14.543  68.184  1.00  0.00    -0.226 N  
HETATM   28  O   UNL     1     -11.432  13.701  69.933  1.00  0.00    -0.225 OA 
HETATM   29  C   UNL     1     -10.928  14.644  69.343  1.00  0.00    -0.257 C  
HETATM   30  H   UNL     1      -9.864  15.398  67.762  1.00  0.00     0.000 HD 
BRANCH  29  31
HETATM   31  O   UNL     1     -10.959  15.940  69.735  1.00  0.00    -0.272 OA 
HETATM   32  C   UNL     1     -11.566  16.168  71.011  1.00  0.00    -0.393 C  
ENDBRANCH  29  31
ENDBRANCH  26  27
BRANCH  26  33
HETATM   33  C   UNL     1     -11.086  12.907  66.483  1.00  0.00    -0.318 C  
HETATM   34  C   UNL     1     -12.089  14.051  66.225  1.00  0.00    -0.482 C  
HETATM   35  C   UNL     1     -10.432  12.494  65.148  1.00  0.00    -0.320 C  
HETATM   36  C   UNL     1     -11.897  11.699  67.002  1.00  0.00    -0.038 C  
ENDBRANCH  26  33
ENDBRANCH  23  26
ENDBRANCH  21  22
BRANCH  21  37
HETATM   37  C   UNL     1      -6.789  11.209  64.919  1.00  0.00     0.851 C  
BRANCH  37  38
HETATM   38  C   UNL     1      -7.009   9.705  64.960  1.00  0.00    -0.111 A  
HETATM   39  C   UNL     1      -5.981   8.776  65.162  1.00  0.00    -0.055 A  
HETATM   40  C   UNL     1      -6.227   7.412  65.212  1.00  0.00    -0.038 A  
HETATM   41  C   UNL     1      -8.311   9.208  64.823  1.00  0.00    -0.176 A  
HETATM   42  C   UNL     1      -7.522   6.909  65.102  1.00  0.00    -0.094 A  
HETATM   43  C   UNL     1      -8.563   7.832  64.901  1.00  0.00     0.063 A  
BRANCH  42  44
HETATM   44  C   UNL     1      -7.738   5.463  65.224  1.00  0.00    -0.089 A  
HETATM   45  C   UNL     1      -6.750   4.590  65.667  1.00  0.00    -0.052 A  
HETATM   46  C   UNL     1      -7.023   3.226  65.698  1.00  0.00    -0.057 A  
HETATM   47  C   UNL     1      -8.266   2.768  65.278  1.00  0.00    -0.091 A  
HETATM   48  C   UNL     1      -9.190   3.697  64.839  1.00  0.00    -0.147 A  
HETATM   49  N   UNL     1      -8.953   5.021  64.803  1.00  0.00    -0.132 NA 
ENDBRANCH  42  44
ENDBRANCH  37  38
ENDBRANCH  21  37
ENDBRANCH  20  21
ENDBRANCH  17  20
ENDBRANCH  16  17
BRANCH  16  50
HETATM   50  C   UNL     1      -6.473  12.559  70.256  1.00  0.00     0.306 C  
BRANCH  50  51
HETATM   51  C   UNL     1      -6.257  13.957  69.732  1.00  0.00    -0.136 A  
HETATM   52  C   UNL     1      -7.117  15.006  70.085  1.00  0.00     0.040 A  
HETATM   53  C   UNL     1      -6.062  16.450  68.475  1.00  0.00    -0.123 A  
HETATM   54  C   UNL     1      -5.221  14.211  68.826  1.00  0.00    -0.088 A  
HETATM   55  C   UNL     1      -7.047  16.231  69.431  1.00  0.00    -0.204 A  
HETATM   56  C   UNL     1      -5.126  15.455  68.200  1.00  0.00    -0.122 A  
ENDBRANCH  50  51
ENDBRANCH  16  50
ENDBRANCH  13  16
ENDBRANCH   7  12
ENDBRANCH   4   7
ENDBRANCH   2   3
TORSDOF 18
ENDMDL
MODEL       62
REMARK 921   NORMALIZED FREE ENERGY PREDICTED BY IDOCK:    1.95 KCAL/MOL
REMARK 922        TOTAL FREE ENERGY PREDICTED BY IDOCK:   -0.74 KCAL/MOL
REMARK 923 INTER-LIGAND FREE ENERGY PREDICTED BY IDOCK:   -3.91 KCAL/MOL
REMARK 924 INTRA-LIGAND FREE ENERGY PREDICTED BY IDOCK:    3.16 KCAL/MOL
REMARK 927      BINDING AFFINITY PREDICTED BY RF-SCORE:    0.00 PKD
ROOT
HETATM    1  C   UNL     1     -12.280  11.279  67.164  1.00  0.00     1.424 C  
HETATM    2  O   UNL     1     -11.047  10.778  67.689  1.00  0.00    -0.284 OA 
ENDROOT
BRANCH   2   3
HETATM    3  C   UNL     1     -11.063   9.478  68.081  1.00  0.00     0.006 C  
HETATM    4  N   UNL     1     -10.764   9.415  69.406  1.00  0.00    -0.227 N  
HETATM    5  O   UNL     1     -11.256   8.515  67.353  1.00  0.00     0.230 OA 
HETATM    6  H   UNL     1     -10.757  10.281  69.945  1.00  0.00     0.000 HD 
BRANCH   4   7
HETATM    7  C   UNL     1     -10.451   8.167  70.094  1.00  0.00    -0.225 C  
BRANCH   7   8
HETATM    8  C   UNL     1     -11.525   7.812  71.196  1.00  0.00    -0.295 C  
HETATM    9  C   UNL     1     -10.978   8.200  72.585  1.00  0.00    -0.440 C  
HETATM   10  C   UNL     1     -11.925   6.320  71.205  1.00  0.00    -0.178 C  
HETATM   11  C   UNL     1     -12.839   8.603  70.992  1.00  0.00    -0.001 C  
ENDBRANCH   7   8
BRANCH   7  12
HETATM   12  C   UNL     1     -10.304   7.066  68.998  1.00  0.00    -0.200 C  
HETATM   13  N   UNL     1      -9.018   6.691  68.657  1.00  0.00    -0.125 N  
HETATM   14  O   UNL     1     -11.268   6.602  68.395  1.00  0.00    -0.230 OA 
HETATM   15  H   UNL     1      -8.228   7.216  69.033  1.00  0.00     0.000 HD 
BRANCH  13  16
HETATM   16  C   UNL     1      -8.760   5.535  67.753  1.00  0.00    -0.106 C  
BRANCH  16  17
HETATM   17  C   UNL     1      -7.454   5.801  66.943  1.00  0.00    -0.084 C  
HETATM   18  H   UNL     1      -6.952   7.040  65.541  1.00  0.00     0.000 HD 
HETATM   19  O   UNL     1      -7.747   6.878  66.035  1.00  0.00    -0.090 OA 
BRANCH  17  20
HETATM   20  C   UNL     1      -6.248   6.176  67.845  1.00  0.00    -0.032 C  
BRANCH  20  21
HETATM   21  N   UNL     1      -6.340   7.459  68.600  1.00  0.00    -0.038 NA 
BRANCH  21  22
HETATM   22  N   UNL     1      -6.927   7.304  69.903  1.00  0.00    -0.056 N  
HETATM   23  C   UNL     1      -6.233   6.725  70.956  1.00  0.00    -0.040 C  
HETATM   24  H   UNL     1      -7.882   7.628  70.058  1.00  0.00     0.000 HD 
HETATM   25  O   UNL     1      -5.142   6.182  70.818  1.00  0.00    -0.012 OA 
BRANCH  23  26
HETATM   26  C   UNL     1      -7.016   6.749  72.298  1.00  0.00    -0.067 C  
BRANCH  26  27
HETATM   27  N   UNL     1      -7.275   5.371  72.715  1.00  0.00    -0.088 N  
HETATM   28  O   UNL     1      -9.058   4.981  71.341  1.00  0.00    -0.138 OA 
HETATM   29  C   UNL     1      -8.266   4.605  72.192  1.00  0.00    -0.110 C  
HETATM   30  H   UNL     1      -6.679   4.965  73.437  1.00  0.00     0.000 HD 
BRANCH  29  31
HETATM   31  O   UNL     1      -8.219   3.372  72.749  1.00  0.00    -0.078 OA 
HETATM   32  C   UNL     1      -7.184   3.189  73.720  1.00  0.00    -0.046 C  
ENDBRANCH  29  31
ENDBRANCH  26  27
BRANCH  26  33
HETATM   33  C   UNL     1      -6.309   7.580  73.418  1.00  0.00    -0.065 C  
HETATM   34  C   UNL     1      -7.253   8.540  74.172  1.00  0.00    -0.151 C  
HETATM   35  C   UNL     1      -5.657   6.612  74.428  1.00  0.00    -0.055 C  
HETATM   36  C   UNL     1      -5.183   8.440  72.800  1.00  0.00    -0.041 C  
ENDBRANCH  26  33
ENDBRANCH  23  26
ENDBRANCH  21  22
BRANCH  21  37
HETATM   37  C   UNL     1      -7.011   8.556  67.869  1.00  0.00    -0.074 C  
BRANCH  37  38
HETATM   38  C   UNL     1      -6.629   9.982  68.234  1.00  0.00    -0.055 A  
HETATM   39  C   UNL     1      -5.445  10.600  67.814  1.00  0.00    -0.043 A  
HETATM   40  C   UNL     1      -5.143  11.911  68.152  1.00  0.00    -0.046 A  
HETATM   41  C   UNL     1      -7.517  10.743  69.003  1.00  0.00    -0.118 A  
HETATM   42  C   UNL     1      -6.032  12.685  68.896  1.00  0.00    -0.074 A  
HETATM   43  C   UNL     1      -7.225  12.077  69.322  1.00  0.00     0.067 A  
BRANCH  42  44
HETATM   44  C   UNL     1      -5.695  14.085  69.176  1.00  0.00    -0.085 A  
HETATM   45  C   UNL     1      -5.526  14.575  70.466  1.00  0.00    -0.136 A  
HETATM   46  C   UNL     1      -5.262  15.930  70.641  1.00  0.00    -0.168 A  
HETATM   47  C   UNL     1      -5.183  16.760  69.530  1.00  0.00    -0.138 A  
HETATM   48  C   UNL     1      -5.376  16.200  68.281  1.00  0.00    -0.104 A  
HETATM   49  N   UNL     1      -5.628  14.894  68.084  1.00  0.00    -0.120 NA 
ENDBRANCH  42  44
ENDBRANCH  37  38
ENDBRANCH  21  37
ENDBRANCH  20  21
ENDBRANCH  17  20
ENDBRANCH  16  17
BRANCH  16  50
HETATM   50  C   UNL     1     -10.015   5.134  66.930  1.00  0.00    -0.227 C  
BRANCH  50  51
HETATM   51  C   UNL     1      -9.755   4.051  65.913  1.00  0.00    -0.193 A  
HETATM   52  C   UNL     1      -9.216   2.814  66.289  1.00  0.00    -0.086 A  
HETATM   53  C   UNL     1      -8.943   2.197  63.980  1.00  0.00    -0.101 A  
HETATM   54  C   UNL     1      -9.990   4.298  64.555  1.00  0.00    -0.118 A  
HETATM   55  C   UNL     1      -8.774   1.910  65.330  1.00  0.00    -0.116 A  
HETATM   56  C   UNL     1      -9.585   3.372  63.593  1.00  0.00    -0.127 A  
ENDBRANCH  50  51
ENDBRANCH  16  50
ENDBRANCH  13  16
ENDBRANCH   7  12
ENDBRANCH   4   7
ENDBRANCH   2   3
TORSDOF 18
ENDMDL
MODEL       63
REMARK 921   NORMALIZED FREE ENERGY PREDICTED BY IDOCK:    2.14 KCAL/MOL
REMARK 922        TOTAL FREE ENERGY PREDICTED BY IDOCK:   -0.34 KCAL/MOL
REMARK 923 INTER-LIGAND FREE ENERGY PREDICTED BY IDOCK:   -2.55 KCAL/MOL
REMARK 924 INTRA-LIGAND FREE ENERGY PREDICTED BY IDOCK:    2.21 KCAL/MOL
REMARK 927      BINDING AFFINITY PREDICTED BY RF-SCORE:    0.00 PKD
ROOT
HETATM    1  C   UNL     1     -12.759   2.280  72.765  1.00  0.00     1.600 C  
HETATM    2  O   UNL     1     -11.400   1.947  72.465  1.00  0.00     0.134 OA 
ENDROOT
BRANCH   2   3
HETATM    3  C   UNL     1     -10.620   2.981  72.061  1.00  0.00     0.367 C  
HETATM    4  N   UNL     1      -9.883   2.585  70.989  1.00  0.00    -0.073 N  
HETATM    5  O   UNL     1     -10.544   4.074  72.607  1.00  0.00    -0.172 OA 
HETATM    6  H   UNL     1     -10.124   1.706  70.532  1.00  0.00     0.000 HD 
BRANCH   4   7
HETATM    7  C   UNL     1      -8.765   3.358  70.461  1.00  0.00    -0.075 C  
BRANCH   7   8
HETATM    8  C   UNL     1      -7.440   2.502  70.374  1.00  0.00    -0.039 C  
HETATM    9  C   UNL     1      -7.408   1.746  69.030  1.00  0.00    -0.043 C  
HETATM   10  C   UNL     1      -7.287   1.490  71.531  1.00  0.00    -0.032 C  
HETATM   11  C   UNL     1      -6.176   3.394  70.420  1.00  0.00    -0.023 C  
ENDBRANCH   7   8
BRANCH   7  12
HETATM   12  C   UNL     1      -9.218   3.934  69.083  1.00  0.00    -0.156 C  
HETATM   13  N   UNL     1      -8.930   5.264  68.838  1.00  0.00    -0.102 N  
HETATM   14  O   UNL     1      -9.872   3.280  68.276  1.00  0.00    -0.038 OA 
HETATM   15  H   UNL     1      -8.552   5.841  69.589  1.00  0.00     0.000 HD 
BRANCH  13  16
HETATM   16  C   UNL     1      -9.160   5.873  67.497  1.00  0.00    -0.106 C  
BRANCH  16  17
HETATM   17  C   UNL     1      -7.933   6.760  67.121  1.00  0.00    -0.116 C  
HETATM   18  H   UNL     1      -7.713   8.507  66.316  1.00  0.00     0.000 HD 
HETATM   19  O   UNL     1      -8.460   7.967  66.544  1.00  0.00    -0.125 OA 
BRANCH  17  20
HETATM   20  C   UNL     1      -7.034   7.098  68.341  1.00  0.00    -0.076 C  
BRANCH  20  21
HETATM   21  N   UNL     1      -7.134   8.480  68.893  1.00  0.00    -0.062 NA 
BRANCH  21  22
HETATM   22  N   UNL     1      -7.033   8.522  70.326  1.00  0.00    -0.039 N  
HETATM   23  C   UNL     1      -7.653   7.578  71.133  1.00  0.00    -0.081 C  
HETATM   24  H   UNL     1      -6.490   9.266  70.763  1.00  0.00     0.000 HD 
HETATM   25  O   UNL     1      -8.438   6.741  70.698  1.00  0.00    -0.134 OA 
BRANCH  23  26
HETATM   26  C   UNL     1      -7.331   7.750  72.643  1.00  0.00    -0.086 C  
BRANCH  26  27
HETATM   27  N   UNL     1      -7.332   6.431  73.275  1.00  0.00    -0.086 N  
HETATM   28  O   UNL     1      -9.357   6.609  74.318  1.00  0.00    -0.185 OA 
HETATM   29  C   UNL     1      -8.350   5.972  74.048  1.00  0.00    -0.112 C  
HETATM   30  H   UNL     1      -6.525   5.824  73.128  1.00  0.00     0.000 HD 
BRANCH  29  31
HETATM   31  O   UNL     1      -8.074   4.708  74.447  1.00  0.00    -0.098 OA 
HETATM   32  C   UNL     1      -7.054   4.048  73.692  1.00  0.00    -0.060 C  
ENDBRANCH  29  31
ENDBRANCH  26  27
BRANCH  26  33
HETATM   33  C   UNL     1      -6.004   8.531  72.913  1.00  0.00    -0.079 C  
HETATM   34  C   UNL     1      -5.147   8.757  71.650  1.00  0.00    -0.036 C  
HETATM   35  C   UNL     1      -6.343   9.897  73.547  1.00  0.00     1.208 C  
HETATM   36  C   UNL     1      -5.132   7.750  73.921  1.00  0.00    -0.045 C  
ENDBRANCH  26  33
ENDBRANCH  23  26
ENDBRANCH  21  22
BRANCH  21  37
HETATM   37  C   UNL     1      -8.324   9.236  68.446  1.00  0.00    -0.119 C  
BRANCH  37  38
HETATM   38  C   UNL     1      -8.183  10.741  68.286  1.00  0.00    -0.124 A  
HETATM   39  C   UNL     1      -7.001  11.443  68.554  1.00  0.00    -0.080 A  
HETATM   40  C   UNL     1      -6.907  12.815  68.378  1.00  0.00    -0.091 A  
HETATM   41  C   UNL     1      -9.276  11.476  67.813  1.00  0.00    -0.165 A  
HETATM   42  C   UNL     1      -7.982  13.552  67.883  1.00  0.00    -0.162 A  
HETATM   43  C   UNL     1      -9.174  12.859  67.608  1.00  0.00    -0.193 A  
BRANCH  42  44
HETATM   44  C   UNL     1      -7.814  14.992  67.654  1.00  0.00    -0.168 A  
HETATM   45  C   UNL     1      -8.164  15.609  66.459  1.00  0.00    -0.227 A  
HETATM   46  C   UNL     1      -7.918  16.970  66.308  1.00  0.00    -0.343 A  
HETATM   47  C   UNL     1      -7.322  17.676  67.346  1.00  0.00    -0.202 A  
HETATM   48  C   UNL     1      -6.990  16.987  68.498  1.00  0.00    -0.197 A  
HETATM   49  N   UNL     1      -7.221  15.674  68.671  1.00  0.00    -0.123 NA 
ENDBRANCH  42  44
ENDBRANCH  37  38
ENDBRANCH  21  37
ENDBRANCH  20  21
ENDBRANCH  17  20
ENDBRANCH  16  17
BRANCH  16  50
HETATM   50  C   UNL     1     -10.557   6.540  67.380  1.00  0.00    -0.364 C  
BRANCH  50  51
HETATM   51  C   UNL     1     -11.057   7.136  68.672  1.00  0.00    -0.005 A  
HETATM   52  C   UNL     1     -10.650   8.410  69.090  1.00  0.00    -0.177 A  
HETATM   53  C   UNL     1     -11.700   8.075  71.229  1.00  0.00    -0.311 A  
HETATM   54  C   UNL     1     -11.892   6.387  69.510  1.00  0.00     0.112 A  
HETATM   55  C   UNL     1     -10.934   8.860  70.375  1.00  0.00    -0.275 A  
HETATM   56  C   UNL     1     -12.211   6.858  70.785  1.00  0.00    -0.364 A  
ENDBRANCH  50  51
ENDBRANCH  16  50
ENDBRANCH  13  16
ENDBRANCH   7  12
ENDBRANCH   4   7
ENDBRANCH   2   3
TORSDOF 18
ENDMDL
MODEL       64
REMARK 921   NORMALIZED FREE ENERGY PREDICTED BY IDOCK:    2.18 KCAL/MOL
REMARK 922        TOTAL FREE ENERGY PREDICTED BY IDOCK:   -0.27 KCAL/MOL
REMARK 923 INTER-LIGAND FREE ENERGY PREDICTED BY IDOCK:   -2.69 KCAL/MOL
REMARK 924 INTRA-LIGAND FREE ENERGY PREDICTED BY IDOCK:    2.42 KCAL/MOL
REMARK 927      BINDING AFFINITY PREDICTED BY RF-SCORE:    0.00 PKD
ROOT
HETATM    1  C   UNL     1     -11.904   2.893  73.149  1.00  0.00     0.374 C  
HETATM    2  O   UNL     1     -10.518   2.840  72.798  1.00  0.00    -0.158 OA 
ENDROOT
BRANCH   2   3
HETATM    3  C   UNL     1     -10.129   3.695  71.818  1.00  0.00    -0.090 C  
HETATM    4  N   UNL     1      -9.117   3.124  71.111  1.00  0.00    -0.100 N  
HETATM    5  O   UNL     1     -10.573   4.820  71.634  1.00  0.00    -0.139 OA 
HETATM    6  H   UNL     1      -8.920   2.134  71.258  1.00  0.00     0.000 HD 
BRANCH   4   7
HETATM    7  C   UNL     1      -8.301   3.859  70.153  1.00  0.00    -0.060 C  
BRANCH   7   8
HETATM    8  C   UNL     1      -7.063   3.013  69.655  1.00  0.00    -0.041 C  
HETATM    9  C   UNL     1      -5.792   3.488  70.390  1.00  0.00    -0.018 C  
HETATM   10  C   UNL     1      -6.832   3.101  68.131  1.00  0.00    -0.049 C  
HETATM   11  C   UNL     1      -7.232   1.508  69.974  1.00  0.00    -0.033 C  
ENDBRANCH   7   8
BRANCH   7  12
HETATM   12  C   UNL     1      -9.246   4.307  68.996  1.00  0.00    -0.145 C  
HETATM   13  N   UNL     1      -9.187   5.636  68.619  1.00  0.00    -0.120 N  
HETATM   14  O   UNL     1     -10.071   3.552  68.487  1.00  0.00     0.247 OA 
HETATM   15  H   UNL     1      -8.633   6.288  69.174  1.00  0.00     0.000 HD 
BRANCH  13  16
HETATM   16  C   UNL     1      -9.915   6.136  67.418  1.00  0.00    -0.141 C  
BRANCH  16  17
HETATM   17  C   UNL     1      -9.011   7.159  66.663  1.00  0.00    -0.146 C  
HETATM   18  H   UNL     1      -9.312   8.879  65.824  1.00  0.00     0.000 HD 
HETATM   19  O   UNL     1      -9.862   8.256  66.284  1.00  0.00    -0.232 OA 
BRANCH  17  20
HETATM   20  C   UNL     1      -7.827   7.673  67.524  1.00  0.00    -0.119 C  
BRANCH  20  21
HETATM   21  N   UNL     1      -8.017   8.973  68.230  1.00  0.00    -0.104 NA 
BRANCH  21  22
HETATM   22  N   UNL     1      -7.811   8.877  69.649  1.00  0.00    -0.087 N  
HETATM   23  C   UNL     1      -7.406   9.967  70.407  1.00  0.00    -0.127 C  
HETATM   24  H   UNL     1      -7.967   7.982  70.113  1.00  0.00     0.000 HD 
HETATM   25  O   UNL     1      -7.060  11.034  69.909  1.00  0.00    -0.115 OA 
BRANCH  23  26
HETATM   26  C   UNL     1      -7.344   9.670  71.931  1.00  0.00     1.138 C  
BRANCH  26  27
HETATM   27  N   UNL     1      -8.170   8.497  72.214  1.00  0.00    -0.136 N  
HETATM   28  O   UNL     1      -8.989   9.196  74.229  1.00  0.00     1.397 OA 
HETATM   29  C   UNL     1      -8.929   8.368  73.333  1.00  0.00    -0.096 C  
HETATM   30  H   UNL     1      -8.176   7.736  71.535  1.00  0.00     0.000 HD 
BRANCH  29  31
HETATM   31  O   UNL     1      -9.607   7.197  73.281  1.00  0.00    -0.162 OA 
HETATM   32  C   UNL     1      -9.102   6.171  74.140  1.00  0.00    -0.134 C  
ENDBRANCH  29  31
ENDBRANCH  26  27
BRANCH  26  33
HETATM   33  C   UNL     1      -5.888   9.511  72.476  1.00  0.00     0.185 C  
HETATM   34  C   UNL     1      -5.821   9.091  73.959  1.00  0.00    -0.086 C  
HETATM   35  C   UNL     1      -5.140   8.468  71.619  1.00  0.00    -0.034 C  
HETATM   36  C   UNL     1      -5.131  10.852  72.348  1.00  0.00     0.218 C  
ENDBRANCH  26  33
ENDBRANCH  23  26
ENDBRANCH  21  22
BRANCH  21  37
HETATM   37  C   UNL     1      -9.305   9.642  67.948  1.00  0.00    -0.128 C  
BRANCH  37  38
HETATM   38  C   UNL     1      -9.284  11.147  67.731  1.00  0.00    -0.153 A  
HETATM   39  C   UNL     1      -8.206  11.833  67.159  1.00  0.00    -0.169 A  
HETATM   40  C   UNL     1      -8.233  13.206  66.960  1.00  0.00    -0.062 A  
HETATM   41  C   UNL     1     -10.411  11.897  68.085  1.00  0.00    -0.225 A  
HETATM   42  C   UNL     1      -9.361  13.958  67.286  1.00  0.00    -0.231 A  
HETATM   43  C   UNL     1     -10.451  13.280  67.858  1.00  0.00    -0.244 A  
BRANCH  42  44
HETATM   44  C   UNL     1      -9.365  15.396  66.998  1.00  0.00    -0.224 A  
HETATM   45  C   UNL     1      -8.229  16.083  66.583  1.00  0.00    -0.324 A  
HETATM   46  C   UNL     1      -8.310  17.458  66.387  1.00  0.00    -0.302 A  
HETATM   47  C   UNL     1      -9.514  18.112  66.618  1.00  0.00    -0.303 A  
HETATM   48  C   UNL     1     -10.594  17.361  67.043  1.00  0.00    -0.238 A  
HETATM   49  N   UNL     1     -10.544  16.031  67.236  1.00  0.00    -0.313 NA 
ENDBRANCH  42  44
ENDBRANCH  37  38
ENDBRANCH  21  37
ENDBRANCH  20  21
ENDBRANCH  17  20
ENDBRANCH  16  17
BRANCH  16  50
HETATM   50  C   UNL     1     -11.358   6.601  67.751  1.00  0.00    -0.073 C  
BRANCH  50  51
HETATM   51  C   UNL     1     -11.490   7.256  69.103  1.00  0.00     0.288 A  
HETATM   52  C   UNL     1     -12.369   6.753  70.072  1.00  0.00     0.299 A  
HETATM   53  C   UNL     1     -11.991   8.682  71.459  1.00  0.00    -0.362 A  
HETATM   54  C   UNL     1     -10.775   8.426  69.386  1.00  0.00    -0.162 A  
HETATM   55  C   UNL     1     -12.650   7.481  71.223  1.00  0.00    -0.345 A  
HETATM   56  C   UNL     1     -11.026   9.135  70.561  1.00  0.00    -0.307 A  
ENDBRANCH  50  51
ENDBRANCH  16  50
ENDBRANCH  13  16
ENDBRANCH   7  12
ENDBRANCH   4   7
ENDBRANCH   2   3
TORSDOF 18
ENDMDL
MODEL       65
REMARK 921   NORMALIZED FREE ENERGY PREDICTED BY IDOCK:    2.68 KCAL/MOL
REMARK 922        TOTAL FREE ENERGY PREDICTED BY IDOCK:    0.77 KCAL/MOL
REMARK 923 INTER-LIGAND FREE ENERGY PREDICTED BY IDOCK:   -5.28 KCAL/MOL
REMARK 924 INTRA-LIGAND FREE ENERGY PREDICTED BY IDOCK:    6.05 KCAL/MOL
REMARK 927      BINDING AFFINITY PREDICTED BY RF-SCORE:    0.00 PKD
ROOT
HETATM    1  C   UNL     1     -13.081  15.318  72.017  1.00  0.00    -0.384 C  
HETATM    2  O   UNL     1     -11.733  15.048  71.623  1.00  0.00    -0.348 OA 
ENDROOT
BRANCH   2   3
HETATM    3  C   UNL     1     -11.552  14.778  70.305  1.00  0.00    -0.282 C  
HETATM    4  N   UNL     1     -10.391  14.084  70.153  1.00  0.00     0.225 N  
HETATM    5  O   UNL     1     -12.279  15.147  69.394  1.00  0.00    -0.275 OA 
HETATM    6  H   UNL     1      -9.936  13.711  70.985  1.00  0.00     0.000 HD 
BRANCH   4   7
HETATM    7  C   UNL     1      -9.767  13.850  68.856  1.00  0.00    -0.006 C  
BRANCH   7   8
HETATM    8  C   UNL     1      -9.267  15.191  68.187  1.00  0.00    -0.184 C  
HETATM    9  C   UNL     1      -8.543  16.049  69.245  1.00  0.00    -0.224 C  
HETATM   10  C   UNL     1     -10.403  16.021  67.551  1.00  0.00    -0.287 C  
HETATM   11  C   UNL     1      -8.249  14.921  67.052  1.00  0.00    -0.228 C  
ENDBRANCH   7   8
BRANCH   7  12
HETATM   12  C   UNL     1      -8.627  12.809  69.079  1.00  0.00     0.495 C  
HETATM   13  N   UNL     1      -8.998  11.572  69.572  1.00  0.00     0.098 N  
HETATM   14  O   UNL     1      -7.441  13.082  68.911  1.00  0.00    -0.084 OA 
HETATM   15  H   UNL     1      -9.959  11.425  69.881  1.00  0.00     0.000 HD 
BRANCH  13  16
HETATM   16  C   UNL     1      -8.024  10.448  69.663  1.00  0.00    -0.118 C  
BRANCH  16  17
HETATM   17  C   UNL     1      -8.721   9.220  70.325  1.00  0.00    -0.219 C  
HETATM   18  H   UNL     1     -10.549   8.588  70.432  1.00  0.00     0.000 HD 
HETATM   19  O   UNL     1     -10.124   9.335  70.029  1.00  0.00    -0.187 OA 
BRANCH  17  20
HETATM   20  C   UNL     1      -8.175   7.862  69.808  1.00  0.00    -0.121 C  
BRANCH  20  21
HETATM   21  N   UNL     1      -8.493   7.497  68.397  1.00  0.00    -0.125 NA 
BRANCH  21  22
HETATM   22  N   UNL     1      -7.716   8.233  67.437  1.00  0.00    -0.100 N  
HETATM   23  C   UNL     1      -6.814   7.606  66.589  1.00  0.00    -0.066 C  
HETATM   24  H   UNL     1      -7.830   9.245  67.378  1.00  0.00     0.000 HD 
HETATM   25  O   UNL     1      -6.513   6.421  66.694  1.00  0.00    -0.043 OA 
BRANCH  23  26
HETATM   26  C   UNL     1      -6.157   8.572  65.564  1.00  0.00    -0.048 C  
BRANCH  26  27
HETATM   27  N   UNL     1      -6.878   8.469  64.296  1.00  0.00    -0.074 N  
HETATM   28  O   UNL     1      -5.814   6.609  63.504  1.00  0.00    -0.029 OA 
HETATM   29  C   UNL     1      -6.651   7.491  63.382  1.00  0.00    -0.054 C  
HETATM   30  H   UNL     1      -7.589   9.171  64.087  1.00  0.00     0.000 HD 
BRANCH  29  31
HETATM   31  O   UNL     1      -7.503   7.644  62.341  1.00  0.00    -0.087 OA 
HETATM   32  C   UNL     1      -8.435   8.721  62.480  1.00  0.00    -0.195 C  
ENDBRANCH  29  31
ENDBRANCH  26  27
BRANCH  26  33
HETATM   33  C   UNL     1      -6.062  10.048  66.071  1.00  0.00    -0.077 C  
HETATM   34  C   UNL     1      -5.501  11.030  65.022  1.00  0.00     0.129 C  
HETATM   35  C   UNL     1      -7.464  10.521  66.511  1.00  0.00    -0.128 C  
HETATM   36  C   UNL     1      -5.135  10.119  67.304  1.00  0.00    -0.040 C  
ENDBRANCH  26  33
ENDBRANCH  23  26
ENDBRANCH  21  22
BRANCH  21  37
HETATM   37  C   UNL     1      -9.930   7.573  68.052  1.00  0.00    -0.172 C  
BRANCH  37  38
HETATM   38  C   UNL     1     -10.409   8.805  67.300  1.00  0.00    -0.360 A  
HETATM   39  C   UNL     1     -11.096   9.865  67.905  1.00  0.00    -0.216 A  
HETATM   40  C   UNL     1     -11.499  10.981  67.188  1.00  0.00    -0.099 A  
HETATM   41  C   UNL     1     -10.125   8.917  65.934  1.00  0.00     0.046 A  
HETATM   42  C   UNL     1     -11.199  11.113  65.833  1.00  0.00    -0.015 A  
HETATM   43  C   UNL     1     -10.508  10.057  65.215  1.00  0.00     0.115 A  
BRANCH  42  44
HETATM   44  C   UNL     1     -11.593  12.340  65.132  1.00  0.00    -0.351 A  
HETATM   45  C   UNL     1     -11.900  12.367  63.776  1.00  0.00    -0.587 A  
HETATM   46  C   UNL     1     -12.209  13.586  63.182  1.00  0.00    -0.023 A  
HETATM   47  C   UNL     1     -12.195  14.744  63.949  1.00  0.00    -0.023 A  
HETATM   48  C   UNL     1     -11.867  14.637  65.287  1.00  0.00    -0.324 A  
HETATM   49  N   UNL     1     -11.568  13.471  65.888  1.00  0.00    -0.325 NA 
ENDBRANCH  42  44
ENDBRANCH  37  38
ENDBRANCH  21  37
ENDBRANCH  20  21
ENDBRANCH  17  20
ENDBRANCH  16  17
BRANCH  16  50
HETATM   50  C   UNL     1      -6.666  10.887  70.276  1.00  0.00     0.010 C  
BRANCH  50  51
HETATM   51  C   UNL     1      -6.017   9.832  71.136  1.00  0.00    -0.058 A  
HETATM   52  C   UNL     1      -5.846   8.520  70.671  1.00  0.00    -0.031 A  
HETATM   53  C   UNL     1      -5.148   7.806  72.860  1.00  0.00    -0.036 A  
HETATM   54  C   UNL     1      -5.633  10.137  72.447  1.00  0.00     0.365 A  
HETATM   55  C   UNL     1      -5.454   7.506  71.538  1.00  0.00    -0.035 A  
HETATM   56  C   UNL     1      -5.199   9.126  73.305  1.00  0.00    -0.093 A  
ENDBRANCH  50  51
ENDBRANCH  16  50
ENDBRANCH  13  16
ENDBRANCH   7  12
ENDBRANCH   4   7
ENDBRANCH   2   3
TORSDOF 18
ENDMDL
MODEL       66
REMARK 921   NORMALIZED FREE ENERGY PREDICTED BY IDOCK:    3.10 KCAL/MOL
REMARK 922        TOTAL FREE ENERGY PREDICTED BY IDOCK:    1.63 KCAL/MOL
REMARK 923 INTER-LIGAND FREE ENERGY PREDICTED BY IDOCK:   -2.98 KCAL/MOL
REMARK 924 INTRA-LIGAND FREE ENERGY PREDICTED BY IDOCK:    4.61 KCAL/MOL
REMARK 927      BINDING AFFINITY PREDICTED BY RF-SCORE:    0.00 PKD
ROOT
HETATM    1  C   UNL     1     -11.662  18.055  67.586  1.00  0.00     1.659 C  
HETATM    2  O   UNL     1     -11.270  17.445  68.819  1.00  0.00     0.052 OA 
ENDROOT
BRANCH   2   3
HETATM    3  C   UNL     1     -11.573  16.128  68.943  1.00  0.00    -0.298 C  
HETATM    4  N   UNL     1     -11.232  15.712  70.192  1.00  0.00    -0.304 N  
HETATM    5  O   UNL     1     -12.024  15.413  68.059  1.00  0.00    -0.227 OA 
HETATM    6  H   UNL     1     -10.996  16.417  70.891  1.00  0.00     0.000 HD 
BRANCH   4   7
HETATM    7  C   UNL     1     -11.189  14.308  70.581  1.00  0.00     0.159 C  
BRANCH   7   8
HETATM    8  C   UNL     1     -12.604  13.615  70.461  1.00  0.00    -0.337 C  
HETATM    9  C   UNL     1     -13.704  14.696  70.481  1.00  0.00     0.306 C  
HETATM   10  C   UNL     1     -12.880  12.586  71.579  1.00  0.00    -0.367 C  
HETATM   11  C   UNL     1     -12.753  12.844  69.127  1.00  0.00     0.843 C  
ENDBRANCH   7   8
BRANCH   7  12
HETATM   12  C   UNL     1     -10.092  13.626  69.706  1.00  0.00     1.069 C  
HETATM   13  N   UNL     1     -10.414  12.407  69.138  1.00  0.00    -0.432 N  
HETATM   14  O   UNL     1      -8.962  14.090  69.583  1.00  0.00     0.658 OA 
HETATM   15  H   UNL     1     -11.287  11.949  69.400  1.00  0.00     0.000 HD 
BRANCH  13  16
HETATM   16  C   UNL     1      -9.514  11.749  68.149  1.00  0.00    -0.193 C  
BRANCH  16  17
HETATM   17  C   UNL     1     -10.372  11.172  66.982  1.00  0.00    -0.224 C  
HETATM   18  H   UNL     1      -9.999  10.619  65.163  1.00  0.00     0.000 HD 
HETATM   19  O   UNL     1      -9.477  10.971  65.874  1.00  0.00    -0.198 OA 
BRANCH  17  20
HETATM   20  C   UNL     1     -11.076   9.837  67.349  1.00  0.00     0.022 C  
BRANCH  20  21
HETATM   21  N   UNL     1     -10.273   8.588  67.211  1.00  0.00    -0.250 NA 
BRANCH  21  22
HETATM   22  N   UNL     1      -9.614   8.482  65.938  1.00  0.00    -0.445 N  
HETATM   23  C   UNL     1      -8.257   8.210  65.835  1.00  0.00    -0.122 C  
HETATM   24  H   UNL     1     -10.158   8.611  65.085  1.00  0.00     0.000 HD 
HETATM   25  O   UNL     1      -7.506   8.185  66.806  1.00  0.00    -0.087 OA 
BRANCH  23  26
HETATM   26  C   UNL     1      -7.771   8.038  64.370  1.00  0.00    -0.130 C  
BRANCH  26  27
HETATM   27  N   UNL     1      -8.179   6.717  63.893  1.00  0.00    -0.318 N  
HETATM   28  O   UNL     1      -7.104   5.485  65.489  1.00  0.00    -0.064 OA 
HETATM   29  C   UNL     1      -7.819   5.557  64.501  1.00  0.00    -0.109 C  
HETATM   30  H   UNL     1      -8.765   6.664  63.060  1.00  0.00     0.000 HD 
BRANCH  29  31
HETATM   31  O   UNL     1      -8.388   4.515  63.851  1.00  0.00    -0.100 OA 
HETATM   32  C   UNL     1      -8.002   3.224  64.329  1.00  0.00    -0.082 C  
ENDBRANCH  29  31
ENDBRANCH  26  27
BRANCH  26  33
HETATM   33  C   UNL     1      -8.247   9.181  63.416  1.00  0.00    -0.178 C  
HETATM   34  C   UNL     1      -8.951  10.346  64.143  1.00  0.00    -0.251 C  
HETATM   35  C   UNL     1      -7.030   9.729  62.640  1.00  0.00    -0.110 C  
HETATM   36  C   UNL     1      -9.247   8.618  62.382  1.00  0.00     0.571 C  
ENDBRANCH  26  33
ENDBRANCH  23  26
ENDBRANCH  21  22
BRANCH  21  37
HETATM   37  C   UNL     1     -11.018   7.344  67.501  1.00  0.00    -0.106 C  
BRANCH  37  38
HETATM   38  C   UNL     1     -10.548   6.500  68.676  1.00  0.00    -0.289 A  
HETATM   39  C   UNL     1     -11.306   6.293  69.835  1.00  0.00    -0.504 A  
HETATM   40  C   UNL     1     -10.849   5.500  70.877  1.00  0.00    -0.246 A  
HETATM   41  C   UNL     1      -9.305   5.861  68.594  1.00  0.00    -0.126 A  
HETATM   42  C   UNL     1      -9.624   4.838  70.795  1.00  0.00    -0.249 A  
HETATM   43  C   UNL     1      -8.855   5.036  69.635  1.00  0.00    -0.121 A  
BRANCH  42  44
HETATM   44  C   UNL     1      -9.213   3.961  71.896  1.00  0.00    -0.123 A  
HETATM   45  C   UNL     1      -8.101   4.220  72.689  1.00  0.00    -0.096 A  
HETATM   46  C   UNL     1      -7.752   3.305  73.677  1.00  0.00    -0.065 A  
HETATM   47  C   UNL     1      -8.512   2.154  73.842  1.00  0.00    -0.062 A  
HETATM   48  C   UNL     1      -9.595   1.961  73.005  1.00  0.00    -0.078 A  
HETATM   49  N   UNL     1      -9.957   2.832  72.046  1.00  0.00    -0.168 NA 
ENDBRANCH  42  44
ENDBRANCH  37  38
ENDBRANCH  21  37
ENDBRANCH  20  21
ENDBRANCH  17  20
ENDBRANCH  16  17
BRANCH  16  50
HETATM   50  C   UNL     1      -8.510  10.772  68.819  1.00  0.00    -0.148 C  
BRANCH  50  51
HETATM   51  C   UNL     1      -9.039  10.123  70.074  1.00  0.00    -0.031 A  
HETATM   52  C   UNL     1      -8.244   9.252  70.832  1.00  0.00    -0.179 A  
HETATM   53  C   UNL     1     -10.142   8.652  72.184  1.00  0.00    -0.388 A  
HETATM   54  C   UNL     1     -10.367  10.335  70.464  1.00  0.00     0.036 A  
HETATM   55  C   UNL     1      -8.801   8.490  71.853  1.00  0.00    -0.284 A  
HETATM   56  C   UNL     1     -10.914   9.601  71.517  1.00  0.00    -0.266 A  
ENDBRANCH  50  51
ENDBRANCH  16  50
ENDBRANCH  13  16
ENDBRANCH   7  12
ENDBRANCH   4   7
ENDBRANCH   2   3
TORSDOF 18
ENDMDL
MODEL       67
REMARK 921   NORMALIZED FREE ENERGY PREDICTED BY IDOCK:    3.88 KCAL/MOL
REMARK 922        TOTAL FREE ENERGY PREDICTED BY IDOCK:    3.23 KCAL/MOL
REMARK 923 INTER-LIGAND FREE ENERGY PREDICTED BY IDOCK:   -1.45 KCAL/MOL
REMARK 924 INTRA-LIGAND FREE ENERGY PREDICTED BY IDOCK:    4.68 KCAL/MOL
REMARK 927      BINDING AFFINITY PREDICTED BY RF-SCORE:    0.00 PKD
ROOT
HETATM    1  C   UNL     1     -12.280  10.835  67.413  1.00  0.00     2.098 C  
HETATM    2  O   UNL     1     -11.075  10.258  67.925  1.00  0.00    -0.291 OA 
ENDROOT
BRANCH   2   3
HETATM    3  C   UNL     1     -11.151   8.946  68.262  1.00  0.00     0.262 C  
HETATM    4  N   UNL     1     -10.855   8.812  69.583  1.00  0.00    -0.347 N  
HETATM    5  O   UNL     1     -11.389   8.024  67.494  1.00  0.00     0.404 OA 
HETATM    6  H   UNL     1     -10.808   9.653  70.158  1.00  0.00     0.000 HD 
BRANCH   4   7
HETATM    7  C   UNL     1     -10.600   7.523  70.215  1.00  0.00    -0.229 C  
BRANCH   7   8
HETATM    8  C   UNL     1     -11.734   7.132  71.244  1.00  0.00    -0.342 C  
HETATM    9  C   UNL     1     -11.752   8.157  72.396  1.00  0.00    -0.461 C  
HETATM   10  C   UNL     1     -11.569   5.712  71.828  1.00  0.00    -0.033 C  
HETATM   11  C   UNL     1     -13.136   7.163  70.590  1.00  0.00     0.208 C  
ENDBRANCH   7   8
BRANCH   7  12
HETATM   12  C   UNL     1     -10.420   6.479  69.069  1.00  0.00    -0.216 C  
HETATM   13  N   UNL     1      -9.126   6.091  68.776  1.00  0.00    -0.124 N  
HETATM   14  O   UNL     1     -11.360   6.073  68.393  1.00  0.00    -0.196 OA 
HETATM   15  H   UNL     1      -8.346   6.575  69.220  1.00  0.00     0.000 HD 
BRANCH  13  16
HETATM   16  C   UNL     1      -8.846   4.979  67.823  1.00  0.00    -0.103 C  
BRANCH  16  17
HETATM   17  C   UNL     1      -7.548   5.306  67.024  1.00  0.00    -0.092 C  
HETATM   18  H   UNL     1      -7.035   6.691  65.770  1.00  0.00     0.000 HD 
HETATM   19  O   UNL     1      -7.826   6.492  66.257  1.00  0.00    -0.100 OA 
BRANCH  17  20
HETATM   20  C   UNL     1      -6.315   5.538  67.938  1.00  0.00    -0.042 C  
BRANCH  20  21
HETATM   21  N   UNL     1      -6.379   6.691  68.882  1.00  0.00    -0.034 NA 
BRANCH  21  22
HETATM   22  N   UNL     1      -6.934   6.341  70.161  1.00  0.00    -0.064 N  
HETATM   23  C   UNL     1      -6.271   5.498  71.042  1.00  0.00    -0.034 C  
HETATM   24  H   UNL     1      -7.841   6.723  70.429  1.00  0.00     0.000 HD 
HETATM   25  O   UNL     1      -5.251   4.886  70.740  1.00  0.00    -0.003 OA 
BRANCH  23  26
HETATM   26  C   UNL     1      -6.999   5.335  72.405  1.00  0.00    -0.080 C  
BRANCH  26  27
HETATM   27  N   UNL     1      -7.578   6.623  72.784  1.00  0.00    -0.096 N  
HETATM   28  O   UNL     1      -5.614   7.767  73.024  1.00  0.00    -0.043 OA 
HETATM   29  C   UNL     1      -6.835   7.729  73.050  1.00  0.00    -0.077 C  
HETATM   30  H   UNL     1      -8.593   6.695  72.853  1.00  0.00     0.000 HD 
BRANCH  29  31
HETATM   31  O   UNL     1      -7.660   8.766  73.325  1.00  0.00    -0.381 OA 
HETATM   32  C   UNL     1      -8.537   8.559  74.436  1.00  0.00     0.531 C  
ENDBRANCH  29  31
ENDBRANCH  26  27
BRANCH  26  33
HETATM   33  C   UNL     1      -8.060   4.187  72.412  1.00  0.00    -0.095 C  
HETATM   34  C   UNL     1      -8.406   3.651  71.008  1.00  0.00    -0.087 C  
HETATM   35  C   UNL     1      -7.538   3.026  73.285  1.00  0.00    -0.052 C  
HETATM   36  C   UNL     1      -9.375   4.694  73.044  1.00  0.00    -0.137 C  
ENDBRANCH  26  33
ENDBRANCH  23  26
ENDBRANCH  21  22
BRANCH  21  37
HETATM   37  C   UNL     1      -7.060   7.888  68.343  1.00  0.00    -0.081 C  
BRANCH  37  38
HETATM   38  C   UNL     1      -6.694   9.237  68.944  1.00  0.00    -0.052 A  
HETATM   39  C   UNL     1      -5.420   9.809  68.846  1.00  0.00    -0.036 A  
HETATM   40  C   UNL     1      -5.131  11.051  69.391  1.00  0.00    -0.041 A  
HETATM   41  C   UNL     1      -7.684   9.974  69.605  1.00  0.00    -0.158 A  
HETATM   42  C   UNL     1      -6.117  11.804  70.029  1.00  0.00    -0.158 A  
HETATM   43  C   UNL     1      -7.400  11.241  70.131  1.00  0.00     0.850 A  
BRANCH  42  44
HETATM   44  C   UNL     1      -5.777  13.139  70.534  1.00  0.00    -0.176 A  
HETATM   45  C   UNL     1      -5.565  13.400  71.883  1.00  0.00     0.034 A  
HETATM   46  C   UNL     1      -5.302  14.708  72.281  1.00  0.00    -0.083 A  
HETATM   47  C   UNL     1      -5.268  15.718  71.328  1.00  0.00    -0.065 A  
HETATM   48  C   UNL     1      -5.503  15.380  70.009  1.00  0.00    -0.123 A  
HETATM   49  N   UNL     1      -5.754  14.125  69.597  1.00  0.00    -0.097 NA 
ENDBRANCH  42  44
ENDBRANCH  37  38
ENDBRANCH  21  37
ENDBRANCH  20  21
ENDBRANCH  17  20
ENDBRANCH  16  17
BRANCH  16  50
HETATM   50  C   UNL     1     -10.094   4.586  66.987  1.00  0.00    -0.180 C  
BRANCH  50  51
HETATM   51  C   UNL     1      -9.768   3.811  65.735  1.00  0.00    -0.140 A  
HETATM   52  C   UNL     1      -8.703   2.901  65.700  1.00  0.00    -0.127 A  
HETATM   53  C   UNL     1      -8.951   2.658  63.319  1.00  0.00    -0.088 A  
HETATM   54  C   UNL     1     -10.493   4.045  64.560  1.00  0.00    -0.215 A  
HETATM   55  C   UNL     1      -8.271   2.360  64.494  1.00  0.00    -0.082 A  
HETATM   56  C   UNL     1     -10.084   3.468  63.357  1.00  0.00    -0.185 A  
ENDBRANCH  50  51
ENDBRANCH  16  50
ENDBRANCH  13  16
ENDBRANCH   7  12
ENDBRANCH   4   7
ENDBRANCH   2   3
TORSDOF 18
ENDMDL
MODEL       68
REMARK 921   NORMALIZED FREE ENERGY PREDICTED BY IDOCK:    4.48 KCAL/MOL
REMARK 922        TOTAL FREE ENERGY PREDICTED BY IDOCK:    4.45 KCAL/MOL
REMARK 923 INTER-LIGAND FREE ENERGY PREDICTED BY IDOCK:   -4.38 KCAL/MOL
REMARK 924 INTRA-LIGAND FREE ENERGY PREDICTED BY IDOCK:    8.82 KCAL/MOL
REMARK 927      BINDING AFFINITY PREDICTED BY RF-SCORE:    0.00 PKD
ROOT
HETATM    1  C   UNL     1     -13.686   8.867  71.685  1.00  0.00    -0.395 C  
HETATM    2  O   UNL     1     -13.532   9.335  70.341  1.00  0.00     0.418 OA 
ENDROOT
BRANCH   2   3
HETATM    3  C   UNL     1     -12.266   9.661  69.976  1.00  0.00     0.287 C  
HETATM    4  N   UNL     1     -11.622   8.535  69.566  1.00  0.00    -0.142 N  
HETATM    5  O   UNL     1     -11.763  10.773  70.058  1.00  0.00    -0.277 OA 
HETATM    6  H   UNL     1     -12.173   7.692  69.407  1.00  0.00     0.000 HD 
BRANCH   4   7
HETATM    7  C   UNL     1     -10.182   8.477  69.343  1.00  0.00    -0.211 C  
BRANCH   7   8
HETATM    8  C   UNL     1      -9.816   7.657  68.044  1.00  0.00    -0.188 C  
HETATM    9  C   UNL     1      -8.322   7.271  68.088  1.00  0.00    -0.124 C  
HETATM   10  C   UNL     1     -10.105   8.421  66.733  1.00  0.00    -0.373 C  
HETATM   11  C   UNL     1     -10.619   6.337  67.953  1.00  0.00    -0.327 C  
ENDBRANCH   7   8
BRANCH   7  12
HETATM   12  C   UNL     1      -9.666   9.949  69.309  1.00  0.00    -0.208 C  
HETATM   13  N   UNL     1      -8.339  10.138  68.969  1.00  0.00    -0.127 N  
HETATM   14  O   UNL     1     -10.363  10.902  69.646  1.00  0.00    -0.170 OA 
HETATM   15  H   UNL     1      -7.728   9.327  68.873  1.00  0.00     0.000 HD 
BRANCH  13  16
HETATM   16  C   UNL     1      -7.783  11.501  68.738  1.00  0.00    -0.124 C  
BRANCH  16  17
HETATM   17  C   UNL     1      -6.802  11.856  69.897  1.00  0.00     0.241 C  
HETATM   18  H   UNL     1      -6.186  10.936  71.487  1.00  0.00     0.000 HD 
HETATM   19  O   UNL     1      -6.784  10.720  70.781  1.00  0.00    -0.281 OA 
BRANCH  17  20
HETATM   20  C   UNL     1      -5.365  12.169  69.400  1.00  0.00    -0.067 C  
BRANCH  20  21
HETATM   21  N   UNL     1      -5.229  13.200  68.330  1.00  0.00    -0.068 NA 
BRANCH  21  22
HETATM   22  N   UNL     1      -5.930  14.419  68.632  1.00  0.00    -0.081 N  
HETATM   23  C   UNL     1      -6.164  15.388  67.666  1.00  0.00    -0.142 C  
HETATM   24  H   UNL     1      -6.264  14.576  69.582  1.00  0.00     0.000 HD 
HETATM   25  O   UNL     1      -5.673  15.343  66.543  1.00  0.00     0.852 OA 
BRANCH  23  26
HETATM   26  C   UNL     1      -7.025  16.575  68.180  1.00  0.00    -0.144 C  
BRANCH  26  27
HETATM   27  N   UNL     1      -8.067  16.050  69.062  1.00  0.00    -0.215 N  
HETATM   28  O   UNL     1      -9.809  17.254  68.204  1.00  0.00    -0.266 OA 
HETATM   29  C   UNL     1      -9.370  16.428  68.989  1.00  0.00    -0.248 C  
HETATM   30  H   UNL     1      -7.801  15.365  69.770  1.00  0.00     0.000 HD 
BRANCH  29  31
HETATM   31  O   UNL     1     -10.088  15.735  69.904  1.00  0.00    -0.275 OA 
HETATM   32  C   UNL     1     -10.743  16.540  70.889  1.00  0.00     0.571 C  
ENDBRANCH  29  31
ENDBRANCH  26  27
BRANCH  26  33
HETATM   33  C   UNL     1      -6.187  17.703  68.864  1.00  0.00    -0.207 C  
HETATM   34  C   UNL     1      -5.487  17.258  70.164  1.00  0.00    -0.237 C  
HETATM   35  C   UNL     1      -5.127  18.218  67.867  1.00  0.00    -0.157 C  
HETATM   36  C   UNL     1      -7.106  18.892  69.225  1.00  0.00    -0.243 C  
ENDBRANCH  26  33
ENDBRANCH  23  26
ENDBRANCH  21  22
BRANCH  21  37
HETATM   37  C   UNL     1      -5.588  12.730  66.975  1.00  0.00     0.335 C  
BRANCH  37  38
HETATM   38  C   UNL     1      -5.478  11.240  66.694  1.00  0.00    -0.126 A  
HETATM   39  C   UNL     1      -5.299  10.274  67.692  1.00  0.00    -0.037 A  
HETATM   40  C   UNL     1      -5.223   8.921  67.396  1.00  0.00    -0.034 A  
HETATM   41  C   UNL     1      -5.593  10.790  65.373  1.00  0.00    -0.120 A  
HETATM   42  C   UNL     1      -5.362   8.461  66.087  1.00  0.00    -0.034 A  
HETATM   43  C   UNL     1      -5.544   9.421  65.077  1.00  0.00    -0.057 A  
BRANCH  42  44
HETATM   44  C   UNL     1      -5.336   7.016  65.833  1.00  0.00    -0.023 A  
HETATM   45  C   UNL     1      -5.292   6.074  66.855  1.00  0.00    -0.009 A  
HETATM   46  C   UNL     1      -5.213   4.726  66.522  1.00  0.00    -0.009 A  
HETATM   47  C   UNL     1      -5.171   4.353  65.184  1.00  0.00    -0.009 A  
HETATM   48  C   UNL     1      -5.206   5.350  64.227  1.00  0.00    -0.010 A  
HETATM   49  N   UNL     1      -5.286   6.659  64.522  1.00  0.00    -0.026 NA 
ENDBRANCH  42  44
ENDBRANCH  37  38
ENDBRANCH  21  37
ENDBRANCH  20  21
ENDBRANCH  17  20
ENDBRANCH  16  17
BRANCH  16  50
HETATM   50  C   UNL     1      -8.887  12.547  68.422  1.00  0.00    -0.123 C  
BRANCH  50  51
HETATM   51  C   UNL     1      -9.732  12.195  67.222  1.00  0.00    -0.193 A  
HETATM   52  C   UNL     1     -11.094  12.521  67.172  1.00  0.00    -0.321 A  
HETATM   53  C   UNL     1     -11.360  11.223  65.164  1.00  0.00     0.013 A  
HETATM   54  C   UNL     1      -9.173  11.473  66.162  1.00  0.00    -0.230 A  
HETATM   55  C   UNL     1     -11.911  12.004  66.173  1.00  0.00    -0.105 A  
HETATM   56  C   UNL     1      -9.986  10.989  65.136  1.00  0.00    -0.333 A  
ENDBRANCH  50  51
ENDBRANCH  16  50
ENDBRANCH  13  16
ENDBRANCH   7  12
ENDBRANCH   4   7
ENDBRANCH   2   3
TORSDOF 18
ENDMDL
MODEL       69
REMARK 921   NORMALIZED FREE ENERGY PREDICTED BY IDOCK:    4.64 KCAL/MOL
REMARK 922        TOTAL FREE ENERGY PREDICTED BY IDOCK:    4.78 KCAL/MOL
REMARK 923 INTER-LIGAND FREE ENERGY PREDICTED BY IDOCK:   -0.50 KCAL/MOL
REMARK 924 INTRA-LIGAND FREE ENERGY PREDICTED BY IDOCK:    5.28 KCAL/MOL
REMARK 927      BINDING AFFINITY PREDICTED BY RF-SCORE:    0.00 PKD
ROOT
HETATM    1  C   UNL     1     -10.055   3.050  71.691  1.00  0.00     0.007 C  
HETATM    2  O   UNL     1      -8.813   3.648  71.309  1.00  0.00    -0.082 OA 
ENDROOT
BRANCH   2   3
HETATM    3  C   UNL     1      -8.885   4.551  70.298  1.00  0.00    -0.083 C  
HETATM    4  N   UNL     1      -7.853   4.333  69.439  1.00  0.00    -0.057 N  
HETATM    5  O   UNL     1      -9.706   5.452  70.202  1.00  0.00    -0.164 OA 
HETATM    6  H   UNL     1      -7.312   3.474  69.538  1.00  0.00     0.000 HD 
BRANCH   4   7
HETATM    7  C   UNL     1      -7.483   5.269  68.384  1.00  0.00    -0.075 C  
BRANCH   7   8
HETATM    8  C   UNL     1      -6.350   4.690  67.447  1.00  0.00    -0.041 C  
HETATM    9  C   UNL     1      -6.970   3.675  66.465  1.00  0.00    -0.058 C  
HETATM   10  C   UNL     1      -5.201   4.011  68.223  1.00  0.00    -0.011 C  
HETATM   11  C   UNL     1      -5.690   5.800  66.593  1.00  0.00    -0.017 C  
ENDBRANCH   7   8
BRANCH   7  12
HETATM   12  C   UNL     1      -8.792   5.632  67.617  1.00  0.00    -0.105 C  
HETATM   13  N   UNL     1      -9.003   6.971  67.339  1.00  0.00    -0.117 N  
HETATM   14  O   UNL     1      -9.648   4.797  67.336  1.00  0.00    -0.141 OA 
HETATM   15  H   UNL     1      -8.377   7.668  67.740  1.00  0.00     0.000 HD 
BRANCH  13  16
HETATM   16  C   UNL     1     -10.126   7.415  66.467  1.00  0.00    -0.105 C  
BRANCH  16  17
HETATM   17  C   UNL     1      -9.963   8.935  66.158  1.00  0.00    -0.220 C  
HETATM   18  H   UNL     1     -10.906  10.541  66.690  1.00  0.00     0.000 HD 
HETATM   19  O   UNL     1     -11.006   9.615  66.878  1.00  0.00    -0.103 OA 
BRANCH  17  20
HETATM   20  C   UNL     1      -8.574   9.492  66.574  1.00  0.00    -0.134 C  
BRANCH  20  21
HETATM   21  N   UNL     1      -8.546  10.457  67.710  1.00  0.00    -0.121 NA 
BRANCH  21  22
HETATM   22  N   UNL     1      -7.981   9.899  68.909  1.00  0.00    -0.091 N  
HETATM   23  C   UNL     1      -7.859  10.640  70.076  1.00  0.00     0.333 C  
HETATM   24  H   UNL     1      -7.661   8.930  68.901  1.00  0.00     0.000 HD 
HETATM   25  O   UNL     1      -8.084  11.845  70.128  1.00  0.00     1.768 OA 
BRANCH  23  26
HETATM   26  C   UNL     1      -7.319   9.814  71.277  1.00  0.00     0.573 C  
BRANCH  26  27
HETATM   27  N   UNL     1      -8.001   8.520  71.300  1.00  0.00    -0.120 N  
HETATM   28  O   UNL     1      -8.215   8.343  73.567  1.00  0.00    -0.318 OA 
HETATM   29  C   UNL     1      -8.398   7.903  72.442  1.00  0.00    -0.138 C  
HETATM   30  H   UNL     1      -8.186   8.056  70.410  1.00  0.00     0.000 HD 
BRANCH  29  31
HETATM   31  O   UNL     1      -9.035   6.750  72.130  1.00  0.00    -0.134 OA 
HETATM   32  C   UNL     1      -9.638   6.077  73.239  1.00  0.00    -0.143 C  
ENDBRANCH  29  31
ENDBRANCH  26  27
BRANCH  26  33
HETATM   33  C   UNL     1      -5.763   9.661  71.280  1.00  0.00    -0.075 C  
HETATM   34  C   UNL     1      -5.257   8.430  70.500  1.00  0.00    -0.022 C  
HETATM   35  C   UNL     1      -5.131  10.936  70.682  1.00  0.00    -0.082 C  
HETATM   36  C   UNL     1      -5.254   9.522  72.731  1.00  0.00    -0.047 C  
ENDBRANCH  26  33
ENDBRANCH  23  26
ENDBRANCH  21  22
BRANCH  21  37
HETATM   37  C   UNL     1      -9.848  11.092  68.011  1.00  0.00    -0.171 C  
BRANCH  37  38
HETATM   38  C   UNL     1      -9.998  12.573  67.698  1.00  0.00    -0.201 A  
HETATM   39  C   UNL     1     -10.760  13.456  68.473  1.00  0.00    -0.278 A  
HETATM   40  C   UNL     1     -10.856  14.805  68.165  1.00  0.00    -0.256 A  
HETATM   41  C   UNL     1      -9.315  13.104  66.598  1.00  0.00    -0.242 A  
HETATM   42  C   UNL     1     -10.159  15.348  67.087  1.00  0.00    -0.245 A  
HETATM   43  C   UNL     1      -9.389  14.472  66.303  1.00  0.00    -0.277 A  
BRANCH  42  44
HETATM   44  C   UNL     1     -10.243  16.792  66.839  1.00  0.00    -0.290 A  
HETATM   45  C   UNL     1     -10.441  17.719  67.857  1.00  0.00    -0.401 A  
HETATM   46  C   UNL     1     -10.564  19.064  67.525  1.00  0.00    -0.546 A  
HETATM   47  C   UNL     1     -10.498  19.448  66.191  1.00  0.00    -0.600 A  
HETATM   48  C   UNL     1     -10.313  18.466  65.237  1.00  0.00     0.707 A  
HETATM   49  N   UNL     1     -10.186  17.159  65.531  1.00  0.00    -0.615 NA 
ENDBRANCH  42  44
ENDBRANCH  37  38
ENDBRANCH  21  37
ENDBRANCH  20  21
ENDBRANCH  17  20
ENDBRANCH  16  17
BRANCH  16  50
HETATM   50  C   UNL     1     -11.511   6.963  67.006  1.00  0.00     0.427 C  
BRANCH  50  51
HETATM   51  C   UNL     1     -11.745   7.317  68.453  1.00  0.00     1.146 A  
HETATM   52  C   UNL     1     -11.426   8.587  68.952  1.00  0.00     0.828 A  
HETATM   53  C   UNL     1     -11.843   7.841  71.201  1.00  0.00    -0.311 A  
HETATM   54  C   UNL     1     -12.228   6.347  69.340  1.00  0.00     1.353 A  
HETATM   55  C   UNL     1     -11.435   8.835  70.320  1.00  0.00    -0.102 A  
HETATM   56  C   UNL     1     -12.277   6.611  70.709  1.00  0.00    -0.302 A  
ENDBRANCH  50  51
ENDBRANCH  16  50
ENDBRANCH  13  16
ENDBRANCH   7  12
ENDBRANCH   4   7
ENDBRANCH   2   3
TORSDOF 18
ENDMDL
MODEL       70
REMARK 921   NORMALIZED FREE ENERGY PREDICTED BY IDOCK:    6.02 KCAL/MOL
REMARK 922        TOTAL FREE ENERGY PREDICTED BY IDOCK:    7.61 KCAL/MOL
REMARK 923 INTER-LIGAND FREE ENERGY PREDICTED BY IDOCK:   -0.78 KCAL/MOL
REMARK 924 INTRA-LIGAND FREE ENERGY PREDICTED BY IDOCK:    8.39 KCAL/MOL
REMARK 927      BINDING AFFINITY PREDICTED BY RF-SCORE:    0.00 PKD
ROOT
HETATM    1  C   UNL     1      -5.145   9.512  66.258  1.00  0.00    -0.039 C  
HETATM    2  O   UNL     1      -5.312   8.381  65.398  1.00  0.00    -0.034 OA 
ENDROOT
BRANCH   2   3
HETATM    3  C   UNL     1      -6.421   7.631  65.627  1.00  0.00    -0.042 C  
HETATM    4  N   UNL     1      -6.896   7.173  64.438  1.00  0.00    -0.046 N  
HETATM    5  O   UNL     1      -6.945   7.445  66.717  1.00  0.00    -0.073 OA 
HETATM    6  H   UNL     1      -6.308   7.271  63.610  1.00  0.00     0.000 HD 
BRANCH   4   7
HETATM    7  C   UNL     1      -8.205   6.549  64.290  1.00  0.00     0.013 C  
BRANCH   7   8
HETATM    8  C   UNL     1      -8.126   4.974  64.387  1.00  0.00    -0.117 C  
HETATM    9  C   UNL     1      -9.491   4.421  64.846  1.00  0.00    -0.164 C  
HETATM   10  C   UNL     1      -7.025   4.472  65.346  1.00  0.00    -0.062 C  
HETATM   11  C   UNL     1      -7.818   4.330  63.013  1.00  0.00    -0.067 C  
ENDBRANCH   7   8
BRANCH   7  12
HETATM   12  C   UNL     1      -9.139   7.186  65.365  1.00  0.00     0.325 C  
HETATM   13  N   UNL     1      -9.083   8.561  65.505  1.00  0.00    -0.379 N  
HETATM   14  O   UNL     1      -9.836   6.512  66.119  1.00  0.00    -0.036 OA 
HETATM   15  H   UNL     1      -8.367   9.085  65.003  1.00  0.00     0.000 HD 
BRANCH  13  16
HETATM   16  C   UNL     1     -10.047   9.293  66.375  1.00  0.00    -0.267 C  
BRANCH  16  17
HETATM   17  C   UNL     1     -10.851  10.307  65.505  1.00  0.00     0.363 C  
HETATM   18  H   UNL     1     -12.649  10.359  64.788  1.00  0.00     0.000 HD 
HETATM   19  O   UNL     1     -12.160   9.741  65.318  1.00  0.00     5.443 OA 
BRANCH  17  20
HETATM   20  C   UNL     1     -10.964  11.710  66.160  1.00  0.00    -0.288 C  
BRANCH  20  21
HETATM   21  N   UNL     1      -9.980  12.038  67.232  1.00  0.00    -0.194 NA 
BRANCH  21  22
HETATM   22  N   UNL     1     -10.533  12.865  68.270  1.00  0.00    -0.236 N  
HETATM   23  C   UNL     1     -11.737  13.538  68.108  1.00  0.00    -0.361 C  
HETATM   24  H   UNL     1     -10.027  12.961  69.150  1.00  0.00     0.000 HD 
HETATM   25  O   UNL     1     -12.332  13.591  67.036  1.00  0.00    -0.335 OA 
BRANCH  23  26
HETATM   26  C   UNL     1     -12.200  14.289  69.386  1.00  0.00    -0.278 C  
BRANCH  26  27
HETATM   27  N   UNL     1     -12.845  13.333  70.285  1.00  0.00     0.048 N  
HETATM   28  O   UNL     1     -12.020  11.430  69.326  1.00  0.00    -0.316 OA 
HETATM   29  C   UNL     1     -12.690  11.987  70.183  1.00  0.00     0.217 C  
HETATM   30  H   UNL     1     -13.443  13.695  71.027  1.00  0.00     0.000 HD 
BRANCH  29  31
HETATM   31  O   UNL     1     -13.374  11.381  71.181  1.00  0.00    -0.080 OA 
HETATM   32  C   UNL     1     -12.752  10.205  71.709  1.00  0.00    -0.434 C  
ENDBRANCH  29  31
ENDBRANCH  26  27
BRANCH  26  33
HETATM   33  C   UNL     1     -11.053  15.082  70.094  1.00  0.00    -0.271 C  
HETATM   34  C   UNL     1     -10.894  16.531  69.589  1.00  0.00    -0.322 C  
HETATM   35  C   UNL     1     -11.318  15.100  71.614  1.00  0.00    -0.394 C  
HETATM   36  C   UNL     1      -9.703  14.368  69.862  1.00  0.00     0.706 C  
ENDBRANCH  26  33
ENDBRANCH  23  26
ENDBRANCH  21  22
BRANCH  21  37
HETATM   37  C   UNL     1      -8.710  12.618  66.744  1.00  0.00    -0.134 C  
BRANCH  37  38
HETATM   38  C   UNL     1      -8.566  14.132  66.784  1.00  0.00    -0.097 A  
HETATM   39  C   UNL     1      -9.481  15.013  66.194  1.00  0.00    -0.347 A  
HETATM   40  C   UNL     1      -9.324  16.389  66.269  1.00  0.00    -0.348 A  
HETATM   41  C   UNL     1      -7.483  14.690  67.473  1.00  0.00    -0.217 A  
HETATM   42  C   UNL     1      -8.263  16.956  66.975  1.00  0.00    -0.228 A  
HETATM   43  C   UNL     1      -7.340  16.081  67.573  1.00  0.00    -0.190 A  
BRANCH  42  44
HETATM   44  C   UNL     1      -8.175  18.416  67.078  1.00  0.00    -0.247 A  
HETATM   45  C   UNL     1      -7.884  19.231  65.989  1.00  0.00    -0.274 A  
HETATM   46  C   UNL     1      -7.766  20.603  66.189  1.00  0.00     0.061 A  
HETATM   47  C   UNL     1      -7.930  21.124  67.466  1.00  0.00     0.090 A  
HETATM   48  C   UNL     1      -8.204  20.248  68.499  1.00  0.00     0.187 A  
HETATM   49  N   UNL     1      -8.328  18.919  68.333  1.00  0.00    -0.335 NA 
ENDBRANCH  42  44
ENDBRANCH  37  38
ENDBRANCH  21  37
ENDBRANCH  20  21
ENDBRANCH  17  20
ENDBRANCH  16  17
BRANCH  16  50
HETATM   50  C   UNL     1      -9.379   9.857  67.658  1.00  0.00    -0.156 C  
BRANCH  50  51
HETATM   51  C   UNL     1      -9.130   8.818  68.722  1.00  0.00    -0.138 A  
HETATM   52  C   UNL     1      -8.619   9.171  69.978  1.00  0.00    -0.172 A  
HETATM   53  C   UNL     1      -8.337   6.851  70.549  1.00  0.00    -0.129 A  
HETATM   54  C   UNL     1      -9.348   7.464  68.441  1.00  0.00    -0.144 A  
HETATM   55  C   UNL     1      -8.187   8.195  70.869  1.00  0.00    -0.110 A  
HETATM   56  C   UNL     1      -8.952   6.485  69.353  1.00  0.00    -0.132 A  
ENDBRANCH  50  51
ENDBRANCH  16  50
ENDBRANCH  13  16
ENDBRANCH   7  12
ENDBRANCH   4   7
ENDBRANCH   2   3
TORSDOF 18
ENDMDL
MODEL       71
REMARK 921   NORMALIZED FREE ENERGY PREDICTED BY IDOCK:    6.50 KCAL/MOL
REMARK 922        TOTAL FREE ENERGY PREDICTED BY IDOCK:    8.60 KCAL/MOL
REMARK 923 INTER-LIGAND FREE ENERGY PREDICTED BY IDOCK:    0.56 KCAL/MOL
REMARK 924 INTRA-LIGAND FREE ENERGY PREDICTED BY IDOCK:    8.04 KCAL/MOL
REMARK 927      BINDING AFFINITY PREDICTED BY RF-SCORE:    0.00 PKD
ROOT
HETATM    1  C   UNL     1     -11.855  18.787  67.678  1.00  0.00     2.135 C  
HETATM    2  O   UNL     1     -11.329  18.223  68.883  1.00  0.00     1.266 OA 
ENDROOT
BRANCH   2   3
HETATM    3  C   UNL     1     -11.464  16.878  69.008  1.00  0.00     0.319 C  
HETATM    4  N   UNL     1     -10.953  16.494  70.209  1.00  0.00    -0.371 N  
HETATM    5  O   UNL     1     -11.915  16.124  68.158  1.00  0.00    -0.039 OA 
HETATM    6  H   UNL     1     -10.731  17.215  70.895  1.00  0.00     0.000 HD 
BRANCH   4   7
HETATM    7  C   UNL     1     -10.709  15.100  70.562  1.00  0.00    -0.149 C  
BRANCH   7   8
HETATM    8  C   UNL     1     -12.040  14.249  70.570  1.00  0.00    -0.413 C  
HETATM    9  C   UNL     1     -12.032  13.301  71.787  1.00  0.00     0.961 C  
HETATM   10  C   UNL     1     -12.247  13.422  69.282  1.00  0.00    -0.222 C  
HETATM   11  C   UNL     1     -13.294  15.146  70.705  1.00  0.00    -0.389 C  
ENDBRANCH   7   8
BRANCH   7  12
HETATM   12  C   UNL     1      -9.636  14.559  69.567  1.00  0.00     0.248 C  
HETATM   13  N   UNL     1      -9.827  13.280  69.077  1.00  0.00    -0.406 N  
HETATM   14  O   UNL     1      -8.620  15.188  69.284  1.00  0.00    -0.218 OA 
HETATM   15  H   UNL     1     -10.574  12.703  69.465  1.00  0.00     0.000 HD 
BRANCH  13  16
HETATM   16  C   UNL     1      -8.965  12.726  67.996  1.00  0.00    -0.196 C  
BRANCH  16  17
HETATM   17  C   UNL     1      -9.869  12.219  66.831  1.00  0.00    -0.209 C  
HETATM   18  H   UNL     1      -9.556  11.706  64.989  1.00  0.00     0.000 HD 
HETATM   19  O   UNL     1      -9.005  12.015  65.699  1.00  0.00    -0.015 OA 
BRANCH  17  20
HETATM   20  C   UNL     1     -10.620  10.904  67.175  1.00  0.00    -0.255 C  
BRANCH  20  21
HETATM   21  N   UNL     1      -9.854   9.631  67.035  1.00  0.00    -0.183 NA 
BRANCH  21  22
HETATM   22  N   UNL     1      -9.067   9.578  65.833  1.00  0.00    -0.170 N  
HETATM   23  C   UNL     1      -7.702   9.330  65.861  1.00  0.00    -0.098 C  
HETATM   24  H   UNL     1      -9.525   9.726  64.934  1.00  0.00     0.000 HD 
HETATM   25  O   UNL     1      -7.053   9.284  66.901  1.00  0.00    -0.081 OA 
BRANCH  23  26
HETATM   26  C   UNL     1      -7.068   9.213  64.447  1.00  0.00    -0.091 C  
BRANCH  26  27
HETATM   27  N   UNL     1      -6.418   7.908  64.331  1.00  0.00    -0.056 N  
HETATM   28  O   UNL     1      -5.185   8.024  66.251  1.00  0.00    -0.024 OA 
HETATM   29  C   UNL     1      -5.542   7.423  65.249  1.00  0.00    -0.033 C  
HETATM   30  H   UNL     1      -6.634   7.331  63.518  1.00  0.00     0.000 HD 
BRANCH  29  31
HETATM   31  O   UNL     1      -5.152   6.180  64.882  1.00  0.00    -0.013 OA 
HETATM   32  C   UNL     1      -5.172   5.934  63.473  1.00  0.00    -0.017 C  
ENDBRANCH  29  31
ENDBRANCH  26  27
BRANCH  26  33
HETATM   33  C   UNL     1      -8.081   9.472  63.285  1.00  0.00    -0.151 C  
HETATM   34  C   UNL     1      -9.490   9.877  63.766  1.00  0.00    -0.181 C  
HETATM   35  C   UNL     1      -7.521  10.578  62.366  1.00  0.00    -0.168 C  
HETATM   36  C   UNL     1      -8.241   8.192  62.435  1.00  0.00    -0.161 C  
ENDBRANCH  26  33
ENDBRANCH  23  26
ENDBRANCH  21  22
BRANCH  21  37
HETATM   37  C   UNL     1     -10.672   8.405  67.162  1.00  0.00    -0.152 C  
BRANCH  37  38
HETATM   38  C   UNL     1     -10.115   7.123  66.563  1.00  0.00    -0.154 A  
HETATM   39  C   UNL     1     -10.842   6.288  65.706  1.00  0.00     1.524 A  
HETATM   40  C   UNL     1     -10.291   5.136  65.164  1.00  0.00     0.420 A  
HETATM   41  C   UNL     1      -8.793   6.762  66.848  1.00  0.00    -0.120 A  
HETATM   42  C   UNL     1      -8.967   4.781  65.422  1.00  0.00    -0.149 A  
HETATM   43  C   UNL     1      -8.226   5.613  66.279  1.00  0.00    -0.108 A  
BRANCH  42  44
HETATM   44  C   UNL     1      -8.411   3.587  64.776  1.00  0.00    -0.100 A  
HETATM   45  C   UNL     1      -7.799   2.563  65.489  1.00  0.00    -0.078 A  
HETATM   46  C   UNL     1      -7.250   1.492  64.790  1.00  0.00    -0.048 A  
HETATM   47  C   UNL     1      -7.316   1.476  63.402  1.00  0.00    -0.044 A  
HETATM   48  C   UNL     1      -7.929   2.539  62.765  1.00  0.00    -0.068 A  
HETATM   49  N   UNL     1      -8.472   3.582  63.417  1.00  0.00    -0.089 NA 
ENDBRANCH  42  44
ENDBRANCH  37  38
ENDBRANCH  21  37
ENDBRANCH  20  21
ENDBRANCH  17  20
ENDBRANCH  16  17
BRANCH  16  50
HETATM   50  C   UNL     1      -7.905  11.727  68.535  1.00  0.00    -0.144 C  
BRANCH  50  51
HETATM   51  C   UNL     1      -8.462  10.713  69.502  1.00  0.00     0.008 A  
HETATM   52  C   UNL     1      -9.832  10.662  69.794  1.00  0.00     0.051 A  
HETATM   53  C   UNL     1      -9.427   9.078  71.559  1.00  0.00    -0.316 A  
HETATM   54  C   UNL     1      -7.597   9.843  70.177  1.00  0.00    -0.185 A  
HETATM   55  C   UNL     1     -10.306   9.882  70.843  1.00  0.00    -0.119 A  
HETATM   56  C   UNL     1      -8.080   9.028  71.202  1.00  0.00    -0.185 A  
ENDBRANCH  50  51
ENDBRANCH  16  50
ENDBRANCH  13  16
ENDBRANCH   7  12
ENDBRANCH   4   7
ENDBRANCH   2   3
TORSDOF 18
ENDMDL
MODEL       72
REMARK 921   NORMALIZED FREE ENERGY PREDICTED BY IDOCK:    6.58 KCAL/MOL
REMARK 922        TOTAL FREE ENERGY PREDICTED BY IDOCK:    8.76 KCAL/MOL
REMARK 923 INTER-LIGAND FREE ENERGY PREDICTED BY IDOCK:   -6.94 KCAL/MOL
REMARK 924 INTRA-LIGAND FREE ENERGY PREDICTED BY IDOCK:   15.70 KCAL/MOL
REMARK 927      BINDING AFFINITY PREDICTED BY RF-SCORE:    0.00 PKD
ROOT
HETATM    1  C   UNL     1      -8.393   3.732  67.032  1.00  0.00    -0.099 C  
HETATM    2  O   UNL     1      -9.698   3.888  67.598  1.00  0.00    -0.179 OA 
ENDROOT
BRANCH   2   3
HETATM    3  C   UNL     1      -9.895   5.026  68.309  1.00  0.00    -0.150 C  
HETATM    4  N   UNL     1      -9.878   6.087  67.457  1.00  0.00    -0.118 N  
HETATM    5  O   UNL     1     -10.010   5.098  69.525  1.00  0.00    -0.190 OA 
HETATM    6  H   UNL     1      -9.915   5.904  66.454  1.00  0.00     0.000 HD 
BRANCH   4   7
HETATM    7  C   UNL     1      -9.811   7.471  67.909  1.00  0.00    -0.154 C  
BRANCH   7   8
HETATM    8  C   UNL     1      -9.786   7.580  69.485  1.00  0.00    -0.164 C  
HETATM    9  C   UNL     1     -11.232   7.555  70.022  1.00  0.00    -0.173 C  
HETATM   10  C   UNL     1      -9.074   8.850  70.001  1.00  0.00    -0.174 C  
HETATM   11  C   UNL     1      -9.044   6.385  70.131  1.00  0.00    -0.154 C  
ENDBRANCH   7   8
BRANCH   7  12
HETATM   12  C   UNL     1      -8.564   8.114  67.227  1.00  0.00    -0.124 C  
HETATM   13  N   UNL     1      -7.752   8.901  68.023  1.00  0.00    -0.100 N  
HETATM   14  O   UNL     1      -8.340   8.007  66.024  1.00  0.00    -0.112 OA 
HETATM   15  H   UNL     1      -8.052   9.130  68.970  1.00  0.00     0.000 HD 
BRANCH  13  16
HETATM   16  C   UNL     1      -6.448   9.423  67.525  1.00  0.00    -0.063 C  
BRANCH  16  17
HETATM   17  C   UNL     1      -6.665  10.842  66.915  1.00  0.00    -0.099 C  
HETATM   18  H   UNL     1      -5.557  12.076  65.914  1.00  0.00     0.000 HD 
HETATM   19  O   UNL     1      -5.425  11.212  66.286  1.00  0.00    -0.118 OA 
BRANCH  17  20
HETATM   20  C   UNL     1      -7.823  10.886  65.881  1.00  0.00    -0.090 C  
BRANCH  20  21
HETATM   21  N   UNL     1      -9.042  11.655  66.264  1.00  0.00    -0.215 NA 
BRANCH  21  22
HETATM   22  N   UNL     1      -8.749  12.989  66.711  1.00  0.00    -0.394 N  
HETATM   23  C   UNL     1      -9.144  14.107  65.991  1.00  0.00     0.164 C  
HETATM   24  H   UNL     1      -8.234  13.118  67.582  1.00  0.00     0.000 HD 
HETATM   25  O   UNL     1      -9.637  14.039  64.869  1.00  0.00     0.073 OA 
BRANCH  23  26
HETATM   26  C   UNL     1      -8.815  15.448  66.703  1.00  0.00    -0.295 C  
BRANCH  26  27
HETATM   27  N   UNL     1      -9.940  15.810  67.565  1.00  0.00    -0.234 N  
HETATM   28  O   UNL     1     -11.521  15.980  65.924  1.00  0.00     0.153 OA 
HETATM   29  C   UNL     1     -11.197  16.033  67.101  1.00  0.00    -0.002 C  
HETATM   30  H   UNL     1      -9.772  15.900  68.567  1.00  0.00     0.000 HD 
BRANCH  29  31
HETATM   31  O   UNL     1     -12.018  16.303  68.143  1.00  0.00     0.035 OA 
HETATM   32  C   UNL     1     -11.355  16.745  69.331  1.00  0.00     0.166 C  
ENDBRANCH  29  31
ENDBRANCH  26  27
BRANCH  26  33
HETATM   33  C   UNL     1      -7.460  15.424  67.483  1.00  0.00    -0.215 C  
HETATM   34  C   UNL     1      -6.876  14.009  67.672  1.00  0.00    -0.195 C  
HETATM   35  C   UNL     1      -6.434  16.302  66.736  1.00  0.00     0.040 C  
HETATM   36  C   UNL     1      -7.656  16.028  68.892  1.00  0.00    -0.192 C  
ENDBRANCH  26  33
ENDBRANCH  23  26
ENDBRANCH  21  22
BRANCH  21  37
HETATM   37  C   UNL     1      -9.917  10.973  67.243  1.00  0.00    -0.181 C  
BRANCH  37  38
HETATM   38  C   UNL     1     -10.622  11.835  68.278  1.00  0.00    -0.236 A  
HETATM   39  C   UNL     1     -11.913  11.576  68.754  1.00  0.00    -0.335 A  
HETATM   40  C   UNL     1     -12.514  12.377  69.714  1.00  0.00     0.071 A  
HETATM   41  C   UNL     1      -9.942  12.933  68.819  1.00  0.00    -0.010 A  
HETATM   42  C   UNL     1     -11.836  13.457  70.278  1.00  0.00    -0.316 A  
HETATM   43  C   UNL     1     -10.538  13.725  69.810  1.00  0.00     0.406 A  
BRANCH  42  44
HETATM   44  C   UNL     1     -12.491  14.236  71.334  1.00  0.00    -0.360 A  
HETATM   45  C   UNL     1     -13.872  14.382  71.415  1.00  0.00    -0.409 A  
HETATM   46  C   UNL     1     -14.405  15.185  72.418  1.00  0.00    -0.453 A  
HETATM   47  C   UNL     1     -13.550  15.827  73.306  1.00  0.00    -0.495 A  
HETATM   48  C   UNL     1     -12.189  15.643  73.152  1.00  0.00    -0.477 A  
HETATM   49  N   UNL     1     -11.648  14.869  72.194  1.00  0.00    -0.292 NA 
ENDBRANCH  42  44
ENDBRANCH  37  38
ENDBRANCH  21  37
ENDBRANCH  20  21
ENDBRANCH  17  20
ENDBRANCH  16  17
BRANCH  16  50
HETATM   50  C   UNL     1      -5.697   8.394  66.637  1.00  0.00    -0.043 C  
BRANCH  50  51
HETATM   51  C   UNL     1      -5.775   8.694  65.161  1.00  0.00    -0.047 A  
HETATM   52  C   UNL     1      -6.299   7.761  64.257  1.00  0.00    -0.053 A  
HETATM   53  C   UNL     1      -5.581   9.113  62.400  1.00  0.00    -0.086 A  
HETATM   54  C   UNL     1      -5.257   9.896  64.664  1.00  0.00    -0.070 A  
HETATM   55  C   UNL     1      -6.166   7.949  62.885  1.00  0.00    -0.072 A  
HETATM   56  C   UNL     1      -5.162  10.103  63.287  1.00  0.00    -0.109 A  
ENDBRANCH  50  51
ENDBRANCH  16  50
ENDBRANCH  13  16
ENDBRANCH   7  12
ENDBRANCH   4   7
ENDBRANCH   2   3
TORSDOF 18
ENDMDL
MODEL       73
REMARK 921   NORMALIZED FREE ENERGY PREDICTED BY IDOCK:    6.76 KCAL/MOL
REMARK 922        TOTAL FREE ENERGY PREDICTED BY IDOCK:    9.13 KCAL/MOL
REMARK 923 INTER-LIGAND FREE ENERGY PREDICTED BY IDOCK:    1.07 KCAL/MOL
REMARK 924 INTRA-LIGAND FREE ENERGY PREDICTED BY IDOCK:    8.07 KCAL/MOL
REMARK 927      BINDING AFFINITY PREDICTED BY RF-SCORE:    0.00 PKD
ROOT
HETATM    1  C   UNL     1     -11.842  18.777  67.665  1.00  0.00     2.135 C  
HETATM    2  O   UNL     1     -11.302  18.208  68.862  1.00  0.00     1.140 OA 
ENDROOT
BRANCH   2   3
HETATM    3  C   UNL     1     -11.431  16.862  68.980  1.00  0.00     0.319 C  
HETATM    4  N   UNL     1     -10.925  16.475  70.182  1.00  0.00    -0.384 N  
HETATM    5  O   UNL     1     -11.875  16.109  68.124  1.00  0.00    -0.152 OA 
HETATM    6  H   UNL     1     -10.709  17.193  70.872  1.00  0.00     0.000 HD 
BRANCH   4   7
HETATM    7  C   UNL     1     -10.677  15.080  70.529  1.00  0.00    -0.067 C  
BRANCH   7   8
HETATM    8  C   UNL     1     -11.987  14.203  70.434  1.00  0.00    -0.400 C  
HETATM    9  C   UNL     1     -12.078  13.573  69.029  1.00  0.00    -0.330 C  
HETATM   10  C   UNL     1     -13.280  14.997  70.720  1.00  0.00    -0.397 C  
HETATM   11  C   UNL     1     -11.971  13.036  71.451  1.00  0.00     0.628 C  
ENDBRANCH   7   8
BRANCH   7  12
HETATM   12  C   UNL     1      -9.528  14.576  69.602  1.00  0.00     0.411 C  
HETATM   13  N   UNL     1      -9.661  13.303  69.079  1.00  0.00    -0.363 N  
HETATM   14  O   UNL     1      -8.507  15.229  69.400  1.00  0.00    -0.237 OA 
HETATM   15  H   UNL     1     -10.421  12.706  69.404  1.00  0.00     0.000 HD 
BRANCH  13  16
HETATM   16  C   UNL     1      -8.716  12.784  68.050  1.00  0.00    -0.194 C  
BRANCH  16  17
HETATM   17  C   UNL     1      -9.531  12.213  66.850  1.00  0.00    -0.210 C  
HETATM   18  H   UNL     1      -9.103  11.723  65.025  1.00  0.00     0.000 HD 
HETATM   19  O   UNL     1      -8.607  12.071  65.756  1.00  0.00     0.157 OA 
BRANCH  17  20
HETATM   20  C   UNL     1     -10.199  10.848  67.166  1.00  0.00    -0.210 C  
BRANCH  20  21
HETATM   21  N   UNL     1      -9.341   9.633  67.056  1.00  0.00    -0.144 NA 
BRANCH  21  22
HETATM   22  N   UNL     1      -8.540   9.616  65.862  1.00  0.00    -0.130 N  
HETATM   23  C   UNL     1      -7.170   9.401  65.901  1.00  0.00    -0.092 C  
HETATM   24  H   UNL     1      -8.992   9.767  64.960  1.00  0.00     0.000 HD 
HETATM   25  O   UNL     1      -6.531   9.356  66.947  1.00  0.00    -0.065 OA 
BRANCH  23  26
HETATM   26  C   UNL     1      -6.518   9.321  64.493  1.00  0.00    -0.077 C  
BRANCH  26  27
HETATM   27  N   UNL     1      -6.278   7.916  64.166  1.00  0.00    -0.057 N  
HETATM   28  O   UNL     1      -5.505   7.268  66.216  1.00  0.00    -0.023 OA 
HETATM   29  C   UNL     1      -5.803   7.010  65.060  1.00  0.00    -0.036 C  
HETATM   30  H   UNL     1      -6.478   7.600  63.217  1.00  0.00     0.000 HD 
BRANCH  29  31
HETATM   31  O   UNL     1      -5.733   5.794  64.470  1.00  0.00    -0.022 OA 
HETATM   32  C   UNL     1      -6.751   5.537  63.497  1.00  0.00    -0.033 C  
ENDBRANCH  29  31
ENDBRANCH  26  27
BRANCH  26  33
HETATM   33  C   UNL     1      -7.341  10.052  63.382  1.00  0.00    -0.137 C  
HETATM   34  C   UNL     1      -6.526  11.094  62.588  1.00  0.00     0.309 C  
HETATM   35  C   UNL     1      -7.911   9.001  62.405  1.00  0.00    -0.123 C  
HETATM   36  C   UNL     1      -8.535  10.796  64.019  1.00  0.00     0.021 C  
ENDBRANCH  26  33
ENDBRANCH  23  26
ENDBRANCH  21  22
BRANCH  21  37
HETATM   37  C   UNL     1     -10.067   8.352  67.198  1.00  0.00    -0.265 C  
BRANCH  37  38
HETATM   38  C   UNL     1      -9.387   7.240  67.981  1.00  0.00    -0.130 A  
HETATM   39  C   UNL     1      -8.209   7.417  68.716  1.00  0.00    -0.129 A  
HETATM   40  C   UNL     1      -7.630   6.380  69.433  1.00  0.00    -0.095 A  
HETATM   41  C   UNL     1      -9.980   5.972  68.006  1.00  0.00    -0.162 A  
HETATM   42  C   UNL     1      -8.226   5.121  69.485  1.00  0.00    -0.093 A  
HETATM   43  C   UNL     1      -9.411   4.931  68.753  1.00  0.00    -0.184 A  
BRANCH  42  44
HETATM   44  C   UNL     1      -7.609   4.075  70.308  1.00  0.00    -0.045 A  
HETATM   45  C   UNL     1      -7.810   2.719  70.076  1.00  0.00    -0.049 A  
HETATM   46  C   UNL     1      -7.230   1.796  70.941  1.00  0.00    -0.033 A  
HETATM   47  C   UNL     1      -6.476   2.248  72.017  1.00  0.00    -0.015 A  
HETATM   48  C   UNL     1      -6.334   3.612  72.189  1.00  0.00    -0.014 A  
HETATM   49  N   UNL     1      -6.879   4.525  71.365  1.00  0.00    -0.033 NA 
ENDBRANCH  42  44
ENDBRANCH  37  38
ENDBRANCH  21  37
ENDBRANCH  20  21
ENDBRANCH  17  20
ENDBRANCH  16  17
BRANCH  16  50
HETATM   50  C   UNL     1      -7.631  11.853  68.656  1.00  0.00    -0.119 C  
BRANCH  50  51
HETATM   51  C   UNL     1      -8.171  10.859  69.654  1.00  0.00     0.258 A  
HETATM   52  C   UNL     1      -9.543  10.587  69.739  1.00  0.00     0.025 A  
HETATM   53  C   UNL     1      -9.192   9.297  71.739  1.00  0.00     0.227 A  
HETATM   54  C   UNL     1      -7.304  10.239  70.562  1.00  0.00     0.237 A  
HETATM   55  C   UNL     1     -10.055   9.846  70.798  1.00  0.00    -0.073 A  
HETATM   56  C   UNL     1      -7.815   9.460  71.600  1.00  0.00     0.525 A  
ENDBRANCH  50  51
ENDBRANCH  16  50
ENDBRANCH  13  16
ENDBRANCH   7  12
ENDBRANCH   4   7
ENDBRANCH   2   3
TORSDOF 18
ENDMDL
MODEL       74
REMARK 921   NORMALIZED FREE ENERGY PREDICTED BY IDOCK:    7.41 KCAL/MOL
REMARK 922        TOTAL FREE ENERGY PREDICTED BY IDOCK:   10.47 KCAL/MOL
REMARK 923 INTER-LIGAND FREE ENERGY PREDICTED BY IDOCK:    2.46 KCAL/MOL
REMARK 924 INTRA-LIGAND FREE ENERGY PREDICTED BY IDOCK:    8.01 KCAL/MOL
REMARK 927      BINDING AFFINITY PREDICTED BY RF-SCORE:    0.00 PKD
ROOT
HETATM    1  C   UNL     1     -12.708  13.940  71.653  1.00  0.00    -0.330 C  
HETATM    2  O   UNL     1     -11.316  13.612  71.592  1.00  0.00     1.449 OA 
ENDROOT
BRANCH   2   3
HETATM    3  C   UNL     1     -10.803  13.467  70.344  1.00  0.00     1.412 C  
HETATM    4  N   UNL     1      -9.886  12.462  70.359  1.00  0.00     3.379 N  
HETATM    5  O   UNL     1     -11.075  14.162  69.375  1.00  0.00    -0.251 OA 
HETATM    6  H   UNL     1      -9.839  11.860  71.181  1.00  0.00     0.000 HD 
BRANCH   4   7
HETATM    7  C   UNL     1      -8.968  12.206  69.256  1.00  0.00     0.842 C  
BRANCH   7   8
HETATM    8  C   UNL     1      -8.159  13.499  68.844  1.00  0.00     0.121 C  
HETATM    9  C   UNL     1      -7.518  13.280  67.458  1.00  0.00    -0.163 C  
HETATM   10  C   UNL     1      -7.059  13.883  69.858  1.00  0.00     0.301 C  
HETATM   11  C   UNL     1      -9.080  14.737  68.726  1.00  0.00    -0.191 C  
ENDBRANCH   7   8
BRANCH   7  12
HETATM   12  C   UNL     1      -8.054  11.018  69.689  1.00  0.00     0.347 C  
HETATM   13  N   UNL     1      -8.687   9.856  70.090  1.00  0.00    -0.333 N  
HETATM   14  O   UNL     1      -6.831  11.116  69.759  1.00  0.00    -0.134 OA 
HETATM   15  H   UNL     1      -9.701   9.853  70.203  1.00  0.00     0.000 HD 
BRANCH  13  16
HETATM   16  C   UNL     1      -7.920   8.607  70.360  1.00  0.00    -0.101 C  
BRANCH  16  17
HETATM   17  C   UNL     1      -8.906   7.400  70.395  1.00  0.00    -0.149 C  
HETATM   18  H   UNL     1     -10.833   7.214  70.320  1.00  0.00     0.000 HD 
HETATM   19  O   UNL     1     -10.232   7.950  70.299  1.00  0.00    -0.195 OA 
BRANCH  17  20
HETATM   20  C   UNL     1      -8.663   6.386  69.243  1.00  0.00    -0.125 C  
BRANCH  20  21
HETATM   21  N   UNL     1      -9.221   6.736  67.905  1.00  0.00    -0.114 NA 
BRANCH  21  22
HETATM   22  N   UNL     1      -8.344   7.573  67.132  1.00  0.00    -0.120 N  
HETATM   23  C   UNL     1      -7.987   7.254  65.829  1.00  0.00    -0.122 C  
HETATM   24  H   UNL     1      -7.973   8.424  67.553  1.00  0.00     0.000 HD 
HETATM   25  O   UNL     1      -8.271   6.183  65.302  1.00  0.00    -0.133 OA 
BRANCH  23  26
HETATM   26  C   UNL     1      -7.116   8.344  65.145  1.00  0.00    -0.075 C  
BRANCH  26  27
HETATM   27  N   UNL     1      -7.894   8.960  64.071  1.00  0.00    -0.129 N  
HETATM   28  O   UNL     1      -6.288  10.412  63.341  1.00  0.00    -0.140 OA 
HETATM   29  C   UNL     1      -7.409   9.932  63.256  1.00  0.00    -0.132 C  
HETATM   30  H   UNL     1      -8.853   8.644  63.927  1.00  0.00     0.000 HD 
BRANCH  29  31
HETATM   31  O   UNL     1      -8.351  10.262  62.342  1.00  0.00    -0.141 OA 
HETATM   32  C   UNL     1      -9.641   9.691  62.575  1.00  0.00     0.309 C  
ENDBRANCH  29  31
ENDBRANCH  26  27
BRANCH  26  33
HETATM   33  C   UNL     1      -6.545   9.404  66.142  1.00  0.00    -0.070 C  
HETATM   34  C   UNL     1      -5.406  10.262  65.554  1.00  0.00    -0.079 C  
HETATM   35  C   UNL     1      -7.691  10.328  66.605  1.00  0.00    -0.113 C  
HETATM   36  C   UNL     1      -5.981   8.694  67.393  1.00  0.00    -0.047 C  
ENDBRANCH  26  33
ENDBRANCH  23  26
ENDBRANCH  21  22
BRANCH  21  37
HETATM   37  C   UNL     1     -10.580   7.320  67.939  1.00  0.00    -0.202 C  
BRANCH  37  38
HETATM   38  C   UNL     1     -10.749   8.740  67.420  1.00  0.00    -0.216 A  
HETATM   39  C   UNL     1     -10.578   9.101  66.079  1.00  0.00     0.534 A  
HETATM   40  C   UNL     1     -10.761  10.405  65.642  1.00  0.00     0.005 A  
HETATM   41  C   UNL     1     -11.131   9.745  68.316  1.00  0.00    -0.158 A  
HETATM   42  C   UNL     1     -11.166  11.408  66.522  1.00  0.00    -0.276 A  
HETATM   43  C   UNL     1     -11.343  11.057  67.871  1.00  0.00    -0.381 A  
BRANCH  42  44
HETATM   44  C   UNL     1     -11.406  12.758  66.000  1.00  0.00    -0.321 A  
HETATM   45  C   UNL     1     -12.068  13.740  66.729  1.00  0.00    -0.460 A  
HETATM   46  C   UNL     1     -12.302  14.975  66.135  1.00  0.00     0.356 A  
HETATM   47  C   UNL     1     -11.881  15.197  64.830  1.00  0.00    -0.291 A  
HETATM   48  C   UNL     1     -11.242  14.166  64.166  1.00  0.00    -0.035 A  
HETATM   49  N   UNL     1     -10.999  12.965  64.718  1.00  0.00    -0.304 NA 
ENDBRANCH  42  44
ENDBRANCH  37  38
ENDBRANCH  21  37
ENDBRANCH  20  21
ENDBRANCH  17  20
ENDBRANCH  16  17
BRANCH  16  50
HETATM   50  C   UNL     1      -6.959   8.751  71.572  1.00  0.00    -0.091 C  
BRANCH  50  51
HETATM   51  C   UNL     1      -6.924   7.538  72.468  1.00  0.00    -0.069 A  
HETATM   52  C   UNL     1      -6.240   6.375  72.089  1.00  0.00    -0.042 A  
HETATM   53  C   UNL     1      -7.167   5.186  73.964  1.00  0.00    -0.083 A  
HETATM   54  C   UNL     1      -7.637   7.538  73.672  1.00  0.00    -0.132 A  
HETATM   55  C   UNL     1      -6.393   5.195  72.809  1.00  0.00    -0.047 A  
HETATM   56  C   UNL     1      -7.756   6.364  74.417  1.00  0.00    -0.098 A  
ENDBRANCH  50  51
ENDBRANCH  16  50
ENDBRANCH  13  16
ENDBRANCH   7  12
ENDBRANCH   4   7
ENDBRANCH   2   3
TORSDOF 18
ENDMDL
MODEL       75
REMARK 921   NORMALIZED FREE ENERGY PREDICTED BY IDOCK:    7.68 KCAL/MOL
REMARK 922        TOTAL FREE ENERGY PREDICTED BY IDOCK:   11.02 KCAL/MOL
REMARK 923 INTER-LIGAND FREE ENERGY PREDICTED BY IDOCK:   -3.13 KCAL/MOL
REMARK 924 INTRA-LIGAND FREE ENERGY PREDICTED BY IDOCK:   14.15 KCAL/MOL
REMARK 927      BINDING AFFINITY PREDICTED BY RF-SCORE:    0.00 PKD
ROOT
HETATM    1  C   UNL     1      -7.401   5.864  72.393  1.00  0.00    -0.091 C  
HETATM    2  O   UNL     1      -8.341   6.853  71.963  1.00  0.00    -0.110 OA 
ENDROOT
BRANCH   2   3
HETATM    3  C   UNL     1      -7.968   7.585  70.882  1.00  0.00    -0.096 C  
HETATM    4  N   UNL     1      -6.642   7.871  70.981  1.00  0.00    -0.037 N  
HETATM    5  O   UNL     1      -8.711   7.975  69.993  1.00  0.00    -0.133 OA 
HETATM    6  H   UNL     1      -6.091   7.382  71.686  1.00  0.00     0.000 HD 
BRANCH   4   7
HETATM    7  C   UNL     1      -5.971   8.844  70.127  1.00  0.00    -0.033 C  
BRANCH   7   8
HETATM    8  C   UNL     1      -5.946   8.388  68.615  1.00  0.00    -0.044 C  
HETATM    9  C   UNL     1      -5.355   6.966  68.520  1.00  0.00    -0.016 C  
HETATM   10  C   UNL     1      -5.138   9.336  67.701  1.00  0.00    -0.037 C  
HETATM   11  C   UNL     1      -7.370   8.326  68.011  1.00  0.00    -0.096 C  
ENDBRANCH   7   8
BRANCH   7  12
HETATM   12  C   UNL     1      -6.685  10.214  70.347  1.00  0.00    -0.132 C  
HETATM   13  N   UNL     1      -7.144  10.867  69.218  1.00  0.00    -0.112 N  
HETATM   14  O   UNL     1      -6.773  10.743  71.451  1.00  0.00     0.516 OA 
HETATM   15  H   UNL     1      -6.899  10.504  68.296  1.00  0.00     0.000 HD 
BRANCH  13  16
HETATM   16  C   UNL     1      -7.988  12.091  69.318  1.00  0.00     0.452 C  
BRANCH  16  17
HETATM   17  C   UNL     1      -9.274  11.896  68.459  1.00  0.00    -0.134 C  
HETATM   18  H   UNL     1     -10.449  10.401  68.088  1.00  0.00     0.000 HD 
HETATM   19  O   UNL     1      -9.665  10.520  68.611  1.00  0.00    -0.159 OA 
BRANCH  17  20
HETATM   20  C   UNL     1     -10.436  12.833  68.887  1.00  0.00    -0.078 C  
BRANCH  20  21
HETATM   21  N   UNL     1     -11.808  12.458  68.438  1.00  0.00    -0.332 NA 
BRANCH  21  22
HETATM   22  N   UNL     1     -12.293  11.253  69.055  1.00  0.00    -0.193 N  
HETATM   23  C   UNL     1     -11.598  10.055  68.970  1.00  0.00     0.069 C  
HETATM   24  H   UNL     1     -13.173  11.280  69.570  1.00  0.00     0.000 HD 
HETATM   25  O   UNL     1     -10.613   9.904  68.254  1.00  0.00    -0.205 OA 
BRANCH  23  26
HETATM   26  C   UNL     1     -12.245   8.907  69.794  1.00  0.00     1.150 C  
BRANCH  26  27
HETATM   27  N   UNL     1     -11.427   7.704  69.643  1.00  0.00    -0.441 N  
HETATM   28  O   UNL     1     -11.901   7.303  67.444  1.00  0.00     1.042 OA 
HETATM   29  C   UNL     1     -11.318   7.014  68.478  1.00  0.00     0.217 C  
HETATM   30  H   UNL     1     -10.912   7.365  70.456  1.00  0.00     0.000 HD 
BRANCH  29  31
HETATM   31  O   UNL     1     -10.459   5.981  68.649  1.00  0.00    -0.190 OA 
HETATM   32  C   UNL     1      -9.714   5.620  67.482  1.00  0.00    -0.124 C  
ENDBRANCH  29  31
ENDBRANCH  26  27
BRANCH  26  33
HETATM   33  C   UNL     1     -12.483   9.273  71.295  1.00  0.00    -0.389 C  
HETATM   34  C   UNL     1     -12.161  10.743  71.636  1.00  0.00    -0.184 C  
HETATM   35  C   UNL     1     -13.954   8.978  71.657  1.00  0.00    -0.386 C  
HETATM   36  C   UNL     1     -11.592   8.390  72.197  1.00  0.00    -0.442 C  
ENDBRANCH  26  33
ENDBRANCH  23  26
ENDBRANCH  21  22
BRANCH  21  37
HETATM   37  C   UNL     1     -11.974  12.377  66.970  1.00  0.00    -0.186 C  
BRANCH  37  38
HETATM   38  C   UNL     1     -10.853  11.731  66.170  1.00  0.00    -0.336 A  
HETATM   39  C   UNL     1      -9.707  12.415  65.748  1.00  0.00    -0.210 A  
HETATM   40  C   UNL     1      -8.698  11.784  65.036  1.00  0.00     0.580 A  
HETATM   41  C   UNL     1     -10.943  10.369  65.860  1.00  0.00     0.215 A  
HETATM   42  C   UNL     1      -8.766  10.422  64.744  1.00  0.00    -0.198 A  
HETATM   43  C   UNL     1      -9.911   9.724  65.165  1.00  0.00    -0.294 A  
BRANCH  42  44
HETATM   44  C   UNL     1      -7.644   9.787  64.043  1.00  0.00    -0.134 A  
HETATM   45  C   UNL     1      -7.218   8.494  64.323  1.00  0.00    -0.095 A  
HETATM   46  C   UNL     1      -6.110   7.991  63.648  1.00  0.00    -0.063 A  
HETATM   47  C   UNL     1      -5.452   8.791  62.723  1.00  0.00    -0.071 A  
HETATM   48  C   UNL     1      -5.928  10.071  62.510  1.00  0.00    -0.110 A  
HETATM   49  N   UNL     1      -6.999  10.580  63.145  1.00  0.00    -0.055 NA 
ENDBRANCH  42  44
ENDBRANCH  37  38
ENDBRANCH  21  37
ENDBRANCH  20  21
ENDBRANCH  17  20
ENDBRANCH  16  17
BRANCH  16  50
HETATM   50  C   UNL     1      -7.178  13.393  69.067  1.00  0.00    -0.018 C  
BRANCH  50  51
HETATM   51  C   UNL     1      -7.982  14.495  68.425  1.00  0.00    -0.141 A  
HETATM   52  C   UNL     1      -8.166  14.547  67.037  1.00  0.00    -0.164 A  
HETATM   53  C   UNL     1      -9.162  16.729  67.220  1.00  0.00    -0.234 A  
HETATM   54  C   UNL     1      -8.506  15.528  69.212  1.00  0.00    -0.265 A  
HETATM   55  C   UNL     1      -8.714  15.674  66.434  1.00  0.00    -0.354 A  
HETATM   56  C   UNL     1      -9.094  16.640  68.610  1.00  0.00    -0.245 A  
ENDBRANCH  50  51
ENDBRANCH  16  50
ENDBRANCH  13  16
ENDBRANCH   7  12
ENDBRANCH   4   7
ENDBRANCH   2   3
TORSDOF 18
ENDMDL
MODEL       76
REMARK 921   NORMALIZED FREE ENERGY PREDICTED BY IDOCK:    8.22 KCAL/MOL
REMARK 922        TOTAL FREE ENERGY PREDICTED BY IDOCK:   12.14 KCAL/MOL
REMARK 923 INTER-LIGAND FREE ENERGY PREDICTED BY IDOCK:   -2.28 KCAL/MOL
REMARK 924 INTRA-LIGAND FREE ENERGY PREDICTED BY IDOCK:   14.42 KCAL/MOL
REMARK 927      BINDING AFFINITY PREDICTED BY RF-SCORE:    0.00 PKD
ROOT
HETATM    1  C   UNL     1     -11.639  10.629  67.091  1.00  0.00     0.496 C  
HETATM    2  O   UNL     1     -10.494   9.866  66.699  1.00  0.00    -0.221 OA 
ENDROOT
BRANCH   2   3
HETATM    3  C   UNL     1     -10.258   8.747  67.430  1.00  0.00    -0.252 C  
HETATM    4  N   UNL     1      -9.482   7.900  66.701  1.00  0.00    -0.197 N  
HETATM    5  O   UNL     1     -10.714   8.510  68.540  1.00  0.00    -0.151 OA 
HETATM    6  H   UNL     1      -9.045   8.253  65.850  1.00  0.00     0.000 HD 
BRANCH   4   7
HETATM    7  C   UNL     1      -9.247   6.511  67.079  1.00  0.00    -0.134 C  
BRANCH   7   8
HETATM    8  C   UNL     1      -9.045   5.580  65.819  1.00  0.00    -0.152 C  
HETATM    9  C   UNL     1     -10.395   4.941  65.434  1.00  0.00    -0.017 C  
HETATM   10  C   UNL     1      -7.999   4.465  66.041  1.00  0.00    -0.099 C  
HETATM   11  C   UNL     1      -8.558   6.381  64.587  1.00  0.00     0.173 C  
ENDBRANCH   7   8
BRANCH   7  12
HETATM   12  C   UNL     1      -8.029   6.503  68.054  1.00  0.00    -0.109 C  
HETATM   13  N   UNL     1      -8.219   5.905  69.286  1.00  0.00    -0.112 N  
HETATM   14  O   UNL     1      -6.970   7.068  67.792  1.00  0.00    -0.077 OA 
HETATM   15  H   UNL     1      -9.155   5.607  69.557  1.00  0.00     0.000 HD 
BRANCH  13  16
HETATM   16  C   UNL     1      -7.083   5.687  70.226  1.00  0.00    -0.063 C  
BRANCH  16  17
HETATM   17  C   UNL     1      -7.637   5.588  71.681  1.00  0.00    -0.098 C  
HETATM   18  H   UNL     1      -6.957   6.067  73.430  1.00  0.00     0.000 HD 
HETATM   19  O   UNL     1      -6.620   6.127  72.544  1.00  0.00    -0.064 OA 
BRANCH  17  20
HETATM   20  C   UNL     1      -8.969   6.360  71.876  1.00  0.00    -0.138 C  
BRANCH  20  21
HETATM   21  N   UNL     1      -8.970   7.809  71.520  1.00  0.00    -0.130 NA 
BRANCH  21  22
HETATM   22  N   UNL     1     -10.293   8.349  71.364  1.00  0.00    -0.208 N  
HETATM   23  C   UNL     1     -11.075   8.699  72.456  1.00  0.00    -0.163 C  
HETATM   24  H   UNL     1     -10.668   8.478  70.425  1.00  0.00     0.000 HD 
HETATM   25  O   UNL     1     -10.758   8.444  73.613  1.00  0.00     0.781 OA 
BRANCH  23  26
HETATM   26  C   UNL     1     -12.426   9.357  72.060  1.00  0.00    -0.365 C  
BRANCH  26  27
HETATM   27  N   UNL     1     -12.153  10.511  71.204  1.00  0.00    -0.370 N  
HETATM   28  O   UNL     1     -13.170  12.088  72.508  1.00  0.00    -0.250 OA 
HETATM   29  C   UNL     1     -12.539  11.777  71.508  1.00  0.00    -0.215 C  
HETATM   30  H   UNL     1     -11.647  10.356  70.333  1.00  0.00     0.000 HD 
BRANCH  29  31
HETATM   31  O   UNL     1     -12.102  12.622  70.545  1.00  0.00    -0.363 OA 
HETATM   32  C   UNL     1     -12.567  13.969  70.670  1.00  0.00    -0.344 C  
ENDBRANCH  29  31
ENDBRANCH  26  27
BRANCH  26  33
HETATM   33  C   UNL     1     -13.436   8.361  71.403  1.00  0.00    -0.251 C  
HETATM   34  C   UNL     1     -14.296   8.991  70.288  1.00  0.00     1.425 C  
HETATM   35  C   UNL     1     -12.655   7.162  70.824  1.00  0.00    -0.182 C  
HETATM   36  C   UNL     1     -14.406   7.815  72.474  1.00  0.00    -0.020 C  
ENDBRANCH  26  33
ENDBRANCH  23  26
ENDBRANCH  21  22
BRANCH  21  37
HETATM   37  C   UNL     1      -8.139   8.154  70.346  1.00  0.00    -0.108 C  
BRANCH  37  38
HETATM   38  C   UNL     1      -8.138   9.604  69.886  1.00  0.00    -0.180 A  
HETATM   39  C   UNL     1      -7.026  10.236  69.317  1.00  0.00    -0.073 A  
HETATM   40  C   UNL     1      -7.071  11.555  68.892  1.00  0.00    -0.111 A  
HETATM   41  C   UNL     1      -9.317  10.350  70.000  1.00  0.00     0.210 A  
HETATM   42  C   UNL     1      -8.247  12.299  68.977  1.00  0.00     0.318 A  
HETATM   43  C   UNL     1      -9.371  11.675  69.545  1.00  0.00     0.939 A  
BRANCH  42  44
HETATM   44  C   UNL     1      -8.261  13.671  68.457  1.00  0.00    -0.112 A  
HETATM   45  C   UNL     1      -8.821  14.003  67.229  1.00  0.00    -0.225 A  
HETATM   46  C   UNL     1      -8.741  15.320  66.788  1.00  0.00    -0.304 A  
HETATM   47  C   UNL     1      -8.098  16.267  67.577  1.00  0.00    -0.165 A  
HETATM   48  C   UNL     1      -7.555  15.855  68.779  1.00  0.00    -0.178 A  
HETATM   49  N   UNL     1      -7.623  14.590  69.230  1.00  0.00    -0.111 NA 
ENDBRANCH  42  44
ENDBRANCH  37  38
ENDBRANCH  21  37
ENDBRANCH  20  21
ENDBRANCH  17  20
ENDBRANCH  16  17
BRANCH  16  50
HETATM   50  C   UNL     1      -5.920   6.689  69.994  1.00  0.00    -0.023 C  
BRANCH  50  51
HETATM   51  C   UNL     1      -5.525   7.459  71.230  1.00  0.00    -0.031 A  
HETATM   52  C   UNL     1      -5.374   6.820  72.468  1.00  0.00    -0.037 A  
HETATM   53  C   UNL     1      -5.151   8.946  73.572  1.00  0.00    -0.077 A  
HETATM   54  C   UNL     1      -5.368   8.849  71.166  1.00  0.00    -0.035 A  
HETATM   55  C   UNL     1      -5.230   7.559  73.636  1.00  0.00    -0.042 A  
HETATM   56  C   UNL     1      -5.181   9.588  72.335  1.00  0.00    -0.068 A  
ENDBRANCH  50  51
ENDBRANCH  16  50
ENDBRANCH  13  16
ENDBRANCH   7  12
ENDBRANCH   4   7
ENDBRANCH   2   3
TORSDOF 18
ENDMDL
MODEL       77
REMARK 921   NORMALIZED FREE ENERGY PREDICTED BY IDOCK:    9.73 KCAL/MOL
REMARK 922        TOTAL FREE ENERGY PREDICTED BY IDOCK:   15.24 KCAL/MOL
REMARK 923 INTER-LIGAND FREE ENERGY PREDICTED BY IDOCK:    6.67 KCAL/MOL
REMARK 924 INTRA-LIGAND FREE ENERGY PREDICTED BY IDOCK:    8.57 KCAL/MOL
REMARK 927      BINDING AFFINITY PREDICTED BY RF-SCORE:    0.00 PKD
ROOT
HETATM    1  C   UNL     1     -11.450  11.957  71.223  1.00  0.00     2.017 C  
HETATM    2  O   UNL     1     -10.092  11.525  71.359  1.00  0.00     5.525 OA 
ENDROOT
BRANCH   2   3
HETATM    3  C   UNL     1      -9.395  11.416  70.200  1.00  0.00     2.416 C  
HETATM    4  N   UNL     1      -8.738  10.225  70.191  1.00  0.00    -0.305 N  
HETATM    5  O   UNL     1      -9.318  12.271  69.329  1.00  0.00     0.462 OA 
HETATM    6  H   UNL     1      -8.980   9.532  70.899  1.00  0.00     0.000 HD 
BRANCH   4   7
HETATM    7  C   UNL     1      -7.704   9.892  69.219  1.00  0.00    -0.109 C  
BRANCH   7   8
HETATM    8  C   UNL     1      -6.485  10.896  69.281  1.00  0.00    -0.071 C  
HETATM    9  C   UNL     1      -6.012  11.033  70.743  1.00  0.00    -0.020 C  
HETATM   10  C   UNL     1      -6.815  12.296  68.719  1.00  0.00    -0.092 C  
HETATM   11  C   UNL     1      -5.277  10.382  68.462  1.00  0.00    -0.038 C  
ENDBRANCH   7   8
BRANCH   7  12
HETATM   12  C   UNL     1      -7.294   8.408  69.477  1.00  0.00    -0.073 C  
HETATM   13  N   UNL     1      -8.321   7.493  69.619  1.00  0.00    -0.129 N  
HETATM   14  O   UNL     1      -6.126   8.063  69.633  1.00  0.00    -0.029 OA 
HETATM   15  H   UNL     1      -9.283   7.826  69.672  1.00  0.00     0.000 HD 
BRANCH  13  16
HETATM   16  C   UNL     1      -8.051   6.029  69.697  1.00  0.00    -0.107 C  
BRANCH  16  17
HETATM   17  C   UNL     1      -9.360   5.250  69.364  1.00  0.00    -0.126 C  
HETATM   18  H   UNL     1     -11.201   5.758  69.043  1.00  0.00     0.000 HD 
HETATM   19  O   UNL     1     -10.404   6.233  69.246  1.00  0.00    -0.184 OA 
BRANCH  17  20
HETATM   20  C   UNL     1      -9.255   4.421  68.055  1.00  0.00    -0.136 C  
BRANCH  20  21
HETATM   21  N   UNL     1      -9.485   5.148  66.773  1.00  0.00    -0.132 NA 
BRANCH  21  22
HETATM   22  N   UNL     1      -8.364   5.955  66.375  1.00  0.00    -0.111 N  
HETATM   23  C   UNL     1      -7.873   5.939  65.077  1.00  0.00    -0.106 C  
HETATM   24  H   UNL     1      -7.916   6.556  67.067  1.00  0.00     0.000 HD 
HETATM   25  O   UNL     1      -8.260   5.143  64.228  1.00  0.00    -0.119 OA 
BRANCH  23  26
HETATM   26  C   UNL     1      -6.726   6.960  64.839  1.00  0.00    -0.046 C  
BRANCH  26  27
HETATM   27  N   UNL     1      -7.205   7.998  63.927  1.00  0.00    -0.087 N  
HETATM   28  O   UNL     1      -5.179   8.556  63.030  1.00  0.00    -0.065 OA 
HETATM   29  C   UNL     1      -6.391   8.698  63.095  1.00  0.00    -0.090 C  
HETATM   30  H   UNL     1      -8.203   8.208  63.916  1.00  0.00     0.000 HD 
BRANCH  29  31
HETATM   31  O   UNL     1      -7.136   9.549  62.351  1.00  0.00    -0.100 OA 
HETATM   32  C   UNL     1      -8.548   9.453  62.561  1.00  0.00    -0.215 C  
ENDBRANCH  29  31
ENDBRANCH  26  27
BRANCH  26  33
HETATM   33  C   UNL     1      -6.140   7.559  66.159  1.00  0.00    -0.038 C  
HETATM   34  C   UNL     1      -7.214   8.068  67.142  1.00  0.00    -0.087 C  
HETATM   35  C   UNL     1      -5.278   6.487  66.859  1.00  0.00    -0.012 C  
HETATM   36  C   UNL     1      -5.221   8.756  65.827  1.00  0.00    -0.033 C  
ENDBRANCH  26  33
ENDBRANCH  23  26
ENDBRANCH  21  22
BRANCH  21  37
HETATM   37  C   UNL     1     -10.727   5.951  66.737  1.00  0.00    -0.299 C  
BRANCH  37  38
HETATM   38  C   UNL     1     -10.586   7.460  66.604  1.00  0.00    -0.124 A  
HETATM   39  C   UNL     1      -9.947   8.087  65.528  1.00  0.00     1.141 A  
HETATM   40  C   UNL     1      -9.857   9.468  65.433  1.00  0.00    -0.248 A  
HETATM   41  C   UNL     1     -11.151   8.281  67.587  1.00  0.00     0.321 A  
HETATM   42  C   UNL     1     -10.439  10.294  66.394  1.00  0.00    -0.233 A  
HETATM   43  C   UNL     1     -11.084   9.676  67.478  1.00  0.00    -0.035 A  
BRANCH  42  44
HETATM   44  C   UNL     1     -10.370  11.749  66.217  1.00  0.00    -0.224 A  
HETATM   45  C   UNL     1      -9.173  12.456  66.261  1.00  0.00    -0.150 A  
HETATM   46  C   UNL     1      -9.207  13.842  66.139  1.00  0.00    -0.022 A  
HETATM   47  C   UNL     1     -10.429  14.485  65.987  1.00  0.00    -0.315 A  
HETATM   48  C   UNL     1     -11.575  13.714  65.967  1.00  0.00    -0.337 A  
HETATM   49  N   UNL     1     -11.570  12.373  66.078  1.00  0.00    -0.383 NA 
ENDBRANCH  42  44
ENDBRANCH  37  38
ENDBRANCH  21  37
ENDBRANCH  20  21
ENDBRANCH  17  20
ENDBRANCH  16  17
BRANCH  16  50
HETATM   50  C   UNL     1      -7.322   5.630  71.009  1.00  0.00    -0.085 C  
BRANCH  50  51
HETATM   51  C   UNL     1      -6.706   4.254  70.968  1.00  0.00    -0.035 A  
HETATM   52  C   UNL     1      -6.646   3.449  72.114  1.00  0.00    -0.015 A  
HETATM   53  C   UNL     1      -5.245   1.867  70.965  1.00  0.00    -0.004 A  
HETATM   54  C   UNL     1      -6.121   3.786  69.785  1.00  0.00    -0.023 A  
HETATM   55  C   UNL     1      -5.886   2.285  72.125  1.00  0.00    -0.009 A  
HETATM   56  C   UNL     1      -5.393   2.595  69.786  1.00  0.00    -0.012 A  
ENDBRANCH  50  51
ENDBRANCH  16  50
ENDBRANCH  13  16
ENDBRANCH   7  12
ENDBRANCH   4   7
ENDBRANCH   2   3
TORSDOF 18
ENDMDL
MODEL       78
REMARK 921   NORMALIZED FREE ENERGY PREDICTED BY IDOCK:    9.79 KCAL/MOL
REMARK 922        TOTAL FREE ENERGY PREDICTED BY IDOCK:   15.35 KCAL/MOL
REMARK 923 INTER-LIGAND FREE ENERGY PREDICTED BY IDOCK:    7.73 KCAL/MOL
REMARK 924 INTRA-LIGAND FREE ENERGY PREDICTED BY IDOCK:    7.62 KCAL/MOL
REMARK 927      BINDING AFFINITY PREDICTED BY RF-SCORE:    0.00 PKD
ROOT
HETATM    1  C   UNL     1     -11.686  12.428  71.294  1.00  0.00     1.408 C  
HETATM    2  O   UNL     1     -10.318  12.020  71.378  1.00  0.00     5.992 OA 
ENDROOT
BRANCH   2   3
HETATM    3  C   UNL     1      -9.663  11.921  70.193  1.00  0.00     2.970 C  
HETATM    4  N   UNL     1      -8.940  10.769  70.184  1.00  0.00     0.297 N  
HETATM    5  O   UNL     1      -9.671  12.757  69.300  1.00  0.00     0.420 OA 
HETATM    6  H   UNL     1      -9.113  10.081  70.917  1.00  0.00     0.000 HD 
BRANCH   4   7
HETATM    7  C   UNL     1      -7.929  10.470  69.176  1.00  0.00    -0.145 C  
BRANCH   7   8
HETATM    8  C   UNL     1      -6.748  11.520  69.191  1.00  0.00    -0.108 C  
HETATM    9  C   UNL     1      -6.170  11.618  70.618  1.00  0.00     0.261 C  
HETATM   10  C   UNL     1      -7.172  12.927  68.717  1.00  0.00    -0.081 C  
HETATM   11  C   UNL     1      -5.587  11.090  68.262  1.00  0.00    -0.042 C  
ENDBRANCH   7   8
BRANCH   7  12
HETATM   12  C   UNL     1      -7.454   9.005  69.425  1.00  0.00    -0.077 C  
HETATM   13  N   UNL     1      -8.436   8.065  69.680  1.00  0.00    -0.129 N  
HETATM   14  O   UNL     1      -6.267   8.695  69.480  1.00  0.00    -0.035 OA 
HETATM   15  H   UNL     1      -9.399   8.373  69.814  1.00  0.00     0.000 HD 
BRANCH  13  16
HETATM   16  C   UNL     1      -8.117   6.612  69.762  1.00  0.00    -0.126 C  
BRANCH  16  17
HETATM   17  C   UNL     1      -9.431   5.790  69.586  1.00  0.00    -0.140 C  
HETATM   18  H   UNL     1     -11.304   6.244  69.396  1.00  0.00     0.000 HD 
HETATM   19  O   UNL     1     -10.504   6.744  69.504  1.00  0.00    -0.199 OA 
BRANCH  17  20
HETATM   20  C   UNL     1      -9.417   4.890  68.320  1.00  0.00    -0.138 C  
BRANCH  20  21
HETATM   21  N   UNL     1      -9.729   5.549  67.018  1.00  0.00    -0.135 NA 
BRANCH  21  22
HETATM   22  N   UNL     1      -8.640   6.341  66.515  1.00  0.00    -0.123 N  
HETATM   23  C   UNL     1      -8.281   6.326  65.174  1.00  0.00    -0.138 C  
HETATM   24  H   UNL     1      -8.117   6.931  67.161  1.00  0.00     0.000 HD 
HETATM   25  O   UNL     1      -8.762   5.541  64.363  1.00  0.00    -0.085 OA 
BRANCH  23  26
HETATM   26  C   UNL     1      -7.148   7.331  64.828  1.00  0.00    -0.064 C  
BRANCH  26  27
HETATM   27  N   UNL     1      -7.691   8.365  63.948  1.00  0.00    -0.135 N  
HETATM   28  O   UNL     1      -5.748   8.872  62.858  1.00  0.00    -0.080 OA 
HETATM   29  C   UNL     1      -6.946   9.037  63.033  1.00  0.00    -0.088 C  
HETATM   30  H   UNL     1      -8.682   8.594  64.027  1.00  0.00     0.000 HD 
BRANCH  29  31
HETATM   31  O   UNL     1      -7.743   9.892  62.348  1.00  0.00    -0.114 OA 
HETATM   32  C   UNL     1      -9.121   9.867  62.731  1.00  0.00    -0.284 C  
ENDBRANCH  29  31
ENDBRANCH  26  27
BRANCH  26  33
HETATM   33  C   UNL     1      -6.446   7.937  66.086  1.00  0.00    -0.046 C  
HETATM   34  C   UNL     1      -5.737   6.890  66.969  1.00  0.00    -0.018 C  
HETATM   35  C   UNL     1      -5.418   8.995  65.629  1.00  0.00    -0.041 C  
HETATM   36  C   UNL     1      -7.489   8.652  66.975  1.00  0.00    -0.084 C  
ENDBRANCH  26  33
ENDBRANCH  23  26
ENDBRANCH  21  22
BRANCH  21  37
HETATM   37  C   UNL     1     -10.978   6.340  67.013  1.00  0.00    -0.364 C  
BRANCH  37  38
HETATM   38  C   UNL     1     -10.860   7.840  66.791  1.00  0.00     0.070 A  
HETATM   39  C   UNL     1     -10.402   8.414  65.599  1.00  0.00     1.568 A  
HETATM   40  C   UNL     1     -10.328   9.789  65.429  1.00  0.00     0.127 A  
HETATM   41  C   UNL     1     -11.260   8.708  67.814  1.00  0.00     0.582 A  
HETATM   42  C   UNL     1     -10.748  10.662  66.432  1.00  0.00    -0.198 A  
HETATM   43  C   UNL     1     -11.211  10.097  67.632  1.00  0.00    -0.169 A  
BRANCH  42  44
HETATM   44  C   UNL     1     -10.708  12.107  66.180  1.00  0.00    -0.272 A  
HETATM   45  C   UNL     1      -9.521  12.802  65.976  1.00  0.00    -0.127 A  
HETATM   46  C   UNL     1      -9.572  14.181  65.800  1.00  0.00    -0.165 A  
HETATM   47  C   UNL     1     -10.799  14.830  65.842  1.00  0.00    -0.331 A  
HETATM   48  C   UNL     1     -11.933  14.071  66.063  1.00  0.00    -0.416 A  
HETATM   49  N   UNL     1     -11.912  12.737  66.232  1.00  0.00    -0.473 NA 
ENDBRANCH  42  44
ENDBRANCH  37  38
ENDBRANCH  21  37
ENDBRANCH  20  21
ENDBRANCH  17  20
ENDBRANCH  16  17
BRANCH  16  50
HETATM   50  C   UNL     1      -7.244   6.265  70.999  1.00  0.00    -0.075 C  
BRANCH  50  51
HETATM   51  C   UNL     1      -7.880   6.635  72.315  1.00  0.00    -0.096 A  
HETATM   52  C   UNL     1      -8.680   5.724  73.017  1.00  0.00    -0.123 A  
HETATM   53  C   UNL     1      -9.341   7.448  74.560  1.00  0.00     0.071 A  
HETATM   54  C   UNL     1      -7.730   7.931  72.824  1.00  0.00    -0.150 A  
HETATM   55  C   UNL     1      -9.438   6.137  74.108  1.00  0.00    -0.173 A  
HETATM   56  C   UNL     1      -8.458   8.334  73.944  1.00  0.00    -0.247 A  
ENDBRANCH  50  51
ENDBRANCH  16  50
ENDBRANCH  13  16
ENDBRANCH   7  12
ENDBRANCH   4   7
ENDBRANCH   2   3
TORSDOF 18
ENDMDL
MODEL       79
REMARK 921   NORMALIZED FREE ENERGY PREDICTED BY IDOCK:   10.36 KCAL/MOL
REMARK 922        TOTAL FREE ENERGY PREDICTED BY IDOCK:   16.53 KCAL/MOL
REMARK 923 INTER-LIGAND FREE ENERGY PREDICTED BY IDOCK:   11.48 KCAL/MOL
REMARK 924 INTRA-LIGAND FREE ENERGY PREDICTED BY IDOCK:    5.05 KCAL/MOL
REMARK 927      BINDING AFFINITY PREDICTED BY RF-SCORE:    0.00 PKD
ROOT
HETATM    1  C   UNL     1      -6.384  14.822  72.358  1.00  0.00     1.127 C  
HETATM    2  O   UNL     1      -6.972  14.953  71.060  1.00  0.00     0.500 OA 
ENDROOT
BRANCH   2   3
HETATM    3  C   UNL     1      -8.310  14.734  70.999  1.00  0.00     2.983 C  
HETATM    4  N   UNL     1      -8.664  14.532  69.701  1.00  0.00    -0.262 N  
HETATM    5  O   UNL     1      -9.084  14.770  71.945  1.00  0.00     3.733 OA 
HETATM    6  H   UNL     1      -7.925  14.385  69.013  1.00  0.00     0.000 HD 
BRANCH   4   7
HETATM    7  C   UNL     1     -10.050  14.515  69.247  1.00  0.00    -0.071 C  
BRANCH   7   8
HETATM    8  C   UNL     1     -10.159  14.321  67.683  1.00  0.00    -0.229 C  
HETATM    9  C   UNL     1     -11.613  14.577  67.237  1.00  0.00    -0.405 C  
HETATM   10  C   UNL     1      -9.721  12.919  67.207  1.00  0.00    -0.220 C  
HETATM   11  C   UNL     1      -9.268  15.328  66.917  1.00  0.00    -0.255 C  
ENDBRANCH   7   8
BRANCH   7  12
HETATM   12  C   UNL     1     -10.783  13.403  70.059  1.00  0.00     0.883 C  
HETATM   13  N   UNL     1     -10.909  12.166  69.453  1.00  0.00    -0.453 N  
HETATM   14  O   UNL     1     -11.304  13.616  71.150  1.00  0.00     0.691 OA 
HETATM   15  H   UNL     1     -10.636  12.059  68.476  1.00  0.00     0.000 HD 
BRANCH  13  16
HETATM   16  C   UNL     1     -11.435  10.987  70.196  1.00  0.00    -0.296 C  
BRANCH  16  17
HETATM   17  C   UNL     1     -10.401  10.567  71.286  1.00  0.00     2.191 C  
HETATM   18  H   UNL     1     -10.276   9.105  72.550  1.00  0.00     0.000 HD 
HETATM   19  O   UNL     1     -10.905   9.361  71.887  1.00  0.00    -0.310 OA 
BRANCH  17  20
HETATM   20  C   UNL     1      -8.980  10.324  70.710  1.00  0.00     1.490 C  
BRANCH  20  21
HETATM   21  N   UNL     1      -8.464   8.925  70.750  1.00  0.00    -0.164 NA 
BRANCH  21  22
HETATM   22  N   UNL     1      -7.490   8.656  69.726  1.00  0.00    -0.059 N  
HETATM   23  C   UNL     1      -6.232   9.242  69.739  1.00  0.00    -0.039 C  
HETATM   24  H   UNL     1      -7.731   8.017  68.969  1.00  0.00     0.000 HD 
HETATM   25  O   UNL     1      -5.916  10.127  70.528  1.00  0.00    -0.077 OA 
BRANCH  23  26
HETATM   26  C   UNL     1      -5.305   8.735  68.600  1.00  0.00    -0.037 C  
BRANCH  26  27
HETATM   27  N   UNL     1      -5.155   7.286  68.727  1.00  0.00    -0.014 N  
HETATM   28  O   UNL     1      -5.758   7.122  70.925  1.00  0.00    -0.027 OA 
HETATM   29  C   UNL     1      -5.405   6.605  69.875  1.00  0.00    -0.014 C  
HETATM   30  H   UNL     1      -4.845   6.759  67.910  1.00  0.00     0.000 HD 
BRANCH  29  31
HETATM   31  O   UNL     1      -5.218   5.282  69.660  1.00  0.00    -0.003 OA 
HETATM   32  C   UNL     1      -5.547   4.440  70.769  1.00  0.00    -0.012 C  
ENDBRANCH  29  31
ENDBRANCH  26  27
BRANCH  26  33
HETATM   33  C   UNL     1      -5.784   9.155  67.172  1.00  0.00    -0.045 C  
HETATM   34  C   UNL     1      -5.183  10.489  66.681  1.00  0.00    -0.047 C  
HETATM   35  C   UNL     1      -5.423   8.037  66.171  1.00  0.00    -0.028 C  
HETATM   36  C   UNL     1      -7.320   9.316  67.162  1.00  0.00    -0.091 C  
ENDBRANCH  26  33
ENDBRANCH  23  26
ENDBRANCH  21  22
BRANCH  21  37
HETATM   37  C   UNL     1      -9.513   7.883  70.739  1.00  0.00    -0.158 C  
BRANCH  37  38
HETATM   38  C   UNL     1      -9.520   6.904  69.575  1.00  0.00    -0.146 A  
HETATM   39  C   UNL     1      -9.299   5.528  69.717  1.00  0.00    -0.181 A  
HETATM   40  C   UNL     1      -9.334   4.665  68.632  1.00  0.00    -0.193 A  
HETATM   41  C   UNL     1      -9.796   7.384  68.289  1.00  0.00    -0.173 A  
HETATM   42  C   UNL     1      -9.632   5.130  67.352  1.00  0.00    -0.154 A  
HETATM   43  C   UNL     1      -9.858   6.508  67.197  1.00  0.00    -0.187 A  
BRANCH  42  44
HETATM   44  C   UNL     1      -9.718   4.167  66.248  1.00  0.00    -0.206 A  
HETATM   45  C   UNL     1      -8.900   3.046  66.162  1.00  0.00    -0.143 A  
HETATM   46  C   UNL     1      -9.012   2.217  65.050  1.00  0.00    -0.123 A  
HETATM   47  C   UNL     1      -9.926   2.531  64.052  1.00  0.00    -0.116 A  
HETATM   48  C   UNL     1     -10.693   3.670  64.204  1.00  0.00    -0.210 A  
HETATM   49  N   UNL     1     -10.608   4.486  65.270  1.00  0.00    -0.202 NA 
ENDBRANCH  42  44
ENDBRANCH  37  38
ENDBRANCH  21  37
ENDBRANCH  20  21
ENDBRANCH  17  20
ENDBRANCH  16  17
BRANCH  16  50
HETATM   50  C   UNL     1     -11.937   9.864  69.249  1.00  0.00     0.340 C  
BRANCH  50  51
HETATM   51  C   UNL     1     -12.725   8.785  69.948  1.00  0.00     1.800 A  
HETATM   52  C   UNL     1     -13.829   9.097  70.753  1.00  0.00     0.261 A  
HETATM   53  C   UNL     1     -13.949   6.820  71.521  1.00  0.00    -0.169 A  
HETATM   54  C   UNL     1     -12.318   7.449  69.852  1.00  0.00     0.764 A  
HETATM   55  C   UNL     1     -14.411   8.130  71.566  1.00  0.00    -0.534 A  
HETATM   56  C   UNL     1     -12.930   6.471  70.637  1.00  0.00     0.772 A  
ENDBRANCH  50  51
ENDBRANCH  16  50
ENDBRANCH  13  16
ENDBRANCH   7  12
ENDBRANCH   4   7
ENDBRANCH   2   3
TORSDOF 18
ENDMDL
MODEL       80
REMARK 921   NORMALIZED FREE ENERGY PREDICTED BY IDOCK:   11.09 KCAL/MOL
REMARK 922        TOTAL FREE ENERGY PREDICTED BY IDOCK:   18.03 KCAL/MOL
REMARK 923 INTER-LIGAND FREE ENERGY PREDICTED BY IDOCK:    1.19 KCAL/MOL
REMARK 924 INTRA-LIGAND FREE ENERGY PREDICTED BY IDOCK:   16.84 KCAL/MOL
REMARK 927      BINDING AFFINITY PREDICTED BY RF-SCORE:    0.00 PKD
ROOT
HETATM    1  C   UNL     1     -10.946  10.370  64.460  1.00  0.00     1.072 C  
HETATM    2  O   UNL     1     -10.175   9.218  64.103  1.00  0.00     1.573 OA 
ENDROOT
BRANCH   2   3
HETATM    3  C   UNL     1      -9.563   8.582  65.134  1.00  0.00     0.705 C  
HETATM    4  N   UNL     1      -9.890   7.262  65.093  1.00  0.00     1.169 N  
HETATM    5  O   UNL     1      -8.877   9.114  65.995  1.00  0.00    -0.148 OA 
HETATM    6  H   UNL     1     -10.352   6.902  64.259  1.00  0.00     0.000 HD 
BRANCH   4   7
HETATM    7  C   UNL     1      -9.611   6.338  66.187  1.00  0.00    -0.015 C  
BRANCH   7   8
HETATM    8  C   UNL     1      -8.817   5.063  65.698  1.00  0.00    -0.143 C  
HETATM    9  C   UNL     1      -7.759   5.488  64.659  1.00  0.00    -0.093 C  
HETATM   10  C   UNL     1      -9.724   3.974  65.084  1.00  0.00    -0.196 C  
HETATM   11  C   UNL     1      -8.059   4.379  66.861  1.00  0.00    -0.102 C  
ENDBRANCH   7   8
BRANCH   7  12
HETATM   12  C   UNL     1      -8.859   7.148  67.288  1.00  0.00    -0.120 C  
HETATM   13  N   UNL     1      -7.782   6.527  67.894  1.00  0.00    -0.103 N  
HETATM   14  O   UNL     1      -9.238   8.251  67.673  1.00  0.00    -0.136 OA 
HETATM   15  H   UNL     1      -7.595   5.545  67.695  1.00  0.00     0.000 HD 
BRANCH  13  16
HETATM   16  C   UNL     1      -6.888   7.264  68.832  1.00  0.00    -0.072 C  
BRANCH  16  17
HETATM   17  C   UNL     1      -7.720   8.347  69.586  1.00  0.00    -0.095 C  
HETATM   18  H   UNL     1      -7.428   9.431  71.164  1.00  0.00     0.000 HD 
HETATM   19  O   UNL     1      -6.922   8.772  70.705  1.00  0.00    -0.041 OA 
BRANCH  17  20
HETATM   20  C   UNL     1      -8.081   9.564  68.692  1.00  0.00    -0.097 C  
BRANCH  20  21
HETATM   21  N   UNL     1      -9.498  10.029  68.722  1.00  0.00    -0.155 NA 
BRANCH  21  22
HETATM   22  N   UNL     1      -9.643  11.415  68.369  1.00  0.00    -0.192 N  
HETATM   23  C   UNL     1     -10.549  11.836  67.406  1.00  0.00    -0.224 C  
HETATM   24  H   UNL     1      -9.062  12.109  68.840  1.00  0.00     0.000 HD 
HETATM   25  O   UNL     1     -11.177  11.058  66.695  1.00  0.00    -0.237 OA 
BRANCH  23  26
HETATM   26  C   UNL     1     -10.615  13.381  67.255  1.00  0.00    -0.255 C  
BRANCH  26  27
HETATM   27  N   UNL     1     -11.085  13.955  68.516  1.00  0.00    -0.253 N  
HETATM   28  O   UNL     1     -12.345  12.175  69.196  1.00  0.00    -0.109 OA 
HETATM   29  C   UNL     1     -11.899  13.298  69.381  1.00  0.00    -0.329 C  
HETATM   30  H   UNL     1     -10.785  14.900  68.757  1.00  0.00     0.000 HD 
BRANCH  29  31
HETATM   31  O   UNL     1     -12.117  14.074  70.468  1.00  0.00    -0.316 OA 
HETATM   32  C   UNL     1     -12.619  15.383  70.183  1.00  0.00    -0.293 C  
ENDBRANCH  29  31
ENDBRANCH  26  27
BRANCH  26  33
HETATM   33  C   UNL     1      -9.269  14.020  66.782  1.00  0.00    -0.280 C  
HETATM   34  C   UNL     1      -9.240  15.559  66.883  1.00  0.00    -0.257 C  
HETATM   35  C   UNL     1      -8.112  13.435  67.621  1.00  0.00    -0.175 C  
HETATM   36  C   UNL     1      -9.007  13.654  65.304  1.00  0.00     1.520 C  
ENDBRANCH  26  33
ENDBRANCH  23  26
ENDBRANCH  21  22
BRANCH  21  37
HETATM   37  C   UNL     1     -10.210   9.750  69.987  1.00  0.00    -0.263 C  
BRANCH  37  38
HETATM   38  C   UNL     1     -10.329   8.297  70.423  1.00  0.00    -0.214 A  
HETATM   39  C   UNL     1     -11.031   7.326  69.700  1.00  0.00    -0.204 A  
HETATM   40  C   UNL     1     -11.100   6.006  70.122  1.00  0.00    -0.432 A  
HETATM   41  C   UNL     1      -9.677   7.887  71.592  1.00  0.00    -0.207 A  
HETATM   42  C   UNL     1     -10.433   5.582  71.270  1.00  0.00    -0.306 A  
HETATM   43  C   UNL     1      -9.723   6.548  72.003  1.00  0.00    -0.156 A  
BRANCH  42  44
HETATM   44  C   UNL     1     -10.484   4.163  71.640  1.00  0.00     0.128 A  
HETATM   45  C   UNL     1     -10.512   3.141  70.698  1.00  0.00     1.395 A  
HETATM   46  C   UNL     1     -10.617   1.825  71.138  1.00  0.00     0.872 A  
HETATM   47  C   UNL     1     -10.702   1.564  72.500  1.00  0.00    -0.216 A  
HETATM   48  C   UNL     1     -10.682   2.635  73.373  1.00  0.00    -0.180 A  
HETATM   49  N   UNL     1     -10.576   3.916  72.975  1.00  0.00    -0.173 NA 
ENDBRANCH  42  44
ENDBRANCH  37  38
ENDBRANCH  21  37
ENDBRANCH  20  21
ENDBRANCH  17  20
ENDBRANCH  16  17
BRANCH  16  50
HETATM   50  C   UNL     1      -5.580   7.747  68.149  1.00  0.00    -0.032 C  
BRANCH  50  51
HETATM   51  C   UNL     1      -5.811   8.596  66.923  1.00  0.00    -0.049 A  
HETATM   52  C   UNL     1      -5.392   8.171  65.655  1.00  0.00    -0.028 A  
HETATM   53  C   UNL     1      -5.920  10.327  64.726  1.00  0.00    -0.132 A  
HETATM   54  C   UNL     1      -6.396   9.862  67.050  1.00  0.00    -0.065 A  
HETATM   55  C   UNL     1      -5.407   9.044  64.573  1.00  0.00    -0.054 A  
HETATM   56  C   UNL     1      -6.449  10.723  65.953  1.00  0.00    -0.097 A  
ENDBRANCH  50  51
ENDBRANCH  16  50
ENDBRANCH  13  16
ENDBRANCH   7  12
ENDBRANCH   4   7
ENDBRANCH   2   3
TORSDOF 18
ENDMDL
MODEL       81
REMARK 921   NORMALIZED FREE ENERGY PREDICTED BY IDOCK:   11.18 KCAL/MOL
REMARK 922        TOTAL FREE ENERGY PREDICTED BY IDOCK:   18.21 KCAL/MOL
REMARK 923 INTER-LIGAND FREE ENERGY PREDICTED BY IDOCK:    4.11 KCAL/MOL
REMARK 924 INTRA-LIGAND FREE ENERGY PREDICTED BY IDOCK:   14.10 KCAL/MOL
REMARK 927      BINDING AFFINITY PREDICTED BY RF-SCORE:    0.00 PKD
ROOT
HETATM    1  C   UNL     1      -7.527  12.801  70.166  1.00  0.00     2.017 C  
HETATM    2  O   UNL     1      -7.888  11.475  70.567  1.00  0.00     1.846 OA 
ENDROOT
BRANCH   2   3
HETATM    3  C   UNL     1      -8.747  10.827  69.740  1.00  0.00     0.455 C  
HETATM    4  N   UNL     1      -8.337   9.537  69.604  1.00  0.00    -0.135 N  
HETATM    5  O   UNL     1      -9.699  11.331  69.161  1.00  0.00    -0.112 OA 
HETATM    6  H   UNL     1      -7.617   9.187  70.235  1.00  0.00     0.000 HD 
BRANCH   4   7
HETATM    7  C   UNL     1      -8.879   8.630  68.598  1.00  0.00    -0.142 C  
BRANCH   7   8
HETATM    8  C   UNL     1     -10.383   8.247  68.895  1.00  0.00    -0.230 C  
HETATM    9  C   UNL     1     -11.315   9.204  68.124  1.00  0.00     0.528 C  
HETATM   10  C   UNL     1     -10.742   8.287  70.396  1.00  0.00    -0.239 C  
HETATM   11  C   UNL     1     -10.714   6.812  68.416  1.00  0.00    -0.284 C  
ENDBRANCH   7   8
BRANCH   7  12
HETATM   12  C   UNL     1      -8.679   9.315  67.211  1.00  0.00    -0.128 C  
HETATM   13  N   UNL     1      -9.530  10.361  66.902  1.00  0.00    -0.166 N  
HETATM   14  O   UNL     1      -7.867   8.909  66.384  1.00  0.00    -0.100 OA 
HETATM   15  H   UNL     1     -10.316  10.564  67.519  1.00  0.00     0.000 HD 
BRANCH  13  16
HETATM   16  C   UNL     1      -9.323  11.197  65.686  1.00  0.00    -0.219 C  
BRANCH  16  17
HETATM   17  C   UNL     1      -7.977  10.791  65.010  1.00  0.00     0.075 C  
HETATM   18  H   UNL     1      -6.680  11.709  63.903  1.00  0.00     0.000 HD 
HETATM   19  O   UNL     1      -7.500  11.956  64.314  1.00  0.00     2.617 OA 
BRANCH  17  20
HETATM   20  C   UNL     1      -6.912  10.302  66.028  1.00  0.00    -0.120 C  
BRANCH  20  21
HETATM   21  N   UNL     1      -6.618  11.198  67.184  1.00  0.00    -0.089 NA 
BRANCH  21  22
HETATM   22  N   UNL     1      -6.459  12.574  66.802  1.00  0.00    -0.193 N  
HETATM   23  C   UNL     1      -7.338  13.560  67.227  1.00  0.00    -0.012 C  
HETATM   24  H   UNL     1      -5.677  12.834  66.200  1.00  0.00     0.000 HD 
HETATM   25  O   UNL     1      -8.378  13.312  67.829  1.00  0.00    -0.145 OA 
BRANCH  23  26
HETATM   26  C   UNL     1      -6.923  14.990  66.784  1.00  0.00     0.954 C  
BRANCH  26  27
HETATM   27  N   UNL     1      -8.125  15.728  66.397  1.00  0.00    -0.308 N  
HETATM   28  O   UNL     1      -7.074  17.537  65.478  1.00  0.00    -0.308 OA 
HETATM   29  C   UNL     1      -8.095  16.932  65.768  1.00  0.00     0.367 C  
HETATM   30  H   UNL     1      -9.033  15.318  66.612  1.00  0.00     0.000 HD 
BRANCH  29  31
HETATM   31  O   UNL     1      -9.361  17.332  65.507  1.00  0.00    -0.383 OA 
HETATM   32  C   UNL     1     -10.055  17.898  66.623  1.00  0.00    -0.362 C  
ENDBRANCH  29  31
ENDBRANCH  26  27
BRANCH  26  33
HETATM   33  C   UNL     1      -6.080  15.756  67.855  1.00  0.00    -0.159 C  
HETATM   34  C   UNL     1      -5.142  14.847  68.675  1.00  0.00    -0.095 C  
HETATM   35  C   UNL     1      -5.243  16.846  67.152  1.00  0.00    -0.181 C  
HETATM   36  C   UNL     1      -7.022  16.461  68.856  1.00  0.00    -0.186 C  
ENDBRANCH  26  33
ENDBRANCH  23  26
ENDBRANCH  21  22
BRANCH  21  37
HETATM   37  C   UNL     1      -5.477  10.768  68.020  1.00  0.00    -0.036 C  
BRANCH  37  38
HETATM   38  C   UNL     1      -5.398   9.298  68.401  1.00  0.00    -0.037 A  
HETATM   39  C   UNL     1      -5.553   8.826  69.710  1.00  0.00    -0.029 A  
HETATM   40  C   UNL     1      -5.493   7.474  70.014  1.00  0.00    -0.023 A  
HETATM   41  C   UNL     1      -5.193   8.348  67.393  1.00  0.00    -0.034 A  
HETATM   42  C   UNL     1      -5.315   6.519  69.014  1.00  0.00    -0.013 A  
HETATM   43  C   UNL     1      -5.160   6.980  67.695  1.00  0.00    -0.015 A  
BRANCH  42  44
HETATM   44  C   UNL     1      -5.321   5.098  69.377  1.00  0.00    -0.004 A  
HETATM   45  C   UNL     1      -5.565   4.086  68.454  1.00  0.00    -0.013 A  
HETATM   46  C   UNL     1      -5.607   2.768  68.898  1.00  0.00    -0.021 A  
HETATM   47  C   UNL     1      -5.415   2.494  70.246  1.00  0.00    -0.016 A  
HETATM   48  C   UNL     1      -5.192   3.555  71.103  1.00  0.00    -0.004 A  
HETATM   49  N   UNL     1      -5.142   4.838  70.701  1.00  0.00    -0.003 NA 
ENDBRANCH  42  44
ENDBRANCH  37  38
ENDBRANCH  21  37
ENDBRANCH  20  21
ENDBRANCH  17  20
ENDBRANCH  16  17
BRANCH  16  50
HETATM   50  C   UNL     1      -9.529  12.710  65.964  1.00  0.00    -0.140 C  
BRANCH  50  51
HETATM   51  C   UNL     1     -10.892  13.222  65.567  1.00  0.00    -0.297 A  
HETATM   52  C   UNL     1     -11.475  12.863  64.344  1.00  0.00    -0.405 A  
HETATM   53  C   UNL     1     -13.244  14.457  64.687  1.00  0.00     0.846 A  
HETATM   54  C   UNL     1     -11.569  14.124  66.397  1.00  0.00    -0.380 A  
HETATM   55  C   UNL     1     -12.620  13.506  63.888  1.00  0.00    -0.156 A  
HETATM   56  C   UNL     1     -12.741  14.738  65.956  1.00  0.00     0.321 A  
ENDBRANCH  50  51
ENDBRANCH  16  50
ENDBRANCH  13  16
ENDBRANCH   7  12
ENDBRANCH   4   7
ENDBRANCH   2   3
TORSDOF 18
ENDMDL
MODEL       82
REMARK 921   NORMALIZED FREE ENERGY PREDICTED BY IDOCK:   14.14 KCAL/MOL
REMARK 922        TOTAL FREE ENERGY PREDICTED BY IDOCK:   24.28 KCAL/MOL
REMARK 923 INTER-LIGAND FREE ENERGY PREDICTED BY IDOCK:    2.64 KCAL/MOL
REMARK 924 INTRA-LIGAND FREE ENERGY PREDICTED BY IDOCK:   21.64 KCAL/MOL
REMARK 927      BINDING AFFINITY PREDICTED BY RF-SCORE:    0.00 PKD
ROOT
HETATM    1  C   UNL     1     -10.813   7.902  68.774  1.00  0.00     0.046 C  
HETATM    2  O   UNL     1     -10.821   7.910  67.343  1.00  0.00    -0.237 OA 
ENDROOT
BRANCH   2   3
HETATM    3  C   UNL     1      -9.694   8.385  66.754  1.00  0.00    -0.242 C  
HETATM    4  N   UNL     1      -9.934   9.642  66.294  1.00  0.00    -0.256 N  
HETATM    5  O   UNL     1      -8.650   7.765  66.606  1.00  0.00    -0.125 OA 
HETATM    6  H   UNL     1     -10.788  10.113  66.591  1.00  0.00     0.000 HD 
BRANCH   4   7
HETATM    7  C   UNL     1      -9.028  10.348  65.395  1.00  0.00    -0.183 C  
BRANCH   7   8
HETATM    8  C   UNL     1      -9.805  11.260  64.365  1.00  0.00    -0.316 C  
HETATM    9  C   UNL     1     -11.095  11.790  65.025  1.00  0.00    -0.343 C  
HETATM   10  C   UNL     1     -10.168  10.531  63.053  1.00  0.00     0.124 C  
HETATM   11  C   UNL     1      -8.970  12.495  63.949  1.00  0.00     1.667 C  
ENDBRANCH   7   8
BRANCH   7  12
HETATM   12  C   UNL     1      -8.026  11.143  66.289  1.00  0.00    -0.125 C  
HETATM   13  N   UNL     1      -7.162  10.400  67.072  1.00  0.00    -0.090 N  
HETATM   14  O   UNL     1      -8.043  12.368  66.371  1.00  0.00     0.122 OA 
HETATM   15  H   UNL     1      -7.286   9.389  67.131  1.00  0.00     0.000 HD 
BRANCH  13  16
HETATM   16  C   UNL     1      -6.053  11.044  67.831  1.00  0.00    -0.049 C  
BRANCH  16  17
HETATM   17  C   UNL     1      -6.585  11.497  69.225  1.00  0.00    -0.113 C  
HETATM   18  H   UNL     1      -5.835  12.489  70.710  1.00  0.00     0.000 HD 
HETATM   19  O   UNL     1      -5.511  12.213  69.861  1.00  0.00    -0.080 OA 
BRANCH  17  20
HETATM   20  C   UNL     1      -7.846  12.398  69.129  1.00  0.00     0.351 C  
BRANCH  20  21
HETATM   21  N   UNL     1      -9.035  11.827  68.434  1.00  0.00    -0.181 NA 
BRANCH  21  22
HETATM   22  N   UNL     1      -9.872  12.830  67.835  1.00  0.00    -0.216 N  
HETATM   23  C   UNL     1     -11.035  13.276  68.447  1.00  0.00    -0.264 C  
HETATM   24  H   UNL     1      -9.605  13.226  66.934  1.00  0.00     0.000 HD 
HETATM   25  O   UNL     1     -11.502  12.752  69.455  1.00  0.00    -0.271 OA 
BRANCH  23  26
HETATM   26  C   UNL     1     -11.732  14.433  67.680  1.00  0.00    -0.391 C  
BRANCH  26  27
HETATM   27  N   UNL     1     -10.988  15.669  67.919  1.00  0.00    -0.310 N  
HETATM   28  O   UNL     1     -12.089  16.311  69.816  1.00  0.00    -0.083 OA 
HETATM   29  C   UNL     1     -11.224  16.494  68.972  1.00  0.00    -0.238 C  
HETATM   30  H   UNL     1     -10.253  15.925  67.260  1.00  0.00     0.000 HD 
BRANCH  29  31
HETATM   31  O   UNL     1     -10.346  17.523  68.940  1.00  0.00    -0.353 OA 
HETATM   32  C   UNL     1      -9.928  17.917  67.629  1.00  0.00    -0.324 C  
ENDBRANCH  29  31
ENDBRANCH  26  27
BRANCH  26  33
HETATM   33  C   UNL     1     -11.922  14.145  66.155  1.00  0.00    -0.437 C  
HETATM   34  C   UNL     1     -13.106  14.903  65.521  1.00  0.00     0.614 C  
HETATM   35  C   UNL     1     -10.623  14.516  65.408  1.00  0.00    -0.385 C  
HETATM   36  C   UNL     1     -12.174  12.637  65.935  1.00  0.00    -0.375 C  
ENDBRANCH  26  33
ENDBRANCH  23  26
ENDBRANCH  21  22
BRANCH  21  37
HETATM   37  C   UNL     1      -9.851  10.913  69.263  1.00  0.00    -0.090 C  
BRANCH  37  38
HETATM   38  C   UNL     1      -9.115   9.914  70.142  1.00  0.00    -0.171 A  
HETATM   39  C   UNL     1      -9.749   9.099  71.087  1.00  0.00    -0.360 A  
HETATM   40  C   UNL     1      -9.045   8.185  71.857  1.00  0.00    -0.230 A  
HETATM   41  C   UNL     1      -7.732   9.765  69.984  1.00  0.00    -0.179 A  
HETATM   42  C   UNL     1      -7.671   8.011  71.689  1.00  0.00    -0.100 A  
HETATM   43  C   UNL     1      -7.024   8.822  70.742  1.00  0.00    -0.066 A  
BRANCH  42  44
HETATM   44  C   UNL     1      -6.981   6.988  72.483  1.00  0.00    -0.065 A  
HETATM   45  C   UNL     1      -7.259   6.765  73.827  1.00  0.00    -0.082 A  
HETATM   46  C   UNL     1      -6.517   5.811  74.517  1.00  0.00    -0.075 A  
HETATM   47  C   UNL     1      -5.514   5.115  73.854  1.00  0.00    -0.018 A  
HETATM   48  C   UNL     1      -5.290   5.403  72.522  1.00  0.00    -0.017 A  
HETATM   49  N   UNL     1      -5.995   6.316  71.830  1.00  0.00    -0.036 NA 
ENDBRANCH  42  44
ENDBRANCH  37  38
ENDBRANCH  21  37
ENDBRANCH  20  21
ENDBRANCH  17  20
ENDBRANCH  16  17
BRANCH  16  50
HETATM   50  C   UNL     1      -5.305  12.116  66.993  1.00  0.00    -0.056 C  
BRANCH  50  51
HETATM   51  C   UNL     1      -5.775  13.526  67.250  1.00  0.00     0.367 A  
HETATM   52  C   UNL     1      -5.950  14.437  66.200  1.00  0.00     5.854 A  
HETATM   53  C   UNL     1      -6.295  16.227  67.771  1.00  0.00    -0.163 A  
HETATM   54  C   UNL     1      -5.982  13.965  68.564  1.00  0.00    -0.091 A  
HETATM   55  C   UNL     1      -6.167  15.786  66.458  1.00  0.00     1.369 A  
HETATM   56  C   UNL     1      -6.242  15.312  68.821  1.00  0.00    -0.090 A  
ENDBRANCH  50  51
ENDBRANCH  16  50
ENDBRANCH  13  16
ENDBRANCH   7  12
ENDBRANCH   4   7
ENDBRANCH   2   3
TORSDOF 18
ENDMDL
MODEL       83
REMARK 921   NORMALIZED FREE ENERGY PREDICTED BY IDOCK:   17.17 KCAL/MOL
REMARK 922        TOTAL FREE ENERGY PREDICTED BY IDOCK:   30.50 KCAL/MOL
REMARK 923 INTER-LIGAND FREE ENERGY PREDICTED BY IDOCK:   13.45 KCAL/MOL
REMARK 924 INTRA-LIGAND FREE ENERGY PREDICTED BY IDOCK:   17.05 KCAL/MOL
REMARK 927      BINDING AFFINITY PREDICTED BY RF-SCORE:    0.00 PKD
ROOT
HETATM    1  C   UNL     1      -5.418   9.541  66.353  1.00  0.00    -0.045 C  
HETATM    2  O   UNL     1      -5.997   8.408  65.698  1.00  0.00    -0.044 OA 
ENDROOT
BRANCH   2   3
HETATM    3  C   UNL     1      -7.182   7.982  66.204  1.00  0.00    -0.070 C  
HETATM    4  N   UNL     1      -7.928   7.456  65.196  1.00  0.00    -0.123 N  
HETATM    5  O   UNL     1      -7.547   8.102  67.366  1.00  0.00    -0.097 OA 
HETATM    6  H   UNL     1      -7.477   7.279  64.299  1.00  0.00     0.000 HD 
BRANCH   4   7
HETATM    7  C   UNL     1      -9.344   7.134  65.337  1.00  0.00     0.623 C  
BRANCH   7   8
HETATM    8  C   UNL     1      -9.572   5.617  65.712  1.00  0.00     0.006 C  
HETATM    9  C   UNL     1     -10.899   5.477  66.487  1.00  0.00    -0.237 C  
HETATM   10  C   UNL     1      -8.426   5.013  66.553  1.00  0.00    -0.110 C  
HETATM   11  C   UNL     1      -9.690   4.726  64.452  1.00  0.00     0.185 C  
ENDBRANCH   7   8
BRANCH   7  12
HETATM   12  C   UNL     1      -9.935   8.125  66.387  1.00  0.00    -0.168 C  
HETATM   13  N   UNL     1      -9.881   9.471  66.075  1.00  0.00    -0.272 N  
HETATM   14  O   UNL     1     -10.357   7.756  67.480  1.00  0.00    -0.220 OA 
HETATM   15  H   UNL     1      -9.362   9.773  65.251  1.00  0.00     0.000 HD 
BRANCH  13  16
HETATM   16  C   UNL     1     -10.566  10.492  66.919  1.00  0.00    -0.243 C  
BRANCH  16  17
HETATM   17  C   UNL     1     -11.434  11.410  66.006  1.00  0.00     0.088 C  
HETATM   18  H   UNL     1     -13.327  11.545  65.618  1.00  0.00     0.000 HD 
HETATM   19  O   UNL     1     -12.798  10.986  66.174  1.00  0.00     3.905 OA 
BRANCH  17  20
HETATM   20  C   UNL     1     -11.295  12.917  66.355  1.00  0.00    -0.319 C  
BRANCH  20  21
HETATM   21  N   UNL     1     -10.243  13.288  67.344  1.00  0.00    -0.228 NA 
BRANCH  21  22
HETATM   22  N   UNL     1     -10.563  14.477  68.086  1.00  0.00    -0.235 N  
HETATM   23  C   UNL     1     -11.384  15.468  67.565  1.00  0.00    -0.232 C  
HETATM   24  H   UNL     1     -10.176  14.597  69.022  1.00  0.00     0.000 HD 
HETATM   25  O   UNL     1     -11.771  15.470  66.401  1.00  0.00     0.074 OA 
BRANCH  23  26
HETATM   26  C   UNL     1     -11.682  16.614  68.571  1.00  0.00     0.254 C  
BRANCH  26  27
HETATM   27  N   UNL     1     -12.799  16.210  69.424  1.00  0.00    -0.183 N  
HETATM   28  O   UNL     1     -12.820  13.999  68.851  1.00  0.00     0.444 OA 
HETATM   29  C   UNL     1     -13.263  14.936  69.498  1.00  0.00     1.033 C  
HETATM   30  H   UNL     1     -13.254  16.924  69.994  1.00  0.00     0.000 HD 
BRANCH  29  31
HETATM   31  O   UNL     1     -14.267  14.877  70.403  1.00  0.00     0.522 OA 
HETATM   32  C   UNL     1     -14.298  13.684  71.192  1.00  0.00     1.042 C  
ENDBRANCH  29  31
ENDBRANCH  26  27
BRANCH  26  33
HETATM   33  C   UNL     1     -10.434  17.054  69.403  1.00  0.00    -0.250 C  
HETATM   34  C   UNL     1      -9.706  18.287  68.829  1.00  0.00    -0.348 C  
HETATM   35  C   UNL     1     -10.874  17.353  70.852  1.00  0.00     1.473 C  
HETATM   36  C   UNL     1      -9.406  15.901  69.455  1.00  0.00    -0.250 C  
ENDBRANCH  26  33
ENDBRANCH  23  26
ENDBRANCH  21  22
BRANCH  21  37
HETATM   37  C   UNL     1      -8.879  13.394  66.781  1.00  0.00    -0.132 C  
BRANCH  37  38
HETATM   38  C   UNL     1      -8.257  14.779  66.699  1.00  0.00     0.092 A  
HETATM   39  C   UNL     1      -8.864  15.865  66.058  1.00  0.00    -0.298 A  
HETATM   40  C   UNL     1      -8.272  17.119  66.022  1.00  0.00    -0.183 A  
HETATM   41  C   UNL     1      -7.024  15.004  67.323  1.00  0.00    -0.087 A  
HETATM   42  C   UNL     1      -7.057  17.360  66.663  1.00  0.00    -0.275 A  
HETATM   43  C   UNL     1      -6.438  16.277  67.311  1.00  0.00    -0.223 A  
BRANCH  42  44
HETATM   44  C   UNL     1      -6.501  18.717  66.649  1.00  0.00    -0.189 A  
HETATM   45  C   UNL     1      -5.980  19.305  65.502  1.00  0.00    -0.232 A  
HETATM   46  C   UNL     1      -5.422  20.576  65.592  1.00  0.00    -0.220 A  
HETATM   47  C   UNL     1      -5.390  21.223  66.822  1.00  0.00    -0.306 A  
HETATM   48  C   UNL     1      -5.917  20.567  67.918  1.00  0.00    -0.249 A  
HETATM   49  N   UNL     1      -6.465  19.341  67.858  1.00  0.00    -0.230 NA 
ENDBRANCH  42  44
ENDBRANCH  37  38
ENDBRANCH  21  37
ENDBRANCH  20  21
ENDBRANCH  17  20
ENDBRANCH  16  17
BRANCH  16  50
HETATM   50  C   UNL     1      -9.591  11.206  67.894  1.00  0.00    -0.181 C  
BRANCH  50  51
HETATM   51  C   UNL     1     -10.276  11.865  69.065  1.00  0.00    -0.016 A  
HETATM   52  C   UNL     1      -9.635  12.858  69.817  1.00  0.00     2.142 A  
HETATM   53  C   UNL     1     -11.410  12.814  71.441  1.00  0.00     2.975 A  
HETATM   54  C   UNL     1     -11.550  11.439  69.458  1.00  0.00    -0.399 A  
HETATM   55  C   UNL     1     -10.177  13.300  71.019  1.00  0.00     5.873 A  
HETATM   56  C   UNL     1     -12.114  11.915  70.643  1.00  0.00    -0.389 A  
ENDBRANCH  50  51
ENDBRANCH  16  50
ENDBRANCH  13  16
ENDBRANCH   7  12
ENDBRANCH   4   7
ENDBRANCH   2   3
TORSDOF 18
ENDMDL
MODEL       84
REMARK 921   NORMALIZED FREE ENERGY PREDICTED BY IDOCK:   25.37 KCAL/MOL
REMARK 922        TOTAL FREE ENERGY PREDICTED BY IDOCK:   47.32 KCAL/MOL
REMARK 923 INTER-LIGAND FREE ENERGY PREDICTED BY IDOCK:   30.58 KCAL/MOL
REMARK 924 INTRA-LIGAND FREE ENERGY PREDICTED BY IDOCK:   16.74 KCAL/MOL
REMARK 927      BINDING AFFINITY PREDICTED BY RF-SCORE:    0.00 PKD
ROOT
HETATM    1  C   UNL     1      -6.372  14.663  72.536  1.00  0.00     1.115 C  
HETATM    2  O   UNL     1      -7.283  14.923  71.465  1.00  0.00     1.438 OA 
ENDROOT
BRANCH   2   3
HETATM    3  C   UNL     1      -8.598  14.762  71.763  1.00  0.00     5.303 C  
HETATM    4  N   UNL     1      -9.319  14.801  70.610  1.00  0.00     0.804 N  
HETATM    5  O   UNL     1      -9.068  14.658  72.887  1.00  0.00     5.705 OA 
HETATM    6  H   UNL     1      -8.819  14.752  69.723  1.00  0.00     0.000 HD 
BRANCH   4   7
HETATM    7  C   UNL     1     -10.773  14.911  70.583  1.00  0.00     0.069 C  
BRANCH   7   8
HETATM    8  C   UNL     1     -11.324  15.125  69.118  1.00  0.00    -0.311 C  
HETATM    9  C   UNL     1     -10.140  15.192  68.132  1.00  0.00    -0.222 C  
HETATM   10  C   UNL     1     -12.185  16.398  68.967  1.00  0.00     0.666 C  
HETATM   11  C   UNL     1     -12.222  13.948  68.665  1.00  0.00    -0.213 C  
ENDBRANCH   7   8
BRANCH   7  12
HETATM   12  C   UNL     1     -11.340  13.632  71.274  1.00  0.00     1.631 C  
HETATM   13  N   UNL     1     -11.613  12.550  70.458  1.00  0.00    -0.411 N  
HETATM   14  O   UNL     1     -11.616  13.595  72.470  1.00  0.00     1.717 OA 
HETATM   15  H   UNL     1     -11.553  12.659  69.446  1.00  0.00     0.000 HD 
BRANCH  13  16
HETATM   16  C   UNL     1     -11.993  11.225  71.027  1.00  0.00    -0.112 C  
BRANCH  16  17
HETATM   17  C   UNL     1     -10.795  10.660  71.849  1.00  0.00     3.650 C  
HETATM   18  H   UNL     1     -10.518   9.084  72.941  1.00  0.00     0.000 HD 
HETATM   19  O   UNL     1     -11.247   9.429  72.440  1.00  0.00     0.158 OA 
BRANCH  17  20
HETATM   20  C   UNL     1      -9.532  10.405  70.984  1.00  0.00     2.343 C  
BRANCH  20  21
HETATM   21  N   UNL     1      -9.751   9.878  69.605  1.00  0.00    -0.218 NA 
BRANCH  21  22
HETATM   22  N   UNL     1      -8.770  10.343  68.663  1.00  0.00    -0.130 N  
HETATM   23  C   UNL     1      -7.474   9.847  68.648  1.00  0.00    -0.075 C  
HETATM   24  H   UNL     1      -9.033  11.060  67.986  1.00  0.00     0.000 HD 
HETATM   25  O   UNL     1      -7.037   9.095  69.514  1.00  0.00    -0.056 OA 
BRANCH  23  26
HETATM   26  C   UNL     1      -6.611  10.411  67.486  1.00  0.00    -0.066 C  
BRANCH  26  27
HETATM   27  N   UNL     1      -7.342  10.237  66.231  1.00  0.00    -0.111 N  
HETATM   28  O   UNL     1      -7.976   8.067  66.561  1.00  0.00    -0.098 OA 
HETATM   29  C   UNL     1      -7.970   9.084  65.884  1.00  0.00    -0.103 C  
HETATM   30  H   UNL     1      -7.382  11.023  65.583  1.00  0.00     0.000 HD 
BRANCH  29  31
HETATM   31  O   UNL     1      -8.590   9.253  64.693  1.00  0.00    -0.168 OA 
HETATM   32  C   UNL     1      -9.700  10.155  64.715  1.00  0.00    -0.322 C  
ENDBRANCH  29  31
ENDBRANCH  26  27
BRANCH  26  33
HETATM   33  C   UNL     1      -6.161  11.892  67.705  1.00  0.00    -0.067 C  
HETATM   34  C   UNL     1      -5.227  12.429  66.601  1.00  0.00     0.499 C  
HETATM   35  C   UNL     1      -7.413  12.791  67.793  1.00  0.00    -0.135 C  
HETATM   36  C   UNL     1      -5.401  12.016  69.045  1.00  0.00    -0.051 C  
ENDBRANCH  26  33
ENDBRANCH  23  26
ENDBRANCH  21  22
BRANCH  21  37
HETATM   37  C   UNL     1     -11.112  10.100  69.072  1.00  0.00    -0.205 C  
BRANCH  37  38
HETATM   38  C   UNL     1     -11.270  11.102  67.939  1.00  0.00    -0.365 A  
HETATM   39  C   UNL     1     -12.404  11.177  67.122  1.00  0.00     2.117 A  
HETATM   40  C   UNL     1     -12.518  12.119  66.110  1.00  0.00     0.816 A  
HETATM   41  C   UNL     1     -10.246  12.029  67.709  1.00  0.00    -0.211 A  
HETATM   42  C   UNL     1     -11.515  13.063  65.890  1.00  0.00    -0.374 A  
HETATM   43  C   UNL     1     -10.372  12.999  66.705  1.00  0.00    -0.256 A  
BRANCH  42  44
HETATM   44  C   UNL     1     -11.710  14.078  64.849  1.00  0.00    -0.380 A  
HETATM   45  C   UNL     1     -11.402  15.421  65.041  1.00  0.00    -0.334 A  
HETATM   46  C   UNL     1     -11.670  16.324  64.017  1.00  0.00     0.480 A  
HETATM   47  C   UNL     1     -12.246  15.869  62.837  1.00  0.00     5.063 A  
HETATM   48  C   UNL     1     -12.535  14.522  62.729  1.00  0.00     2.531 A  
HETATM   49  N   UNL     1     -12.282  13.627  63.700  1.00  0.00    -0.644 NA 
ENDBRANCH  42  44
ENDBRANCH  37  38
ENDBRANCH  21  37
ENDBRANCH  20  21
ENDBRANCH  17  20
ENDBRANCH  16  17
BRANCH  16  50
HETATM   50  C   UNL     1     -12.610  10.278  69.962  1.00  0.00    -0.059 C  
BRANCH  50  51
HETATM   51  C   UNL     1     -13.020   8.933  70.509  1.00  0.00     0.602 A  
HETATM   52  C   UNL     1     -14.138   8.797  71.343  1.00  0.00    -0.311 A  
HETATM   53  C   UNL     1     -13.553   6.509  71.803  1.00  0.00     0.117 A  
HETATM   54  C   UNL     1     -12.239   7.803  70.240  1.00  0.00     0.407 A  
HETATM   55  C   UNL     1     -14.380   7.606  72.018  1.00  0.00    -0.455 A  
HETATM   56  C   UNL     1     -12.507   6.595  70.885  1.00  0.00    -0.183 A  
ENDBRANCH  50  51
ENDBRANCH  16  50
ENDBRANCH  13  16
ENDBRANCH   7  12
ENDBRANCH   4   7
ENDBRANCH   2   3
TORSDOF 18
ENDMDL
MODEL       85
REMARK 921   NORMALIZED FREE ENERGY PREDICTED BY IDOCK:   25.51 KCAL/MOL
REMARK 922        TOTAL FREE ENERGY PREDICTED BY IDOCK:   47.62 KCAL/MOL
REMARK 923 INTER-LIGAND FREE ENERGY PREDICTED BY IDOCK:   36.15 KCAL/MOL
REMARK 924 INTRA-LIGAND FREE ENERGY PREDICTED BY IDOCK:   11.47 KCAL/MOL
REMARK 927      BINDING AFFINITY PREDICTED BY RF-SCORE:    0.00 PKD
ROOT
HETATM    1  C   UNL     1      -6.977   5.251  73.384  1.00  0.00    -0.080 C  
HETATM    2  O   UNL     1      -8.053   6.183  73.238  1.00  0.00    -0.113 OA 
ENDROOT
BRANCH   2   3
HETATM    3  C   UNL     1      -7.877   7.135  72.287  1.00  0.00    -0.090 C  
HETATM    4  N   UNL     1      -6.853   7.949  72.662  1.00  0.00    -0.071 N  
HETATM    5  O   UNL     1      -8.561   7.278  71.283  1.00  0.00    -0.119 OA 
HETATM    6  H   UNL     1      -6.264   7.659  73.442  1.00  0.00     0.000 HD 
BRANCH   4   7
HETATM    7  C   UNL     1      -6.560   9.216  72.003  1.00  0.00     0.136 C  
BRANCH   7   8
HETATM    8  C   UNL     1      -6.019   9.008  70.533  1.00  0.00    -0.038 C  
HETATM    9  C   UNL     1      -5.188   7.710  70.474  1.00  0.00    -0.023 C  
HETATM   10  C   UNL     1      -5.160  10.186  70.023  1.00  0.00    -0.037 C  
HETATM   11  C   UNL     1      -7.174   8.851  69.514  1.00  0.00    -0.063 C  
ENDBRANCH   7   8
BRANCH   7  12
HETATM   12  C   UNL     1      -7.860  10.076  72.066  1.00  0.00     3.214 C  
HETATM   13  N   UNL     1      -8.358  10.545  70.864  1.00  0.00     1.541 N  
HETATM   14  O   UNL     1      -8.386  10.402  73.127  1.00  0.00     6.833 OA 
HETATM   15  H   UNL     1      -7.808  10.421  70.014  1.00  0.00     0.000 HD 
BRANCH  13  16
HETATM   16  C   UNL     1      -9.680  11.227  70.785  1.00  0.00     4.423 C  
BRANCH  16  17
HETATM   17  C   UNL     1     -10.555  10.521  69.704  1.00  0.00    -0.242 C  
HETATM   18  H   UNL     1     -11.089   8.689  69.370  1.00  0.00     0.000 HD 
HETATM   19  O   UNL     1     -10.556   9.120  70.028  1.00  0.00    -0.210 OA 
BRANCH  17  20
HETATM   20  C   UNL     1     -12.010  11.060  69.656  1.00  0.00    -0.353 C  
BRANCH  20  21
HETATM   21  N   UNL     1     -13.066  10.119  69.182  1.00  0.00     1.417 NA 
BRANCH  21  22
HETATM   22  N   UNL     1     -13.153   8.925  69.978  1.00  0.00     1.026 N  
HETATM   23  C   UNL     1     -12.136   7.981  69.999  1.00  0.00     0.703 C  
HETATM   24  H   UNL     1     -13.987   8.767  70.544  1.00  0.00     0.000 HD 
HETATM   25  O   UNL     1     -11.170   8.024  69.243  1.00  0.00     0.053 OA 
BRANCH  23  26
HETATM   26  C   UNL     1     -12.390   6.822  71.002  1.00  0.00    -0.315 C  
BRANCH  26  27
HETATM   27  N   UNL     1     -11.249   5.908  70.961  1.00  0.00    -0.254 N  
HETATM   28  O   UNL     1     -11.270   5.518  68.709  1.00  0.00     0.074 OA 
HETATM   29  C   UNL     1     -10.782   5.345  69.816  1.00  0.00    -0.210 C  
HETATM   30  H   UNL     1     -10.780   5.681  71.837  1.00  0.00     0.000 HD 
BRANCH  29  31
HETATM   31  O   UNL     1      -9.697   4.587  70.101  1.00  0.00    -0.182 OA 
HETATM   32  C   UNL     1      -9.411   3.562  69.145  1.00  0.00    -0.154 C  
ENDBRANCH  29  31
ENDBRANCH  26  27
BRANCH  26  33
HETATM   33  C   UNL     1     -12.700   7.312  72.454  1.00  0.00     0.115 C  
HETATM   34  C   UNL     1     -11.512   7.166  73.428  1.00  0.00     0.314 C  
HETATM   35  C   UNL     1     -13.137   8.791  72.405  1.00  0.00    -0.444 C  
HETATM   36  C   UNL     1     -13.874   6.496  73.042  1.00  0.00     1.954 C  
ENDBRANCH  26  33
ENDBRANCH  23  26
ENDBRANCH  21  22
BRANCH  21  37
HETATM   37  C   UNL     1     -12.976   9.767  67.748  1.00  0.00     9.386 C  
BRANCH  37  38
HETATM   38  C   UNL     1     -11.589   9.682  67.129  1.00  0.00     1.732 A  
HETATM   39  C   UNL     1     -10.876   8.486  66.984  1.00  0.00    -0.030 A  
HETATM   40  C   UNL     1      -9.621   8.448  66.396  1.00  0.00    -0.307 A  
HETATM   41  C   UNL     1     -10.994  10.852  66.643  1.00  0.00    -0.212 A  
HETATM   42  C   UNL     1      -9.030   9.604  65.885  1.00  0.00    -0.203 A  
HETATM   43  C   UNL     1      -9.737  10.810  66.023  1.00  0.00    -0.264 A  
BRANCH  42  44
HETATM   44  C   UNL     1      -7.728   9.502  65.216  1.00  0.00    -0.111 A  
HETATM   45  C   UNL     1      -7.580   9.614  63.838  1.00  0.00    -0.127 A  
HETATM   46  C   UNL     1      -6.315   9.449  63.283  1.00  0.00    -0.093 A  
HETATM   47  C   UNL     1      -5.236   9.167  64.113  1.00  0.00    -0.059 A  
HETATM   48  C   UNL     1      -5.467   9.057  65.471  1.00  0.00    -0.038 A  
HETATM   49  N   UNL     1      -6.679   9.217  66.033  1.00  0.00    -0.075 NA 
ENDBRANCH  42  44
ENDBRANCH  37  38
ENDBRANCH  21  37
ENDBRANCH  20  21
ENDBRANCH  17  20
ENDBRANCH  16  17
BRANCH  16  50
HETATM   50  C   UNL     1      -9.546  12.770  70.667  1.00  0.00     6.813 C  
BRANCH  50  51
HETATM   51  C   UNL     1      -8.966  13.232  69.354  1.00  0.00     1.122 A  
HETATM   52  C   UNL     1      -9.634  14.167  68.553  1.00  0.00    -0.214 A  
HETATM   53  C   UNL     1      -8.064  13.804  66.767  1.00  0.00     0.287 A  
HETATM   54  C   UNL     1      -7.770  12.675  68.884  1.00  0.00     0.094 A  
HETATM   55  C   UNL     1      -9.211  14.421  67.253  1.00  0.00    -0.214 A  
HETATM   56  C   UNL     1      -7.322  12.962  67.594  1.00  0.00    -0.145 A  
ENDBRANCH  50  51
ENDBRANCH  16  50
ENDBRANCH  13  16
ENDBRANCH   7  12
ENDBRANCH   4   7
ENDBRANCH   2   3
TORSDOF 18
ENDMDL
MODEL       86
REMARK 921   NORMALIZED FREE ENERGY PREDICTED BY IDOCK:   29.37 KCAL/MOL
REMARK 922        TOTAL FREE ENERGY PREDICTED BY IDOCK:   55.54 KCAL/MOL
REMARK 923 INTER-LIGAND FREE ENERGY PREDICTED BY IDOCK:   41.64 KCAL/MOL
REMARK 924 INTRA-LIGAND FREE ENERGY PREDICTED BY IDOCK:   13.91 KCAL/MOL
REMARK 927      BINDING AFFINITY PREDICTED BY RF-SCORE:    0.00 PKD
ROOT
HETATM    1  C   UNL     1      -6.981   5.253  73.389  1.00  0.00    -0.080 C  
HETATM    2  O   UNL     1      -8.080   6.161  73.262  1.00  0.00    -0.113 OA 
ENDROOT
BRANCH   2   3
HETATM    3  C   UNL     1      -7.914   7.158  72.357  1.00  0.00    -0.096 C  
HETATM    4  N   UNL     1      -6.917   7.978  72.784  1.00  0.00    -0.086 N  
HETATM    5  O   UNL     1      -8.589   7.330  71.351  1.00  0.00    -0.115 OA 
HETATM    6  H   UNL     1      -6.331   7.668  73.559  1.00  0.00     0.000 HD 
BRANCH   4   7
HETATM    7  C   UNL     1      -6.645   9.280  72.185  1.00  0.00     0.283 C  
BRANCH   7   8
HETATM    8  C   UNL     1      -6.020   9.150  70.740  1.00  0.00    -0.045 C  
HETATM    9  C   UNL     1      -5.131   7.891  70.680  1.00  0.00    -0.023 C  
HETATM   10  C   UNL     1      -5.188  10.381  70.318  1.00  0.00    -0.044 C  
HETATM   11  C   UNL     1      -7.112   8.983  69.656  1.00  0.00    -0.059 C  
ENDBRANCH   7   8
BRANCH   7  12
HETATM   12  C   UNL     1      -7.983  10.082  72.209  1.00  0.00     4.005 C  
HETATM   13  N   UNL     1      -8.446  10.561  70.997  1.00  0.00     1.990 N  
HETATM   14  O   UNL     1      -8.570  10.357  73.252  1.00  0.00     7.447 OA 
HETATM   15  H   UNL     1      -7.853  10.484  70.170  1.00  0.00     0.000 HD 
BRANCH  13  16
HETATM   16  C   UNL     1      -9.792  11.188  70.873  1.00  0.00     4.294 C  
BRANCH  16  17
HETATM   17  C   UNL     1     -10.597  10.454  69.757  1.00  0.00    -0.258 C  
HETATM   18  H   UNL     1     -11.223   8.639  69.502  1.00  0.00     0.000 HD 
HETATM   19  O   UNL     1     -10.732   9.086  70.182  1.00  0.00    -0.220 OA 
BRANCH  17  20
HETATM   20  C   UNL     1     -11.996  11.079  69.509  1.00  0.00    -0.342 C  
BRANCH  20  21
HETATM   21  N   UNL     1     -13.064  10.168  69.004  1.00  0.00     1.797 NA 
BRANCH  21  22
HETATM   22  N   UNL     1     -13.100   8.907  69.693  1.00  0.00     2.192 N  
HETATM   23  C   UNL     1     -12.065   7.988  69.596  1.00  0.00     1.300 C  
HETATM   24  H   UNL     1     -13.910   8.681  70.271  1.00  0.00     0.000 HD 
HETATM   25  O   UNL     1     -11.128   8.118  68.815  1.00  0.00     0.103 OA 
BRANCH  23  26
HETATM   26  C   UNL     1     -12.261   6.740  70.501  1.00  0.00    -0.195 C  
BRANCH  26  27
HETATM   27  N   UNL     1     -10.982   6.041  70.619  1.00  0.00    -0.302 N  
HETATM   28  O   UNL     1     -11.173   4.763  68.735  1.00  0.00     1.487 OA 
HETATM   29  C   UNL     1     -10.545   5.122  69.720  1.00  0.00    -0.105 C  
HETATM   30  H   UNL     1     -10.387   6.255  71.419  1.00  0.00     0.000 HD 
BRANCH  29  31
HETATM   31  O   UNL     1      -9.314   4.691  70.082  1.00  0.00    -0.118 OA 
HETATM   32  C   UNL     1      -8.241   5.197  69.282  1.00  0.00    -0.084 C  
ENDBRANCH  29  31
ENDBRANCH  26  27
BRANCH  26  33
HETATM   33  C   UNL     1     -12.882   7.073  71.897  1.00  0.00    -0.296 C  
HETATM   34  C   UNL     1     -11.986   7.967  72.779  1.00  0.00    -0.223 C  
HETATM   35  C   UNL     1     -14.244   7.768  71.690  1.00  0.00    -0.572 C  
HETATM   36  C   UNL     1     -13.136   5.767  72.682  1.00  0.00     0.754 C  
ENDBRANCH  26  33
ENDBRANCH  23  26
ENDBRANCH  21  22
BRANCH  21  37
HETATM   37  C   UNL     1     -13.041   9.946  67.541  1.00  0.00    11.143 C  
BRANCH  37  38
HETATM   38  C   UNL     1     -11.691   9.999  66.842  1.00  0.00     2.020 A  
HETATM   39  C   UNL     1     -10.723   8.993  66.948  1.00  0.00    -0.150 A  
HETATM   40  C   UNL     1      -9.511   9.070  66.279  1.00  0.00    -0.306 A  
HETATM   41  C   UNL     1     -11.400  11.091  66.017  1.00  0.00     0.197 A  
HETATM   42  C   UNL     1      -9.222  10.141  65.434  1.00  0.00    -0.249 A  
HETATM   43  C   UNL     1     -10.187  11.156  65.318  1.00  0.00    -0.337 A  
BRANCH  42  44
HETATM   44  C   UNL     1      -7.952  10.146  64.699  1.00  0.00    -0.145 A  
HETATM   45  C   UNL     1      -6.744  10.505  65.287  1.00  0.00    -0.049 A  
HETATM   46  C   UNL     1      -5.597  10.535  64.501  1.00  0.00    -0.115 A  
HETATM   47  C   UNL     1      -5.684  10.217  63.151  1.00  0.00    -0.140 A  
HETATM   48  C   UNL     1      -6.923   9.884  62.638  1.00  0.00    -0.116 A  
HETATM   49  N   UNL     1      -8.047   9.842  63.376  1.00  0.00    -0.147 NA 
ENDBRANCH  42  44
ENDBRANCH  37  38
ENDBRANCH  21  37
ENDBRANCH  20  21
ENDBRANCH  17  20
ENDBRANCH  16  17
BRANCH  16  50
HETATM   50  C   UNL     1      -9.718  12.736  70.769  1.00  0.00     7.352 C  
BRANCH  50  51
HETATM   51  C   UNL     1     -11.064  13.414  70.820  1.00  0.00     1.579 A  
HETATM   52  C   UNL     1     -11.231  14.733  70.377  1.00  0.00    -0.213 A  
HETATM   53  C   UNL     1     -13.470  14.776  71.255  1.00  0.00    -0.478 A  
HETATM   54  C   UNL     1     -12.161  12.748  71.379  1.00  0.00     0.412 A  
HETATM   55  C   UNL     1     -12.411  15.423  70.630  1.00  0.00    -0.478 A  
HETATM   56  C   UNL     1     -13.360  13.428  71.595  1.00  0.00    -0.420 A  
ENDBRANCH  50  51
ENDBRANCH  16  50
ENDBRANCH  13  16
ENDBRANCH   7  12
ENDBRANCH   4   7
ENDBRANCH   2   3
TORSDOF 18
ENDMDL
