MODEL        1
REMARK 921   NORMALIZED FREE ENERGY PREDICTED BY IDOCK:   -6.24 KCAL/MOL
REMARK 922        TOTAL FREE ENERGY PREDICTED BY IDOCK:   -9.74 KCAL/MOL
REMARK 923 INTER-LIGAND FREE ENERGY PREDICTED BY IDOCK:   -9.16 KCAL/MOL
REMARK 924 INTRA-LIGAND FREE ENERGY PREDICTED BY IDOCK:   -0.57 KCAL/MOL
REMARK 927      BINDING AFFINITY PREDICTED BY RF-SCORE:    0.00 PKD
ROOT
HETATM    1  C   UNL     1     -10.219  11.090  64.376  1.00  0.00    -0.409 C  
HETATM    2  C   UNL     1     -10.798  12.294  63.631  1.00  0.00    -0.469 C  
HETATM    3  C   UNL     1     -12.324  12.287  63.755  1.00  0.00    -0.637 C  
ENDROOT
BRANCH   2   4
HETATM    4  N   UNL     1     -10.210  13.512  64.195  1.00  0.00    -0.758 NA 
HETATM    5  H   UNL     1      -9.576  13.950  63.527  1.00  0.00     0.000 HD 
BRANCH   4   6
HETATM    6  C   UNL     1     -11.210  14.477  64.674  1.00  0.00    -0.353 C  
BRANCH   6   7
HETATM    7  C   UNL     1     -10.522  15.775  65.138  1.00  0.00    -0.366 C  
HETATM    8  H   UNL     1     -10.766  17.711  64.854  1.00  0.00     0.000 HD 
HETATM    9  O   UNL     1     -11.190  16.910  64.568  1.00  0.00    -1.057 OA 
BRANCH   7  10
HETATM   10  C   UNL     1     -10.522  15.883  66.668  1.00  0.00    -0.306 C  
BRANCH  10  11
HETATM   11  O   UNL     1     -10.746  14.585  67.238  1.00  0.00    -0.280 OA 
BRANCH  11  12
HETATM   12  C   UNL     1     -11.446  14.550  68.416  1.00  0.00    -0.302 A  
HETATM   13  C   UNL     1     -11.882  15.660  69.138  1.00  0.00    -0.378 A  
HETATM   14  C   UNL     1     -12.544  15.496  70.359  1.00  0.00    -0.421 A  
HETATM   15  C   UNL     1     -12.777  14.218  70.882  1.00  0.00    -0.427 A  
HETATM   16  C   UNL     1     -12.380  13.104  70.132  1.00  0.00    -0.284 A  
HETATM   17  C   UNL     1     -11.714  13.272  68.913  1.00  0.00    -0.369 A  
BRANCH  15  18
HETATM   18  C   UNL     1     -13.385  14.058  72.257  1.00  0.00    -0.574 C  
BRANCH  18  19
HETATM   19  C   UNL     1     -13.019  15.067  73.328  1.00  0.00    -0.525 C  
HETATM   20  N   UNL     1     -13.812  16.158  73.503  1.00  0.00    -0.797 N  
HETATM   21  O   UNL     1     -12.028  14.919  74.039  1.00  0.00    -0.454 OA 
HETATM   22  H2  UNL     1     -14.640  16.295  72.923  1.00  0.00     0.000 HD 
HETATM   23  H1  UNL     1     -13.566  16.837  74.223  1.00  0.00     0.000 HD 
ENDBRANCH  18  19
ENDBRANCH  15  18
ENDBRANCH  11  12
ENDBRANCH  10  11
ENDBRANCH   7  10
ENDBRANCH   6   7
ENDBRANCH   4   6
ENDBRANCH   2   4
TORSDOF 8
ENDMDL
MODEL        2
REMARK 921   NORMALIZED FREE ENERGY PREDICTED BY IDOCK:   -5.91 KCAL/MOL
REMARK 922        TOTAL FREE ENERGY PREDICTED BY IDOCK:   -9.24 KCAL/MOL
REMARK 923 INTER-LIGAND FREE ENERGY PREDICTED BY IDOCK:   -8.30 KCAL/MOL
REMARK 924 INTRA-LIGAND FREE ENERGY PREDICTED BY IDOCK:   -0.95 KCAL/MOL
REMARK 927      BINDING AFFINITY PREDICTED BY RF-SCORE:    0.00 PKD
ROOT
HETATM    1  C   UNL     1     -10.297  10.951  64.090  1.00  0.00    -0.432 C  
HETATM    2  C   UNL     1     -10.817  12.278  63.535  1.00  0.00    -0.454 C  
HETATM    3  C   UNL     1     -12.335  12.352  63.725  1.00  0.00    -0.625 C  
ENDROOT
BRANCH   2   4
HETATM    4  N   UNL     1     -10.127  13.370  64.227  1.00  0.00    -0.748 NA 
HETATM    5  H   UNL     1      -9.279  13.636  63.727  1.00  0.00     0.000 HD 
BRANCH   4   6
HETATM    6  C   UNL     1     -10.979  14.543  64.467  1.00  0.00    -0.249 C  
BRANCH   6   7
HETATM    7  C   UNL     1     -10.295  15.510  65.451  1.00  0.00    -0.394 C  
HETATM    8  H   UNL     1     -10.155  17.463  65.683  1.00  0.00     0.000 HD 
HETATM    9  O   UNL     1     -10.577  16.866  65.075  1.00  0.00    -0.700 OA 
BRANCH   7  10
HETATM   10  C   UNL     1     -10.765  15.258  66.890  1.00  0.00    -0.313 C  
BRANCH  10  11
HETATM   11  O   UNL     1     -11.850  14.320  66.880  1.00  0.00    -0.398 OA 
BRANCH  11  12
HETATM   12  C   UNL     1     -11.839  13.366  67.864  1.00  0.00    -0.357 A  
HETATM   13  C   UNL     1     -12.011  13.600  69.227  1.00  0.00    -0.384 A  
HETATM   14  C   UNL     1     -11.925  12.546  70.143  1.00  0.00    -0.377 A  
HETATM   15  C   UNL     1     -11.660  11.241  69.712  1.00  0.00    -0.408 A  
HETATM   16  C   UNL     1     -11.534  11.001  68.338  1.00  0.00    -0.378 A  
HETATM   17  C   UNL     1     -11.616  12.058  67.424  1.00  0.00    -0.388 A  
BRANCH  15  18
HETATM   18  C   UNL     1     -11.451  10.133  70.720  1.00  0.00    -0.442 C  
BRANCH  18  19
HETATM   19  C   UNL     1     -12.673   9.494  71.350  1.00  0.00    -0.358 C  
HETATM   20  N   UNL     1     -13.077   8.272  70.911  1.00  0.00    -0.462 N  
HETATM   21  O   UNL     1     -13.300  10.053  72.247  1.00  0.00    -0.429 OA 
HETATM   22  H2  UNL     1     -12.566   7.793  70.169  1.00  0.00     0.000 HD 
HETATM   23  H1  UNL     1     -13.900   7.842  71.335  1.00  0.00     0.000 HD 
ENDBRANCH  18  19
ENDBRANCH  15  18
ENDBRANCH  11  12
ENDBRANCH  10  11
ENDBRANCH   7  10
ENDBRANCH   6   7
ENDBRANCH   4   6
ENDBRANCH   2   4
TORSDOF 8
ENDMDL
MODEL        3
REMARK 921   NORMALIZED FREE ENERGY PREDICTED BY IDOCK:   -5.83 KCAL/MOL
REMARK 922        TOTAL FREE ENERGY PREDICTED BY IDOCK:   -9.12 KCAL/MOL
REMARK 923 INTER-LIGAND FREE ENERGY PREDICTED BY IDOCK:   -8.62 KCAL/MOL
REMARK 924 INTRA-LIGAND FREE ENERGY PREDICTED BY IDOCK:   -0.50 KCAL/MOL
REMARK 927      BINDING AFFINITY PREDICTED BY RF-SCORE:    0.00 PKD
ROOT
HETATM    1  C   UNL     1     -10.103  10.589  65.068  1.00  0.00    -0.390 C  
HETATM    2  C   UNL     1     -10.178  11.421  63.786  1.00  0.00    -0.382 C  
HETATM    3  C   UNL     1      -9.362  10.738  62.685  1.00  0.00    -0.340 C  
ENDROOT
BRANCH   2   4
HETATM    4  N   UNL     1     -11.588  11.564  63.412  1.00  0.00    -0.807 NA 
HETATM    5  H   UNL     1     -12.003  10.653  63.212  1.00  0.00     0.000 HD 
BRANCH   4   6
HETATM    6  C   UNL     1     -12.387  12.291  64.408  1.00  0.00    -0.404 C  
BRANCH   6   7
HETATM    7  C   UNL     1     -11.851  13.726  64.580  1.00  0.00    -0.417 C  
HETATM    8  H   UNL     1     -12.251  15.507  63.837  1.00  0.00     0.000 HD 
HETATM    9  O   UNL     1     -12.582  14.623  63.731  1.00  0.00    -0.820 OA 
BRANCH   7  10
HETATM   10  C   UNL     1     -11.960  14.184  66.040  1.00  0.00    -0.413 C  
BRANCH  10  11
HETATM   11  O   UNL     1     -11.249  13.265  66.883  1.00  0.00    -0.289 OA 
BRANCH  11  12
HETATM   12  C   UNL     1     -11.640  13.217  68.196  1.00  0.00    -0.339 A  
HETATM   13  C   UNL     1     -11.768  12.061  68.965  1.00  0.00    -0.382 A  
HETATM   14  C   UNL     1     -12.228  12.135  70.284  1.00  0.00    -0.344 A  
HETATM   15  C   UNL     1     -12.574  13.366  70.854  1.00  0.00    -0.406 A  
HETATM   16  C   UNL     1     -12.399  14.530  70.095  1.00  0.00    -0.398 A  
HETATM   17  C   UNL     1     -11.942  14.452  68.774  1.00  0.00    -0.331 A  
BRANCH  15  18
HETATM   18  C   UNL     1     -13.183  13.420  72.237  1.00  0.00    -0.570 C  
BRANCH  18  19
HETATM   19  C   UNL     1     -13.295  14.769  72.921  1.00  0.00    -0.484 C  
HETATM   20  N   UNL     1     -12.362  15.117  73.848  1.00  0.00    -0.591 N  
HETATM   21  O   UNL     1     -14.204  15.551  72.654  1.00  0.00    -0.518 OA 
HETATM   22  H2  UNL     1     -11.599  14.481  74.079  1.00  0.00     0.000 HD 
HETATM   23  H1  UNL     1     -12.438  16.024  74.308  1.00  0.00     0.000 HD 
ENDBRANCH  18  19
ENDBRANCH  15  18
ENDBRANCH  11  12
ENDBRANCH  10  11
ENDBRANCH   7  10
ENDBRANCH   6   7
ENDBRANCH   4   6
ENDBRANCH   2   4
TORSDOF 8
ENDMDL
MODEL        4
REMARK 921   NORMALIZED FREE ENERGY PREDICTED BY IDOCK:   -5.73 KCAL/MOL
REMARK 922        TOTAL FREE ENERGY PREDICTED BY IDOCK:   -8.99 KCAL/MOL
REMARK 923 INTER-LIGAND FREE ENERGY PREDICTED BY IDOCK:   -8.39 KCAL/MOL
REMARK 924 INTRA-LIGAND FREE ENERGY PREDICTED BY IDOCK:   -0.59 KCAL/MOL
REMARK 927      BINDING AFFINITY PREDICTED BY RF-SCORE:    0.00 PKD
ROOT
HETATM    1  C   UNL     1     -13.362  10.403  71.861  1.00  0.00    -0.469 C  
HETATM    2  C   UNL     1     -12.247  11.227  71.213  1.00  0.00    -0.170 C  
HETATM    3  C   UNL     1     -11.896  10.627  69.849  1.00  0.00    -0.392 C  
ENDROOT
BRANCH   2   4
HETATM    4  N   UNL     1     -12.707  12.614  71.098  1.00  0.00    -0.323 NA 
HETATM    5  H   UNL     1     -13.112  12.785  70.178  1.00  0.00     0.000 HD 
BRANCH   4   6
HETATM    6  C   UNL     1     -13.641  13.011  72.161  1.00  0.00    -0.526 C  
BRANCH   6   7
HETATM    7  C   UNL     1     -13.638  14.542  72.332  1.00  0.00    -0.466 C  
HETATM    8  H   UNL     1     -12.570  15.876  73.316  1.00  0.00     0.000 HD 
HETATM    9  O   UNL     1     -12.572  14.931  73.210  1.00  0.00    -0.435 OA 
BRANCH   7  10
HETATM   10  C   UNL     1     -13.484  15.249  70.979  1.00  0.00    -0.452 C  
BRANCH  10  11
HETATM   11  O   UNL     1     -12.121  15.667  70.811  1.00  0.00    -0.352 OA 
BRANCH  11  12
HETATM   12  C   UNL     1     -11.614  15.596  69.540  1.00  0.00    -0.357 A  
HETATM   13  C   UNL     1     -10.655  16.449  68.997  1.00  0.00    -0.308 A  
HETATM   14  C   UNL     1     -10.254  16.309  67.664  1.00  0.00    -0.272 A  
HETATM   15  C   UNL     1     -10.811  15.315  66.849  1.00  0.00    -0.317 A  
HETATM   16  C   UNL     1     -11.740  14.430  67.411  1.00  0.00    -0.424 A  
HETATM   17  C   UNL     1     -12.142  14.576  68.744  1.00  0.00    -0.256 A  
BRANCH  15  18
HETATM   18  C   UNL     1     -10.460  15.250  65.380  1.00  0.00    -0.422 C  
BRANCH  18  19
HETATM   19  C   UNL     1     -11.506  15.681  64.371  1.00  0.00    -0.262 C  
HETATM   20  N   UNL     1     -12.355  14.747  63.863  1.00  0.00    -1.070 N  
HETATM   21  O   UNL     1     -11.604  16.850  64.007  1.00  0.00    -1.123 OA 
HETATM   22  H2  UNL     1     -12.289  13.773  64.157  1.00  0.00     0.000 HD 
HETATM   23  H1  UNL     1     -13.059  15.038  63.184  1.00  0.00     0.000 HD 
ENDBRANCH  18  19
ENDBRANCH  15  18
ENDBRANCH  11  12
ENDBRANCH  10  11
ENDBRANCH   7  10
ENDBRANCH   6   7
ENDBRANCH   4   6
ENDBRANCH   2   4
TORSDOF 8
ENDMDL
MODEL        5
REMARK 921   NORMALIZED FREE ENERGY PREDICTED BY IDOCK:   -5.66 KCAL/MOL
REMARK 922        TOTAL FREE ENERGY PREDICTED BY IDOCK:   -8.88 KCAL/MOL
REMARK 923 INTER-LIGAND FREE ENERGY PREDICTED BY IDOCK:   -8.04 KCAL/MOL
REMARK 924 INTRA-LIGAND FREE ENERGY PREDICTED BY IDOCK:   -0.84 KCAL/MOL
REMARK 927      BINDING AFFINITY PREDICTED BY RF-SCORE:    0.00 PKD
ROOT
HETATM    1  C   UNL     1     -10.333  10.818  64.209  1.00  0.00    -0.401 C  
HETATM    2  C   UNL     1     -10.791  12.084  63.483  1.00  0.00    -0.444 C  
HETATM    3  C   UNL     1     -12.314  12.205  63.577  1.00  0.00    -0.682 C  
ENDROOT
BRANCH   2   4
HETATM    4  N   UNL     1     -10.113  13.234  64.089  1.00  0.00    -0.767 NA 
HETATM    5  H   UNL     1      -9.510  13.697  63.409  1.00  0.00     0.000 HD 
BRANCH   4   6
HETATM    6  C   UNL     1     -11.034  14.196  64.709  1.00  0.00    -0.400 C  
BRANCH   6   7
HETATM    7  C   UNL     1     -10.577  14.528  66.142  1.00  0.00    -0.306 C  
HETATM    8  H   UNL     1     -10.239  16.156  67.202  1.00  0.00     0.000 HD 
HETATM    9  O   UNL     1     -10.521  15.951  66.318  1.00  0.00    -0.301 OA 
BRANCH   7  10
HETATM   10  C   UNL     1     -11.523  13.910  67.181  1.00  0.00    -0.347 C  
BRANCH  10  11
HETATM   11  O   UNL     1     -11.661  12.505  66.924  1.00  0.00    -0.363 OA 
BRANCH  11  12
HETATM   12  C   UNL     1     -11.525  11.673  68.005  1.00  0.00    -0.315 A  
HETATM   13  C   UNL     1     -10.959  10.399  67.986  1.00  0.00    -0.347 A  
HETATM   14  C   UNL     1     -10.925   9.621  69.148  1.00  0.00    -0.177 A  
HETATM   15  C   UNL     1     -11.462  10.102  70.349  1.00  0.00    -0.400 A  
HETATM   16  C   UNL     1     -11.987  11.400  70.376  1.00  0.00    -0.465 A  
HETATM   17  C   UNL     1     -12.024  12.175  69.210  1.00  0.00    -0.318 A  
BRANCH  15  18
HETATM   18  C   UNL     1     -11.527   9.207  71.566  1.00  0.00    -0.437 C  
BRANCH  18  19
HETATM   19  C   UNL     1     -12.852   8.554  71.907  1.00  0.00    -0.363 C  
HETATM   20  N   UNL     1     -13.666   9.153  72.818  1.00  0.00    -0.857 N  
HETATM   21  O   UNL     1     -13.205   7.503  71.378  1.00  0.00    -0.349 OA 
HETATM   22  H2  UNL     1     -13.389  10.027  73.264  1.00  0.00     0.000 HD 
HETATM   23  H1  UNL     1     -14.557   8.713  73.048  1.00  0.00     0.000 HD 
ENDBRANCH  18  19
ENDBRANCH  15  18
ENDBRANCH  11  12
ENDBRANCH  10  11
ENDBRANCH   7  10
ENDBRANCH   6   7
ENDBRANCH   4   6
ENDBRANCH   2   4
TORSDOF 8
ENDMDL
MODEL        6
REMARK 921   NORMALIZED FREE ENERGY PREDICTED BY IDOCK:   -5.64 KCAL/MOL
REMARK 922        TOTAL FREE ENERGY PREDICTED BY IDOCK:   -8.85 KCAL/MOL
REMARK 923 INTER-LIGAND FREE ENERGY PREDICTED BY IDOCK:   -7.92 KCAL/MOL
REMARK 924 INTRA-LIGAND FREE ENERGY PREDICTED BY IDOCK:   -0.93 KCAL/MOL
REMARK 927      BINDING AFFINITY PREDICTED BY RF-SCORE:    0.00 PKD
ROOT
HETATM    1  C   UNL     1     -12.376  13.336  64.206  1.00  0.00    -0.406 C  
HETATM    2  C   UNL     1     -11.021  12.718  64.554  1.00  0.00    -0.341 C  
HETATM    3  C   UNL     1     -10.555  11.825  63.401  1.00  0.00    -0.479 C  
ENDROOT
BRANCH   2   4
HETATM    4  N   UNL     1     -10.074  13.804  64.821  1.00  0.00    -0.619 NA 
HETATM    5  H   UNL     1      -9.345  13.832  64.107  1.00  0.00     0.000 HD 
BRANCH   4   6
HETATM    6  C   UNL     1     -10.715  15.118  64.961  1.00  0.00    -0.430 C  
BRANCH   6   7
HETATM    7  C   UNL     1      -9.972  15.968  66.010  1.00  0.00    -0.339 C  
HETATM    8  H   UNL     1      -9.667  17.886  66.351  1.00  0.00     0.000 HD 
HETATM    9  O   UNL     1     -10.125  17.361  65.704  1.00  0.00    -0.566 OA 
BRANCH   7  10
HETATM   10  C   UNL     1     -10.496  15.683  67.424  1.00  0.00    -0.291 C  
BRANCH  10  11
HETATM   11  O   UNL     1     -11.685  14.883  67.340  1.00  0.00    -0.356 OA 
BRANCH  11  12
HETATM   12  C   UNL     1     -11.821  13.894  68.278  1.00  0.00    -0.376 A  
HETATM   13  C   UNL     1     -11.759  12.523  68.032  1.00  0.00    -0.410 A  
HETATM   14  C   UNL     1     -11.966  11.606  69.068  1.00  0.00    -0.368 A  
HETATM   15  C   UNL     1     -12.245  12.045  70.368  1.00  0.00    -0.379 A  
HETATM   16  C   UNL     1     -12.260  13.423  70.622  1.00  0.00    -0.427 A  
HETATM   17  C   UNL     1     -12.056  14.337  69.583  1.00  0.00    -0.396 A  
BRANCH  15  18
HETATM   18  C   UNL     1     -12.586  11.048  71.452  1.00  0.00    -0.498 C  
BRANCH  18  19
HETATM   19  C   UNL     1     -11.984   9.659  71.366  1.00  0.00    -0.399 C  
HETATM   20  N   UNL     1     -12.797   8.605  71.081  1.00  0.00    -0.492 N  
HETATM   21  O   UNL     1     -10.783   9.467  71.542  1.00  0.00    -0.346 OA 
HETATM   22  H2  UNL     1     -13.795   8.748  70.929  1.00  0.00     0.000 HD 
HETATM   23  H1  UNL     1     -12.391   7.671  71.024  1.00  0.00     0.000 HD 
ENDBRANCH  18  19
ENDBRANCH  15  18
ENDBRANCH  11  12
ENDBRANCH  10  11
ENDBRANCH   7  10
ENDBRANCH   6   7
ENDBRANCH   4   6
ENDBRANCH   2   4
TORSDOF 8
ENDMDL
MODEL        7
REMARK 921   NORMALIZED FREE ENERGY PREDICTED BY IDOCK:   -5.63 KCAL/MOL
REMARK 922        TOTAL FREE ENERGY PREDICTED BY IDOCK:   -8.84 KCAL/MOL
REMARK 923 INTER-LIGAND FREE ENERGY PREDICTED BY IDOCK:   -8.12 KCAL/MOL
REMARK 924 INTRA-LIGAND FREE ENERGY PREDICTED BY IDOCK:   -0.72 KCAL/MOL
REMARK 927      BINDING AFFINITY PREDICTED BY RF-SCORE:    0.00 PKD
ROOT
HETATM    1  C   UNL     1     -13.121  10.763  71.613  1.00  0.00    -0.551 C  
HETATM    2  C   UNL     1     -12.945   9.264  71.862  1.00  0.00    -0.411 C  
HETATM    3  C   UNL     1     -14.304   8.636  72.181  1.00  0.00    -0.518 C  
ENDROOT
BRANCH   2   4
HETATM    4  N   UNL     1     -12.334   8.668  70.670  1.00  0.00    -0.482 NA 
HETATM    5  H   UNL     1     -12.308   9.339  69.903  1.00  0.00     0.000 HD 
BRANCH   4   6
HETATM    6  C   UNL     1     -10.997   8.108  70.916  1.00  0.00    -0.242 C  
BRANCH   6   7
HETATM    7  C   UNL     1      -9.931   9.218  70.851  1.00  0.00    -0.297 C  
HETATM    8  H   UNL     1      -8.217   9.618  71.739  1.00  0.00     0.000 HD 
HETATM    9  O   UNL     1      -8.875   8.933  71.779  1.00  0.00    -0.308 OA 
BRANCH   7  10
HETATM   10  C   UNL     1      -9.359   9.351  69.433  1.00  0.00    -0.169 C  
BRANCH  10  11
HETATM   11  O   UNL     1     -10.389   9.070  68.474  1.00  0.00    -0.196 OA 
BRANCH  11  12
HETATM   12  C   UNL     1     -10.477   9.926  67.407  1.00  0.00    -0.267 A  
HETATM   13  C   UNL     1     -11.113  11.166  67.408  1.00  0.00    -0.370 A  
HETATM   14  C   UNL     1     -11.182  11.928  66.237  1.00  0.00    -0.392 A  
HETATM   15  C   UNL     1     -10.621  11.459  65.042  1.00  0.00    -0.359 A  
HETATM   16  C   UNL     1      -9.943  10.234  65.056  1.00  0.00    -0.393 A  
HETATM   17  C   UNL     1      -9.878   9.472  66.228  1.00  0.00    -0.334 A  
BRANCH  15  18
HETATM   18  C   UNL     1     -10.807  12.234  63.758  1.00  0.00    -0.495 C  
BRANCH  18  19
HETATM   19  C   UNL     1     -12.201  12.715  63.403  1.00  0.00    -0.517 C  
HETATM   20  N   UNL     1     -12.410  14.045  63.214  1.00  0.00    -1.145 N  
HETATM   21  O   UNL     1     -13.139  11.931  63.281  1.00  0.00    -0.674 OA 
HETATM   22  H2  UNL     1     -11.642  14.709  63.308  1.00  0.00     0.000 HD 
HETATM   23  H1  UNL     1     -13.348  14.368  62.975  1.00  0.00     0.000 HD 
ENDBRANCH  18  19
ENDBRANCH  15  18
ENDBRANCH  11  12
ENDBRANCH  10  11
ENDBRANCH   7  10
ENDBRANCH   6   7
ENDBRANCH   4   6
ENDBRANCH   2   4
TORSDOF 8
ENDMDL
MODEL        8
REMARK 921   NORMALIZED FREE ENERGY PREDICTED BY IDOCK:   -5.60 KCAL/MOL
REMARK 922        TOTAL FREE ENERGY PREDICTED BY IDOCK:   -8.79 KCAL/MOL
REMARK 923 INTER-LIGAND FREE ENERGY PREDICTED BY IDOCK:   -7.70 KCAL/MOL
REMARK 924 INTRA-LIGAND FREE ENERGY PREDICTED BY IDOCK:   -1.09 KCAL/MOL
REMARK 927      BINDING AFFINITY PREDICTED BY RF-SCORE:    0.00 PKD
ROOT
HETATM    1  C   UNL     1     -11.804  10.843  69.685  1.00  0.00    -0.416 C  
HETATM    2  C   UNL     1     -12.759  11.464  70.706  1.00  0.00    -0.253 C  
HETATM    3  C   UNL     1     -12.979  10.485  71.863  1.00  0.00    -0.553 C  
ENDROOT
BRANCH   2   4
HETATM    4  N   UNL     1     -12.181  12.731  71.166  1.00  0.00    -0.345 NA 
HETATM    5  H   UNL     1     -11.469  13.061  70.514  1.00  0.00     0.000 HD 
BRANCH   4   6
HETATM    6  C   UNL     1     -13.184  13.776  71.414  1.00  0.00    -0.305 C  
BRANCH   6   7
HETATM    7  C   UNL     1     -12.534  15.171  71.339  1.00  0.00    -0.344 C  
HETATM    8  H   UNL     1     -10.940  16.055  72.091  1.00  0.00     0.000 HD 
HETATM    9  O   UNL     1     -11.341  15.195  72.137  1.00  0.00    -0.419 OA 
BRANCH   7  10
HETATM   10  C   UNL     1     -12.199  15.547  69.890  1.00  0.00    -0.325 C  
BRANCH  10  11
HETATM   11  O   UNL     1     -10.913  15.015  69.543  1.00  0.00    -0.248 OA 
BRANCH  11  12
HETATM   12  C   UNL     1     -10.829  14.358  68.343  1.00  0.00    -0.248 A  
HETATM   13  C   UNL     1      -9.650  14.030  67.675  1.00  0.00    -0.221 A  
HETATM   14  C   UNL     1      -9.696  13.403  66.425  1.00  0.00    -0.282 A  
HETATM   15  C   UNL     1     -10.921  13.098  65.819  1.00  0.00    -0.295 A  
HETATM   16  C   UNL     1     -12.102  13.387  66.514  1.00  0.00    -0.444 A  
HETATM   17  C   UNL     1     -12.054  14.018  67.763  1.00  0.00    -0.325 A  
BRANCH  15  18
HETATM   18  C   UNL     1     -10.958  12.532  64.418  1.00  0.00    -0.378 C  
BRANCH  18  19
HETATM   19  C   UNL     1     -12.198  12.768  63.579  1.00  0.00    -0.525 C  
HETATM   20  N   UNL     1     -12.437  14.017  63.094  1.00  0.00    -1.070 N  
HETATM   21  O   UNL     1     -12.986  11.860  63.325  1.00  0.00    -0.707 OA 
HETATM   22  H2  UNL     1     -11.792  14.781  63.292  1.00  0.00     0.000 HD 
HETATM   23  H1  UNL     1     -13.272  14.176  62.530  1.00  0.00     0.000 HD 
ENDBRANCH  18  19
ENDBRANCH  15  18
ENDBRANCH  11  12
ENDBRANCH  10  11
ENDBRANCH   7  10
ENDBRANCH   6   7
ENDBRANCH   4   6
ENDBRANCH   2   4
TORSDOF 8
ENDMDL
MODEL        9
REMARK 921   NORMALIZED FREE ENERGY PREDICTED BY IDOCK:   -5.59 KCAL/MOL
REMARK 922        TOTAL FREE ENERGY PREDICTED BY IDOCK:   -8.77 KCAL/MOL
REMARK 923 INTER-LIGAND FREE ENERGY PREDICTED BY IDOCK:   -7.95 KCAL/MOL
REMARK 924 INTRA-LIGAND FREE ENERGY PREDICTED BY IDOCK:   -0.82 KCAL/MOL
REMARK 927      BINDING AFFINITY PREDICTED BY RF-SCORE:    0.00 PKD
ROOT
HETATM    1  C   UNL     1     -12.140  15.120  72.718  1.00  0.00    -0.486 C  
HETATM    2  C   UNL     1     -12.856  14.514  71.511  1.00  0.00    -0.336 C  
HETATM    3  C   UNL     1     -12.593  15.377  70.274  1.00  0.00    -0.377 C  
ENDROOT
BRANCH   2   4
HETATM    4  N   UNL     1     -12.375  13.141  71.330  1.00  0.00    -0.269 NA 
HETATM    5  H   UNL     1     -11.418  13.046  71.670  1.00  0.00     0.000 HD 
BRANCH   4   6
HETATM    6  C   UNL     1     -13.247  12.131  71.944  1.00  0.00    -0.369 C  
BRANCH   6   7
HETATM    7  C   UNL     1     -12.716  10.715  71.650  1.00  0.00    -0.426 C  
HETATM    8  H   UNL     1     -13.264   8.863  72.049  1.00  0.00     0.000 HD 
HETATM    9  O   UNL     1     -13.591   9.737  72.231  1.00  0.00    -0.425 OA 
BRANCH   7  10
HETATM   10  C   UNL     1     -12.593  10.474  70.140  1.00  0.00    -0.178 C  
BRANCH  10  11
HETATM   11  O   UNL     1     -11.290  10.881  69.696  1.00  0.00    -0.245 OA 
BRANCH  11  12
HETATM   12  C   UNL     1     -11.201  11.335  68.406  1.00  0.00    -0.262 A  
HETATM   13  C   UNL     1     -11.785  12.500  67.911  1.00  0.00    -0.416 A  
HETATM   14  C   UNL     1     -11.667  12.831  66.556  1.00  0.00    -0.463 A  
HETATM   15  C   UNL     1     -10.967  12.000  65.673  1.00  0.00    -0.343 A  
HETATM   16  C   UNL     1     -10.342  10.855  66.183  1.00  0.00    -0.305 A  
HETATM   17  C   UNL     1     -10.466  10.524  67.538  1.00  0.00    -0.284 A  
BRANCH  15  18
HETATM   18  C   UNL     1     -10.948  12.305  64.193  1.00  0.00    -0.415 C  
BRANCH  18  19
HETATM   19  C   UNL     1     -12.248  12.712  63.526  1.00  0.00    -0.547 C  
HETATM   20  N   UNL     1     -12.400  13.998  63.109  1.00  0.00    -1.094 N  
HETATM   21  O   UNL     1     -13.160  11.907  63.352  1.00  0.00    -0.710 OA 
HETATM   22  H2  UNL     1     -11.651  14.678  63.243  1.00  0.00     0.000 HD 
HETATM   23  H1  UNL     1     -13.275  14.271  62.660  1.00  0.00     0.000 HD 
ENDBRANCH  18  19
ENDBRANCH  15  18
ENDBRANCH  11  12
ENDBRANCH  10  11
ENDBRANCH   7  10
ENDBRANCH   6   7
ENDBRANCH   4   6
ENDBRANCH   2   4
TORSDOF 8
ENDMDL
MODEL       10
REMARK 921   NORMALIZED FREE ENERGY PREDICTED BY IDOCK:   -5.53 KCAL/MOL
REMARK 922        TOTAL FREE ENERGY PREDICTED BY IDOCK:   -8.68 KCAL/MOL
REMARK 923 INTER-LIGAND FREE ENERGY PREDICTED BY IDOCK:   -8.01 KCAL/MOL
REMARK 924 INTRA-LIGAND FREE ENERGY PREDICTED BY IDOCK:   -0.67 KCAL/MOL
REMARK 927      BINDING AFFINITY PREDICTED BY RF-SCORE:    0.00 PKD
ROOT
HETATM    1  C   UNL     1      -9.777  10.673  66.385  1.00  0.00    -0.241 C  
HETATM    2  C   UNL     1      -9.414  10.889  64.915  1.00  0.00    -0.235 C  
HETATM    3  C   UNL     1      -9.041   9.547  64.279  1.00  0.00    -0.220 C  
ENDROOT
BRANCH   2   4
HETATM    4  N   UNL     1     -10.559  11.512  64.245  1.00  0.00    -0.321 NA 
HETATM    5  H   UNL     1     -11.437  11.144  64.612  1.00  0.00     0.000 HD 
BRANCH   4   6
HETATM    6  C   UNL     1     -10.544  12.980  64.304  1.00  0.00    -0.412 C  
BRANCH   6   7
HETATM    7  C   UNL     1     -11.983  13.530  64.308  1.00  0.00    -0.432 C  
HETATM    8  H   UNL     1     -13.799  12.807  64.045  1.00  0.00     0.000 HD 
HETATM    9  O   UNL     1     -12.911  12.468  64.043  1.00  0.00    -0.707 OA 
BRANCH   7  10
HETATM   10  C   UNL     1     -12.318  14.192  65.651  1.00  0.00    -0.456 C  
BRANCH  10  11
HETATM   11  O   UNL     1     -11.748  13.421  66.719  1.00  0.00    -0.346 OA 
BRANCH  11  12
HETATM   12  C   UNL     1     -11.838  13.961  67.975  1.00  0.00    -0.375 A  
HETATM   13  C   UNL     1     -11.765  15.318  68.285  1.00  0.00    -0.320 A  
HETATM   14  C   UNL     1     -11.817  15.744  69.616  1.00  0.00    -0.352 A  
HETATM   15  C   UNL     1     -11.937  14.820  70.661  1.00  0.00    -0.371 A  
HETATM   16  C   UNL     1     -12.057  13.461  70.344  1.00  0.00    -0.405 A  
HETATM   17  C   UNL     1     -12.001  13.037  69.011  1.00  0.00    -0.312 A  
BRANCH  15  18
HETATM   18  C   UNL     1     -11.871  15.283  72.099  1.00  0.00    -0.526 C  
BRANCH  18  19
HETATM   19  C   UNL     1     -13.168  15.627  72.804  1.00  0.00    -0.516 C  
HETATM   20  N   UNL     1     -13.123  16.047  74.097  1.00  0.00    -0.914 N  
HETATM   21  O   UNL     1     -14.253  15.538  72.234  1.00  0.00    -0.549 OA 
HETATM   22  H2  UNL     1     -12.231  16.129  74.585  1.00  0.00     0.000 HD 
HETATM   23  H1  UNL     1     -13.997  16.278  74.572  1.00  0.00     0.000 HD 
ENDBRANCH  18  19
ENDBRANCH  15  18
ENDBRANCH  11  12
ENDBRANCH  10  11
ENDBRANCH   7  10
ENDBRANCH   6   7
ENDBRANCH   4   6
ENDBRANCH   2   4
TORSDOF 8
ENDMDL
MODEL       11
REMARK 921   NORMALIZED FREE ENERGY PREDICTED BY IDOCK:   -5.51 KCAL/MOL
REMARK 922        TOTAL FREE ENERGY PREDICTED BY IDOCK:   -8.66 KCAL/MOL
REMARK 923 INTER-LIGAND FREE ENERGY PREDICTED BY IDOCK:   -8.24 KCAL/MOL
REMARK 924 INTRA-LIGAND FREE ENERGY PREDICTED BY IDOCK:   -0.42 KCAL/MOL
REMARK 927      BINDING AFFINITY PREDICTED BY RF-SCORE:    0.00 PKD
ROOT
HETATM    1  C   UNL     1     -10.501  11.202  64.504  1.00  0.00    -0.415 C  
HETATM    2  C   UNL     1     -10.723  12.434  63.626  1.00  0.00    -0.455 C  
HETATM    3  C   UNL     1     -12.225  12.659  63.432  1.00  0.00    -0.610 C  
ENDROOT
BRANCH   2   4
HETATM    4  N   UNL     1     -10.078  13.582  64.270  1.00  0.00    -0.771 NA 
HETATM    5  H   UNL     1      -9.532  14.116  63.593  1.00  0.00     0.000 HD 
BRANCH   4   6
HETATM    6  C   UNL     1     -11.017  14.455  64.986  1.00  0.00    -0.389 C  
BRANCH   6   7
HETATM    7  C   UNL     1     -10.670  15.935  64.735  1.00  0.00    -0.229 C  
HETATM    8  H   UNL     1     -11.472  17.455  63.767  1.00  0.00     0.000 HD 
HETATM    9  O   UNL     1     -11.686  16.542  63.922  1.00  0.00    -1.148 OA 
BRANCH   7  10
HETATM   10  C   UNL     1     -10.532  16.702  66.056  1.00  0.00    -0.298 C  
BRANCH  10  11
HETATM   11  O   UNL     1     -10.250  18.082  65.780  1.00  0.00    -0.574 OA 
BRANCH  11  12
HETATM   12  C   UNL     1      -9.299  18.678  66.567  1.00  0.00    -0.320 A  
HETATM   13  C   UNL     1      -9.040  20.046  66.636  1.00  0.00    -0.463 A  
HETATM   14  C   UNL     1      -8.003  20.532  67.440  1.00  0.00    -0.349 A  
HETATM   15  C   UNL     1      -7.204  19.656  68.185  1.00  0.00    -0.337 A  
HETATM   16  C   UNL     1      -7.497  18.287  68.150  1.00  0.00    -0.270 A  
HETATM   17  C   UNL     1      -8.532  17.804  67.342  1.00  0.00    -0.230 A  
BRANCH  15  18
HETATM   18  C   UNL     1      -6.013  20.181  68.954  1.00  0.00    -0.329 C  
BRANCH  18  19
HETATM   19  C   UNL     1      -5.823  19.721  70.387  1.00  0.00    -0.292 C  
HETATM   20  N   UNL     1      -6.399  20.437  71.390  1.00  0.00    -0.553 N  
HETATM   21  O   UNL     1      -5.166  18.719  70.658  1.00  0.00    -0.210 OA 
HETATM   22  H2  UNL     1      -6.950  21.270  71.181  1.00  0.00     0.000 HD 
HETATM   23  H1  UNL     1      -6.271  20.128  72.353  1.00  0.00     0.000 HD 
ENDBRANCH  18  19
ENDBRANCH  15  18
ENDBRANCH  11  12
ENDBRANCH  10  11
ENDBRANCH   7  10
ENDBRANCH   6   7
ENDBRANCH   4   6
ENDBRANCH   2   4
TORSDOF 8
ENDMDL
MODEL       12
REMARK 921   NORMALIZED FREE ENERGY PREDICTED BY IDOCK:   -5.51 KCAL/MOL
REMARK 922        TOTAL FREE ENERGY PREDICTED BY IDOCK:   -8.65 KCAL/MOL
REMARK 923 INTER-LIGAND FREE ENERGY PREDICTED BY IDOCK:   -7.80 KCAL/MOL
REMARK 924 INTRA-LIGAND FREE ENERGY PREDICTED BY IDOCK:   -0.86 KCAL/MOL
REMARK 927      BINDING AFFINITY PREDICTED BY RF-SCORE:    0.00 PKD
ROOT
HETATM    1  C   UNL     1     -10.670   6.975  68.712  1.00  0.00    -0.226 C  
HETATM    2  C   UNL     1     -11.397   6.249  69.845  1.00  0.00    -0.434 C  
HETATM    3  C   UNL     1     -10.374   5.738  70.863  1.00  0.00    -0.299 C  
ENDROOT
BRANCH   2   4
HETATM    4  N   UNL     1     -12.352   7.181  70.451  1.00  0.00    -0.600 NA 
HETATM    5  H   UNL     1     -13.286   6.770  70.484  1.00  0.00     0.000 HD 
BRANCH   4   6
HETATM    6  C   UNL     1     -11.945   7.655  71.780  1.00  0.00    -0.299 C  
BRANCH   6   7
HETATM    7  C   UNL     1     -11.649   9.166  71.742  1.00  0.00    -0.387 C  
HETATM    8  H   UNL     1     -10.060  10.315  71.530  1.00  0.00     0.000 HD 
HETATM    9  O   UNL     1     -10.243   9.382  71.554  1.00  0.00    -0.308 OA 
BRANCH   7  10
HETATM   10  C   UNL     1     -12.438   9.855  70.621  1.00  0.00    -0.187 C  
BRANCH  10  11
HETATM   11  O   UNL     1     -11.989  11.211  70.485  1.00  0.00    -0.336 OA 
BRANCH  11  12
HETATM   12  C   UNL     1     -11.740  11.645  69.209  1.00  0.00    -0.331 A  
HETATM   13  C   UNL     1     -11.902  12.950  68.746  1.00  0.00    -0.353 A  
HETATM   14  C   UNL     1     -11.664  13.260  67.403  1.00  0.00    -0.419 A  
HETATM   15  C   UNL     1     -11.266  12.268  66.498  1.00  0.00    -0.373 A  
HETATM   16  C   UNL     1     -11.058  10.968  66.976  1.00  0.00    -0.311 A  
HETATM   17  C   UNL     1     -11.301  10.660  68.320  1.00  0.00    -0.357 A  
BRANCH  15  18
HETATM   18  C   UNL     1     -11.129  12.590  65.027  1.00  0.00    -0.335 C  
BRANCH  18  19
HETATM   19  C   UNL     1     -12.390  12.872  64.232  1.00  0.00    -0.385 C  
HETATM   20  N   UNL     1     -12.455  14.003  63.480  1.00  0.00    -1.099 N  
HETATM   21  O   UNL     1     -13.347  12.101  64.251  1.00  0.00    -0.761 OA 
HETATM   22  H2  UNL     1     -11.668  14.652  63.451  1.00  0.00     0.000 HD 
HETATM   23  H1  UNL     1     -13.303  14.192  62.946  1.00  0.00     0.000 HD 
ENDBRANCH  18  19
ENDBRANCH  15  18
ENDBRANCH  11  12
ENDBRANCH  10  11
ENDBRANCH   7  10
ENDBRANCH   6   7
ENDBRANCH   4   6
ENDBRANCH   2   4
TORSDOF 8
ENDMDL
MODEL       13
REMARK 921   NORMALIZED FREE ENERGY PREDICTED BY IDOCK:   -5.51 KCAL/MOL
REMARK 922        TOTAL FREE ENERGY PREDICTED BY IDOCK:   -8.65 KCAL/MOL
REMARK 923 INTER-LIGAND FREE ENERGY PREDICTED BY IDOCK:   -7.80 KCAL/MOL
REMARK 924 INTRA-LIGAND FREE ENERGY PREDICTED BY IDOCK:   -0.85 KCAL/MOL
REMARK 927      BINDING AFFINITY PREDICTED BY RF-SCORE:    0.00 PKD
ROOT
HETATM    1  C   UNL     1     -12.360  12.176  63.797  1.00  0.00    -0.635 C  
HETATM    2  C   UNL     1     -11.427  13.387  63.835  1.00  0.00    -0.309 C  
HETATM    3  C   UNL     1     -12.125  14.548  64.548  1.00  0.00    -0.501 C  
ENDROOT
BRANCH   2   4
HETATM    4  N   UNL     1     -10.189  12.994  64.515  1.00  0.00    -0.547 NA 
HETATM    5  H   UNL     1     -10.065  13.527  65.376  1.00  0.00     0.000 HD 
BRANCH   4   6
HETATM    6  C   UNL     1     -10.098  11.552  64.777  1.00  0.00    -0.269 C  
BRANCH   6   7
HETATM    7  C   UNL     1      -9.558  11.299  66.198  1.00  0.00    -0.214 C  
HETATM    8  H   UNL     1      -8.338  12.205  67.453  1.00  0.00     0.000 HD 
HETATM    9  O   UNL     1      -8.671  12.361  66.577  1.00  0.00    -0.164 OA 
BRANCH   7  10
HETATM   10  C   UNL     1     -10.704  11.188  67.213  1.00  0.00    -0.258 C  
BRANCH  10  11
HETATM   11  O   UNL     1     -11.231  12.495  67.482  1.00  0.00    -0.259 OA 
BRANCH  11  12
HETATM   12  C   UNL     1     -11.715  12.708  68.747  1.00  0.00    -0.323 A  
HETATM   13  C   UNL     1     -11.929  11.725  69.712  1.00  0.00    -0.392 A  
HETATM   14  C   UNL     1     -12.479  12.061  70.954  1.00  0.00    -0.384 A  
HETATM   15  C   UNL     1     -12.829  13.385  71.249  1.00  0.00    -0.407 A  
HETATM   16  C   UNL     1     -12.568  14.376  70.295  1.00  0.00    -0.380 A  
HETATM   17  C   UNL     1     -12.022  14.037  69.052  1.00  0.00    -0.392 A  
BRANCH  15  18
HETATM   18  C   UNL     1     -13.532  13.715  72.546  1.00  0.00    -0.675 C  
BRANCH  18  19
HETATM   19  C   UNL     1     -13.121  14.973  73.287  1.00  0.00    -0.490 C  
HETATM   20  N   UNL     1     -13.975  16.031  73.310  1.00  0.00    -0.693 N  
HETATM   21  O   UNL     1     -12.041  15.054  73.866  1.00  0.00    -0.507 OA 
HETATM   22  H2  UNL     1     -14.878  15.979  72.837  1.00  0.00     0.000 HD 
HETATM   23  H1  UNL     1     -13.699  16.878  73.808  1.00  0.00     0.000 HD 
ENDBRANCH  18  19
ENDBRANCH  15  18
ENDBRANCH  11  12
ENDBRANCH  10  11
ENDBRANCH   7  10
ENDBRANCH   6   7
ENDBRANCH   4   6
ENDBRANCH   2   4
TORSDOF 8
ENDMDL
MODEL       14
REMARK 921   NORMALIZED FREE ENERGY PREDICTED BY IDOCK:   -5.49 KCAL/MOL
REMARK 922        TOTAL FREE ENERGY PREDICTED BY IDOCK:   -8.63 KCAL/MOL
REMARK 923 INTER-LIGAND FREE ENERGY PREDICTED BY IDOCK:   -7.97 KCAL/MOL
REMARK 924 INTRA-LIGAND FREE ENERGY PREDICTED BY IDOCK:   -0.66 KCAL/MOL
REMARK 927      BINDING AFFINITY PREDICTED BY RF-SCORE:    0.00 PKD
ROOT
HETATM    1  C   UNL     1     -14.057  13.788  72.381  1.00  0.00    -0.593 C  
HETATM    2  C   UNL     1     -13.973  15.295  72.136  1.00  0.00    -0.549 C  
HETATM    3  C   UNL     1     -13.004  15.923  73.141  1.00  0.00    -0.653 C  
ENDROOT
BRANCH   2   4
HETATM    4  N   UNL     1     -13.542  15.514  70.752  1.00  0.00    -0.847 NA 
HETATM    5  H   UNL     1     -14.030  16.312  70.344  1.00  0.00     0.000 HD 
BRANCH   4   6
HETATM    6  C   UNL     1     -12.088  15.666  70.609  1.00  0.00    -0.405 C  
BRANCH   6   7
HETATM    7  C   UNL     1     -11.690  15.643  69.121  1.00  0.00    -0.390 C  
HETATM    8  H   UNL     1     -10.475  16.654  67.943  1.00  0.00     0.000 HD 
HETATM    9  O   UNL     1     -10.720  16.668  68.861  1.00  0.00    -0.302 OA 
BRANCH   7  10
HETATM   10  C   UNL     1     -11.125  14.274  68.721  1.00  0.00    -0.256 C  
BRANCH  10  11
HETATM   11  O   UNL     1     -12.123  13.265  68.932  1.00  0.00    -0.316 OA 
BRANCH  11  12
HETATM   12  C   UNL     1     -11.686  12.079  69.464  1.00  0.00    -0.342 A  
HETATM   13  C   UNL     1     -10.577  11.354  69.033  1.00  0.00    -0.224 A  
HETATM   14  C   UNL     1     -10.262  10.124  69.623  1.00  0.00    -0.272 A  
HETATM   15  C   UNL     1     -11.055   9.598  70.650  1.00  0.00    -0.384 A  
HETATM   16  C   UNL     1     -12.141  10.352  71.112  1.00  0.00    -0.487 A  
HETATM   17  C   UNL     1     -12.456  11.579  70.518  1.00  0.00    -0.367 A  
BRANCH  15  18
HETATM   18  C   UNL     1     -10.775   8.216  71.196  1.00  0.00    -0.258 C  
BRANCH  18  19
HETATM   19  C   UNL     1     -11.775   7.113  70.908  1.00  0.00    -0.328 C  
HETATM   20  N   UNL     1     -11.754   6.507  69.691  1.00  0.00    -0.643 N  
HETATM   21  O   UNL     1     -12.596   6.755  71.749  1.00  0.00    -0.357 OA 
HETATM   22  H2  UNL     1     -11.077   6.790  68.983  1.00  0.00     0.000 HD 
HETATM   23  H1  UNL     1     -12.427   5.765  69.498  1.00  0.00     0.000 HD 
ENDBRANCH  18  19
ENDBRANCH  15  18
ENDBRANCH  11  12
ENDBRANCH  10  11
ENDBRANCH   7  10
ENDBRANCH   6   7
ENDBRANCH   4   6
ENDBRANCH   2   4
TORSDOF 8
ENDMDL
MODEL       15
REMARK 921   NORMALIZED FREE ENERGY PREDICTED BY IDOCK:   -5.49 KCAL/MOL
REMARK 922        TOTAL FREE ENERGY PREDICTED BY IDOCK:   -8.63 KCAL/MOL
REMARK 923 INTER-LIGAND FREE ENERGY PREDICTED BY IDOCK:   -7.81 KCAL/MOL
REMARK 924 INTRA-LIGAND FREE ENERGY PREDICTED BY IDOCK:   -0.82 KCAL/MOL
REMARK 927      BINDING AFFINITY PREDICTED BY RF-SCORE:    0.00 PKD
ROOT
HETATM    1  C   UNL     1     -10.526   5.904  71.282  1.00  0.00    -0.289 C  
HETATM    2  C   UNL     1     -10.930   6.754  70.076  1.00  0.00    -0.295 C  
HETATM    3  C   UNL     1     -10.923   5.887  68.814  1.00  0.00    -0.311 C  
ENDROOT
BRANCH   2   4
HETATM    4  N   UNL     1     -12.254   7.325  70.339  1.00  0.00    -0.567 NA 
HETATM    5  H   UNL     1     -12.979   6.613  70.250  1.00  0.00     0.000 HD 
BRANCH   4   6
HETATM    6  C   UNL     1     -12.351   8.006  71.638  1.00  0.00    -0.314 C  
BRANCH   6   7
HETATM    7  C   UNL     1     -13.448   9.086  71.596  1.00  0.00    -0.386 C  
HETATM    8  H   UNL     1     -14.981   9.621  72.715  1.00  0.00     0.000 HD 
HETATM    9  O   UNL     1     -14.304   8.954  72.741  1.00  0.00    -0.600 OA 
BRANCH   7  10
HETATM   10  C   UNL     1     -12.838  10.493  71.561  1.00  0.00    -0.463 C  
BRANCH  10  11
HETATM   11  O   UNL     1     -11.567  10.445  70.895  1.00  0.00    -0.340 OA 
BRANCH  11  12
HETATM   12  C   UNL     1     -11.522  10.974  69.631  1.00  0.00    -0.303 A  
HETATM   13  C   UNL     1     -11.188  10.280  68.469  1.00  0.00    -0.271 A  
HETATM   14  C   UNL     1     -11.125  10.945  67.240  1.00  0.00    -0.350 A  
HETATM   15  C   UNL     1     -11.390  12.317  67.152  1.00  0.00    -0.398 A  
HETATM   16  C   UNL     1     -11.771  13.002  68.313  1.00  0.00    -0.390 A  
HETATM   17  C   UNL     1     -11.829  12.335  69.543  1.00  0.00    -0.380 A  
BRANCH  15  18
HETATM   18  C   UNL     1     -11.201  13.047  65.842  1.00  0.00    -0.315 C  
BRANCH  18  19
HETATM   19  C   UNL     1     -12.410  13.243  64.948  1.00  0.00    -0.425 C  
HETATM   20  N   UNL     1     -12.468  12.577  63.763  1.00  0.00    -0.669 N  
HETATM   21  O   UNL     1     -13.335  13.985  65.271  1.00  0.00    -0.741 OA 
HETATM   22  H2  UNL     1     -11.710  11.955  63.481  1.00  0.00     0.000 HD 
HETATM   23  H1  UNL     1     -13.282  12.709  63.162  1.00  0.00     0.000 HD 
ENDBRANCH  18  19
ENDBRANCH  15  18
ENDBRANCH  11  12
ENDBRANCH  10  11
ENDBRANCH   7  10
ENDBRANCH   6   7
ENDBRANCH   4   6
ENDBRANCH   2   4
TORSDOF 8
ENDMDL
MODEL       16
REMARK 921   NORMALIZED FREE ENERGY PREDICTED BY IDOCK:   -5.46 KCAL/MOL
REMARK 922        TOTAL FREE ENERGY PREDICTED BY IDOCK:   -8.59 KCAL/MOL
REMARK 923 INTER-LIGAND FREE ENERGY PREDICTED BY IDOCK:   -7.60 KCAL/MOL
REMARK 924 INTRA-LIGAND FREE ENERGY PREDICTED BY IDOCK:   -0.99 KCAL/MOL
REMARK 927      BINDING AFFINITY PREDICTED BY RF-SCORE:    0.00 PKD
ROOT
HETATM    1  C   UNL     1     -10.962   6.577  67.118  1.00  0.00    -0.480 C  
HETATM    2  C   UNL     1     -10.738   6.207  68.586  1.00  0.00    -0.307 C  
HETATM    3  C   UNL     1      -9.309   6.576  68.994  1.00  0.00    -0.128 C  
ENDROOT
BRANCH   2   4
HETATM    4  N   UNL     1     -11.736   6.911  69.396  1.00  0.00    -0.567 NA 
HETATM    5  H   UNL     1     -12.578   6.345  69.504  1.00  0.00     0.000 HD 
BRANCH   4   6
HETATM    6  C   UNL     1     -11.228   7.344  70.705  1.00  0.00    -0.270 C  
BRANCH   6   7
HETATM    7  C   UNL     1     -12.121   8.458  71.285  1.00  0.00    -0.284 C  
HETATM    8  H   UNL     1     -12.677   9.067  73.076  1.00  0.00     0.000 HD 
HETATM    9  O   UNL     1     -12.126   8.380  72.718  1.00  0.00    -0.354 OA 
BRANCH   7  10
HETATM   10  C   UNL     1     -11.637   9.843  70.838  1.00  0.00    -0.373 C  
BRANCH  10  11
HETATM   11  O   UNL     1     -10.711   9.698  69.752  1.00  0.00    -0.220 OA 
BRANCH  11  12
HETATM   12  C   UNL     1     -10.904  10.520  68.672  1.00  0.00    -0.237 A  
HETATM   13  C   UNL     1     -10.398  10.313  67.390  1.00  0.00    -0.282 A  
HETATM   14  C   UNL     1     -10.620  11.256  66.380  1.00  0.00    -0.316 A  
HETATM   15  C   UNL     1     -11.350  12.423  66.637  1.00  0.00    -0.394 A  
HETATM   16  C   UNL     1     -11.897  12.605  67.913  1.00  0.00    -0.388 A  
HETATM   17  C   UNL     1     -11.669  11.663  68.923  1.00  0.00    -0.397 A  
BRANCH  15  18
HETATM   18  C   UNL     1     -11.481  13.489  65.572  1.00  0.00    -0.320 C  
BRANCH  18  19
HETATM   19  C   UNL     1     -12.370  13.205  64.377  1.00  0.00    -0.360 C  
HETATM   20  N   UNL     1     -12.228  13.963  63.257  1.00  0.00    -1.111 N  
HETATM   21  O   UNL     1     -13.209  12.308  64.399  1.00  0.00    -0.806 OA 
HETATM   22  H2  UNL     1     -11.535  14.710  63.221  1.00  0.00     0.000 HD 
HETATM   23  H1  UNL     1     -12.827  13.772  62.453  1.00  0.00     0.000 HD 
ENDBRANCH  18  19
ENDBRANCH  15  18
ENDBRANCH  11  12
ENDBRANCH  10  11
ENDBRANCH   7  10
ENDBRANCH   6   7
ENDBRANCH   4   6
ENDBRANCH   2   4
TORSDOF 8
ENDMDL
MODEL       17
REMARK 921   NORMALIZED FREE ENERGY PREDICTED BY IDOCK:   -5.46 KCAL/MOL
REMARK 922        TOTAL FREE ENERGY PREDICTED BY IDOCK:   -8.59 KCAL/MOL
REMARK 923 INTER-LIGAND FREE ENERGY PREDICTED BY IDOCK:   -8.03 KCAL/MOL
REMARK 924 INTRA-LIGAND FREE ENERGY PREDICTED BY IDOCK:   -0.56 KCAL/MOL
REMARK 927      BINDING AFFINITY PREDICTED BY RF-SCORE:    0.00 PKD
ROOT
HETATM    1  C   UNL     1     -10.365  10.827  64.463  1.00  0.00    -0.401 C  
HETATM    2  C   UNL     1     -10.840  11.905  63.487  1.00  0.00    -0.434 C  
HETATM    3  C   UNL     1     -12.369  11.981  63.513  1.00  0.00    -0.661 C  
ENDROOT
BRANCH   2   4
HETATM    4  N   UNL     1     -10.223  13.179  63.871  1.00  0.00    -0.744 NA 
HETATM    5  H   UNL     1     -10.699  13.961  63.422  1.00  0.00     0.000 HD 
BRANCH   4   6
HETATM    6  C   UNL     1     -10.152  13.379  65.325  1.00  0.00    -0.249 C  
BRANCH   6   7
HETATM    7  C   UNL     1     -10.937  14.641  65.731  1.00  0.00    -0.330 C  
HETATM    8  H   UNL     1     -12.029  16.008  64.822  1.00  0.00     0.000 HD 
HETATM    9  O   UNL     1     -11.544  15.230  64.572  1.00  0.00    -0.395 OA 
BRANCH   7  10
HETATM   10  C   UNL     1     -12.013  14.311  66.774  1.00  0.00    -0.436 C  
BRANCH  10  11
HETATM   11  O   UNL     1     -11.433  14.349  68.086  1.00  0.00    -0.278 OA 
BRANCH  11  12
HETATM   12  C   UNL     1     -11.761  13.317  68.926  1.00  0.00    -0.327 A  
HETATM   13  C   UNL     1     -11.724  11.962  68.603  1.00  0.00    -0.380 A  
HETATM   14  C   UNL     1     -12.134  11.000  69.533  1.00  0.00    -0.400 A  
HETATM   15  C   UNL     1     -12.593  11.379  70.801  1.00  0.00    -0.409 A  
HETATM   16  C   UNL     1     -12.584  12.738  71.139  1.00  0.00    -0.365 A  
HETATM   17  C   UNL     1     -12.177  13.698  70.205  1.00  0.00    -0.413 A  
BRANCH  15  18
HETATM   18  C   UNL     1     -13.146  10.342  71.752  1.00  0.00    -0.570 C  
BRANCH  18  19
HETATM   19  C   UNL     1     -12.337   9.081  71.990  1.00  0.00    -0.384 C  
HETATM   20  N   UNL     1     -12.992   7.908  72.202  1.00  0.00    -0.491 N  
HETATM   21  O   UNL     1     -11.108   9.097  71.992  1.00  0.00    -0.357 OA 
HETATM   22  H2  UNL     1     -14.012   7.877  72.201  1.00  0.00     0.000 HD 
HETATM   23  H1  UNL     1     -12.448   7.061  72.363  1.00  0.00     0.000 HD 
ENDBRANCH  18  19
ENDBRANCH  15  18
ENDBRANCH  11  12
ENDBRANCH  10  11
ENDBRANCH   7  10
ENDBRANCH   6   7
ENDBRANCH   4   6
ENDBRANCH   2   4
TORSDOF 8
ENDMDL
MODEL       18
REMARK 921   NORMALIZED FREE ENERGY PREDICTED BY IDOCK:   -5.46 KCAL/MOL
REMARK 922        TOTAL FREE ENERGY PREDICTED BY IDOCK:   -8.58 KCAL/MOL
REMARK 923 INTER-LIGAND FREE ENERGY PREDICTED BY IDOCK:   -8.09 KCAL/MOL
REMARK 924 INTRA-LIGAND FREE ENERGY PREDICTED BY IDOCK:   -0.48 KCAL/MOL
REMARK 927      BINDING AFFINITY PREDICTED BY RF-SCORE:    0.00 PKD
ROOT
HETATM    1  C   UNL     1     -10.680  19.738  65.515  1.00  0.00    -0.329 C  
HETATM    2  C   UNL     1     -10.077  18.458  66.095  1.00  0.00    -0.360 C  
HETATM    3  C   UNL     1     -10.487  18.318  67.563  1.00  0.00    -0.431 C  
ENDROOT
BRANCH   2   4
HETATM    4  N   UNL     1     -10.539  17.324  65.289  1.00  0.00    -0.657 NA 
HETATM    5  H   UNL     1     -10.218  17.411  64.324  1.00  0.00     0.000 HD 
BRANCH   4   6
HETATM    6  C   UNL     1     -10.163  16.018  65.846  1.00  0.00    -0.365 C  
BRANCH   6   7
HETATM    7  C   UNL     1     -11.043  14.905  65.245  1.00  0.00    -0.378 C  
HETATM    8  H   UNL     1     -10.797  13.388  64.010  1.00  0.00     0.000 HD 
HETATM    9  O   UNL     1     -10.254  14.074  64.381  1.00  0.00    -0.310 OA 
BRANCH   7  10
HETATM   10  C   UNL     1     -11.684  14.052  66.348  1.00  0.00    -0.391 C  
BRANCH  10  11
HETATM   11  O   UNL     1     -10.881  14.124  67.535  1.00  0.00    -0.269 OA 
BRANCH  11  12
HETATM   12  C   UNL     1     -11.558  14.209  68.724  1.00  0.00    -0.327 A  
HETATM   13  C   UNL     1     -12.037  15.382  69.306  1.00  0.00    -0.283 A  
HETATM   14  C   UNL     1     -12.668  15.346  70.554  1.00  0.00    -0.455 A  
HETATM   15  C   UNL     1     -12.827  14.138  71.243  1.00  0.00    -0.429 A  
HETATM   16  C   UNL     1     -12.387  12.956  70.634  1.00  0.00    -0.385 A  
HETATM   17  C   UNL     1     -11.751  12.995  69.387  1.00  0.00    -0.386 A  
BRANCH  15  18
HETATM   18  C   UNL     1     -13.402  14.128  72.641  1.00  0.00    -0.638 C  
BRANCH  18  19
HETATM   19  C   UNL     1     -13.076  15.290  73.560  1.00  0.00    -0.416 C  
HETATM   20  N   UNL     1     -12.046  15.165  74.440  1.00  0.00    -0.691 N  
HETATM   21  O   UNL     1     -13.718  16.337  73.524  1.00  0.00    -0.595 OA 
HETATM   22  H2  UNL     1     -11.502  14.304  74.480  1.00  0.00     0.000 HD 
HETATM   23  H1  UNL     1     -11.828  15.947  75.058  1.00  0.00     0.000 HD 
ENDBRANCH  18  19
ENDBRANCH  15  18
ENDBRANCH  11  12
ENDBRANCH  10  11
ENDBRANCH   7  10
ENDBRANCH   6   7
ENDBRANCH   4   6
ENDBRANCH   2   4
TORSDOF 8
ENDMDL
MODEL       19
REMARK 921   NORMALIZED FREE ENERGY PREDICTED BY IDOCK:   -5.44 KCAL/MOL
REMARK 922        TOTAL FREE ENERGY PREDICTED BY IDOCK:   -8.56 KCAL/MOL
REMARK 923 INTER-LIGAND FREE ENERGY PREDICTED BY IDOCK:   -7.77 KCAL/MOL
REMARK 924 INTRA-LIGAND FREE ENERGY PREDICTED BY IDOCK:   -0.78 KCAL/MOL
REMARK 927      BINDING AFFINITY PREDICTED BY RF-SCORE:    0.00 PKD
ROOT
HETATM    1  C   UNL     1     -12.027   8.709  72.000  1.00  0.00    -0.442 C  
HETATM    2  C   UNL     1     -12.789   7.464  71.542  1.00  0.00    -0.375 C  
HETATM    3  C   UNL     1     -14.286   7.777  71.476  1.00  0.00    -0.574 C  
ENDROOT
BRANCH   2   4
HETATM    4  N   UNL     1     -12.259   7.054  70.238  1.00  0.00    -0.622 NA 
HETATM    5  H   UNL     1     -12.254   7.840  69.587  1.00  0.00     0.000 HD 
BRANCH   4   6
HETATM    6  C   UNL     1     -10.929   6.434  70.316  1.00  0.00    -0.318 C  
BRANCH   6   7
HETATM    7  C   UNL     1     -10.177   6.609  68.983  1.00  0.00    -0.177 C  
HETATM    8  H   UNL     1     -10.598   6.446  67.063  1.00  0.00     0.000 HD 
HETATM    9  O   UNL     1     -11.062   6.338  67.886  1.00  0.00    -0.332 OA 
BRANCH   7  10
HETATM   10  C   UNL     1      -9.606   8.028  68.854  1.00  0.00    -0.152 C  
BRANCH  10  11
HETATM   11  O   UNL     1     -10.684   8.972  68.789  1.00  0.00    -0.195 OA 
BRANCH  11  12
HETATM   12  C   UNL     1     -10.704   9.798  67.695  1.00  0.00    -0.274 A  
HETATM   13  C   UNL     1     -10.185   9.496  66.437  1.00  0.00    -0.302 A  
HETATM   14  C   UNL     1     -10.219  10.446  65.410  1.00  0.00    -0.329 A  
HETATM   15  C   UNL     1     -10.767  11.716  65.626  1.00  0.00    -0.330 A  
HETATM   16  C   UNL     1     -11.330  12.000  66.877  1.00  0.00    -0.400 A  
HETATM   17  C   UNL     1     -11.291  11.049  67.903  1.00  0.00    -0.381 A  
BRANCH  15  18
HETATM   18  C   UNL     1     -10.689  12.773  64.547  1.00  0.00    -0.380 C  
BRANCH  18  19
HETATM   19  C   UNL     1     -11.866  12.926  63.604  1.00  0.00    -0.532 C  
HETATM   20  N   UNL     1     -12.444  11.809  63.086  1.00  0.00    -0.939 N  
HETATM   21  O   UNL     1     -12.308  14.032  63.302  1.00  0.00    -0.718 OA 
HETATM   22  H2  UNL     1     -12.092  10.883  63.329  1.00  0.00     0.000 HD 
HETATM   23  H1  UNL     1     -13.236  11.912  62.452  1.00  0.00     0.000 HD 
ENDBRANCH  18  19
ENDBRANCH  15  18
ENDBRANCH  11  12
ENDBRANCH  10  11
ENDBRANCH   7  10
ENDBRANCH   6   7
ENDBRANCH   4   6
ENDBRANCH   2   4
TORSDOF 8
ENDMDL
MODEL       20
REMARK 921   NORMALIZED FREE ENERGY PREDICTED BY IDOCK:   -5.43 KCAL/MOL
REMARK 922        TOTAL FREE ENERGY PREDICTED BY IDOCK:   -8.54 KCAL/MOL
REMARK 923 INTER-LIGAND FREE ENERGY PREDICTED BY IDOCK:   -8.08 KCAL/MOL
REMARK 924 INTRA-LIGAND FREE ENERGY PREDICTED BY IDOCK:   -0.46 KCAL/MOL
REMARK 927      BINDING AFFINITY PREDICTED BY RF-SCORE:    0.00 PKD
ROOT
HETATM    1  C   UNL     1     -11.350   6.459  71.761  1.00  0.00    -0.337 C  
HETATM    2  C   UNL     1     -11.201   7.587  72.783  1.00  0.00    -0.352 C  
HETATM    3  C   UNL     1      -9.790   7.558  73.375  1.00  0.00    -0.365 C  
ENDROOT
BRANCH   2   4
HETATM    4  N   UNL     1     -11.487   8.859  72.112  1.00  0.00    -0.356 NA 
HETATM    5  H   UNL     1     -11.146   8.844  71.150  1.00  0.00     0.000 HD 
BRANCH   4   6
HETATM    6  C   UNL     1     -12.905   9.238  72.156  1.00  0.00    -0.408 C  
BRANCH   6   7
HETATM    7  C   UNL     1     -13.160  10.463  71.257  1.00  0.00    -0.399 C  
HETATM    8  H   UNL     1     -13.519  12.385  71.515  1.00  0.00     0.000 HD 
HETATM    9  O   UNL     1     -13.362  11.629  72.069  1.00  0.00    -0.481 OA 
BRANCH   7  10
HETATM   10  C   UNL     1     -11.988  10.695  70.294  1.00  0.00    -0.339 C  
BRANCH  10  11
HETATM   11  O   UNL     1     -11.791  12.104  70.112  1.00  0.00    -0.333 OA 
BRANCH  11  12
HETATM   12  C   UNL     1     -11.746  12.551  68.817  1.00  0.00    -0.327 A  
HETATM   13  C   UNL     1     -11.944  13.867  68.402  1.00  0.00    -0.391 A  
HETATM   14  C   UNL     1     -11.926  14.191  67.041  1.00  0.00    -0.471 A  
HETATM   15  C   UNL     1     -11.715  13.203  66.072  1.00  0.00    -0.424 A  
HETATM   16  C   UNL     1     -11.470  11.890  66.494  1.00  0.00    -0.381 A  
HETATM   17  C   UNL     1     -11.493  11.568  67.856  1.00  0.00    -0.372 A  
BRANCH  15  18
HETATM   18  C   UNL     1     -11.817  13.544  64.602  1.00  0.00    -0.428 C  
BRANCH  18  19
HETATM   19  C   UNL     1     -12.012  12.411  63.613  1.00  0.00    -0.539 C  
HETATM   20  N   UNL     1     -10.926  11.907  62.967  1.00  0.00    -0.670 N  
HETATM   21  O   UNL     1     -13.124  11.940  63.387  1.00  0.00    -0.710 OA 
HETATM   22  H2  UNL     1      -9.996  12.285  63.146  1.00  0.00     0.000 HD 
HETATM   23  H1  UNL     1     -11.058  11.145  62.302  1.00  0.00     0.000 HD 
ENDBRANCH  18  19
ENDBRANCH  15  18
ENDBRANCH  11  12
ENDBRANCH  10  11
ENDBRANCH   7  10
ENDBRANCH   6   7
ENDBRANCH   4   6
ENDBRANCH   2   4
TORSDOF 8
ENDMDL
MODEL       21
REMARK 921   NORMALIZED FREE ENERGY PREDICTED BY IDOCK:   -5.42 KCAL/MOL
REMARK 922        TOTAL FREE ENERGY PREDICTED BY IDOCK:   -8.53 KCAL/MOL
REMARK 923 INTER-LIGAND FREE ENERGY PREDICTED BY IDOCK:   -7.61 KCAL/MOL
REMARK 924 INTRA-LIGAND FREE ENERGY PREDICTED BY IDOCK:   -0.92 KCAL/MOL
REMARK 927      BINDING AFFINITY PREDICTED BY RF-SCORE:    0.00 PKD
ROOT
HETATM    1  C   UNL     1     -12.142  13.840  64.126  1.00  0.00    -0.478 C  
HETATM    2  C   UNL     1     -12.298  13.400  65.583  1.00  0.00    -0.470 C  
HETATM    3  C   UNL     1     -11.370  12.215  65.861  1.00  0.00    -0.407 C  
ENDROOT
BRANCH   2   4
HETATM    4  N   UNL     1     -11.994  14.546  66.445  1.00  0.00    -0.373 NA 
HETATM    5  H   UNL     1     -12.391  14.413  67.376  1.00  0.00     0.000 HD 
BRANCH   4   6
HETATM    6  C   UNL     1     -10.559  14.850  66.530  1.00  0.00    -0.306 C  
BRANCH   6   7
HETATM    7  C   UNL     1     -10.244  15.587  67.845  1.00  0.00    -0.238 C  
HETATM    8  H   UNL     1     -10.966  17.132  68.835  1.00  0.00     0.000 HD 
HETATM    9  O   UNL     1     -11.160  16.677  68.023  1.00  0.00    -0.343 OA 
BRANCH   7  10
HETATM   10  C   UNL     1     -10.326  14.635  69.046  1.00  0.00    -0.235 C  
BRANCH  10  11
HETATM   11  O   UNL     1     -11.700  14.452  69.417  1.00  0.00    -0.278 OA 
BRANCH  11  12
HETATM   12  C   UNL     1     -12.016  13.260  70.016  1.00  0.00    -0.329 A  
HETATM   13  C   UNL     1     -11.689  11.994  69.533  1.00  0.00    -0.408 A  
HETATM   14  C   UNL     1     -12.114  10.846  70.210  1.00  0.00    -0.440 A  
HETATM   15  C   UNL     1     -12.879  10.945  71.379  1.00  0.00    -0.554 A  
HETATM   16  C   UNL     1     -13.166  12.218  71.887  1.00  0.00    -0.481 A  
HETATM   17  C   UNL     1     -12.742  13.365  71.205  1.00  0.00    -0.424 A  
BRANCH  15  18
HETATM   18  C   UNL     1     -13.433   9.700  72.033  1.00  0.00    -0.514 C  
BRANCH  18  19
HETATM   19  C   UNL     1     -12.655   8.406  71.894  1.00  0.00    -0.349 C  
HETATM   20  N   UNL     1     -13.131   7.437  71.068  1.00  0.00    -0.600 N  
HETATM   21  O   UNL     1     -11.606   8.219  72.505  1.00  0.00    -0.383 OA 
HETATM   22  H2  UNL     1     -13.999   7.578  70.550  1.00  0.00     0.000 HD 
HETATM   23  H1  UNL     1     -12.607   6.566  70.974  1.00  0.00     0.000 HD 
ENDBRANCH  18  19
ENDBRANCH  15  18
ENDBRANCH  11  12
ENDBRANCH  10  11
ENDBRANCH   7  10
ENDBRANCH   6   7
ENDBRANCH   4   6
ENDBRANCH   2   4
TORSDOF 8
ENDMDL
MODEL       22
REMARK 921   NORMALIZED FREE ENERGY PREDICTED BY IDOCK:   -5.41 KCAL/MOL
REMARK 922        TOTAL FREE ENERGY PREDICTED BY IDOCK:   -8.51 KCAL/MOL
REMARK 923 INTER-LIGAND FREE ENERGY PREDICTED BY IDOCK:   -7.84 KCAL/MOL
REMARK 924 INTRA-LIGAND FREE ENERGY PREDICTED BY IDOCK:   -0.67 KCAL/MOL
REMARK 927      BINDING AFFINITY PREDICTED BY RF-SCORE:    0.00 PKD
ROOT
HETATM    1  C   UNL     1     -10.485   6.123  70.766  1.00  0.00    -0.285 C  
HETATM    2  C   UNL     1     -11.614   6.521  71.717  1.00  0.00    -0.312 C  
HETATM    3  C   UNL     1     -11.020   7.043  73.028  1.00  0.00    -0.327 C  
ENDROOT
BRANCH   2   4
HETATM    4  N   UNL     1     -12.442   7.531  71.052  1.00  0.00    -0.507 NA 
HETATM    5  H   UNL     1     -13.330   7.129  70.750  1.00  0.00     0.000 HD 
BRANCH   4   6
HETATM    6  C   UNL     1     -12.667   8.733  71.868  1.00  0.00    -0.374 C  
BRANCH   6   7
HETATM    7  C   UNL     1     -12.692   9.989  70.976  1.00  0.00    -0.362 C  
HETATM    8  H   UNL     1     -13.216  11.879  71.172  1.00  0.00     0.000 HD 
HETATM    9  O   UNL     1     -13.201  11.104  71.722  1.00  0.00    -0.442 OA 
BRANCH   7  10
HETATM   10  C   UNL     1     -11.291  10.314  70.441  1.00  0.00    -0.332 C  
BRANCH  10  11
HETATM   11  O   UNL     1     -11.051   9.562  69.243  1.00  0.00    -0.190 OA 
BRANCH  11  12
HETATM   12  C   UNL     1     -11.006  10.277  68.074  1.00  0.00    -0.289 A  
HETATM   13  C   UNL     1     -10.437   9.845  66.877  1.00  0.00    -0.284 A  
HETATM   14  C   UNL     1     -10.405  10.691  65.763  1.00  0.00    -0.287 A  
HETATM   15  C   UNL     1     -10.937  11.985  65.828  1.00  0.00    -0.351 A  
HETATM   16  C   UNL     1     -11.549  12.398  67.018  1.00  0.00    -0.434 A  
HETATM   17  C   UNL     1     -11.576  11.552  68.133  1.00  0.00    -0.378 A  
BRANCH  15  18
HETATM   18  C   UNL     1     -10.789  12.929  64.657  1.00  0.00    -0.365 C  
BRANCH  18  19
HETATM   19  C   UNL     1     -11.992  13.160  63.763  1.00  0.00    -0.508 C  
HETATM   20  N   UNL     1     -12.305  14.433  63.398  1.00  0.00    -1.088 N  
HETATM   21  O   UNL     1     -12.683  12.227  63.362  1.00  0.00    -0.727 OA 
HETATM   22  H2  UNL     1     -11.740  15.218  63.720  1.00  0.00     0.000 HD 
HETATM   23  H1  UNL     1     -13.114  14.588  62.797  1.00  0.00     0.000 HD 
ENDBRANCH  18  19
ENDBRANCH  15  18
ENDBRANCH  11  12
ENDBRANCH  10  11
ENDBRANCH   7  10
ENDBRANCH   6   7
ENDBRANCH   4   6
ENDBRANCH   2   4
TORSDOF 8
ENDMDL
MODEL       23
REMARK 921   NORMALIZED FREE ENERGY PREDICTED BY IDOCK:   -5.39 KCAL/MOL
REMARK 922        TOTAL FREE ENERGY PREDICTED BY IDOCK:   -8.48 KCAL/MOL
REMARK 923 INTER-LIGAND FREE ENERGY PREDICTED BY IDOCK:   -8.02 KCAL/MOL
REMARK 924 INTRA-LIGAND FREE ENERGY PREDICTED BY IDOCK:   -0.46 KCAL/MOL
REMARK 927      BINDING AFFINITY PREDICTED BY RF-SCORE:    0.00 PKD
ROOT
HETATM    1  C   UNL     1     -13.742  13.718  72.316  1.00  0.00    -0.673 C  
HETATM    2  C   UNL     1     -13.601  15.232  72.482  1.00  0.00    -0.510 C  
HETATM    3  C   UNL     1     -12.774  15.535  73.734  1.00  0.00    -0.735 C  
ENDROOT
BRANCH   2   4
HETATM    4  N   UNL     1     -12.976  15.772  71.270  1.00  0.00    -0.507 NA 
HETATM    5  H   UNL     1     -13.340  16.701  71.060  1.00  0.00     0.000 HD 
BRANCH   4   6
HETATM    6  C   UNL     1     -11.508  15.788  71.327  1.00  0.00    -0.422 C  
BRANCH   6   7
HETATM    7  C   UNL     1     -10.920  15.982  69.916  1.00  0.00    -0.353 C  
HETATM    8  H   UNL     1      -9.252  15.506  68.977  1.00  0.00     0.000 HD 
HETATM    9  O   UNL     1      -9.616  15.387  69.847  1.00  0.00    -0.259 OA 
BRANCH   7  10
HETATM   10  C   UNL     1     -11.832  15.365  68.848  1.00  0.00    -0.329 C  
BRANCH  10  11
HETATM   11  O   UNL     1     -11.384  15.769  67.546  1.00  0.00    -0.271 OA 
BRANCH  11  12
HETATM   12  C   UNL     1     -11.489  14.834  66.549  1.00  0.00    -0.327 A  
HETATM   13  C   UNL     1     -12.344  13.733  66.552  1.00  0.00    -0.432 A  
HETATM   14  C   UNL     1     -12.321  12.816  65.496  1.00  0.00    -0.495 A  
HETATM   15  C   UNL     1     -11.440  12.982  64.420  1.00  0.00    -0.409 A  
HETATM   16  C   UNL     1     -10.616  14.114  64.397  1.00  0.00    -0.120 A  
HETATM   17  C   UNL     1     -10.637  15.028  65.458  1.00  0.00    -0.380 A  
BRANCH  15  18
HETATM   18  C   UNL     1     -11.341  11.922  63.347  1.00  0.00    -0.465 C  
BRANCH  18  19
HETATM   19  C   UNL     1     -10.270  10.858  63.483  1.00  0.00    -0.317 C  
HETATM   20  N   UNL     1      -9.829  10.220  62.365  1.00  0.00    -0.732 N  
HETATM   21  O   UNL     1      -9.791  10.564  64.576  1.00  0.00    -0.288 OA 
HETATM   22  H2  UNL     1     -10.213  10.455  61.450  1.00  0.00     0.000 HD 
HETATM   23  H1  UNL     1      -9.108   9.504  62.457  1.00  0.00     0.000 HD 
ENDBRANCH  18  19
ENDBRANCH  15  18
ENDBRANCH  11  12
ENDBRANCH  10  11
ENDBRANCH   7  10
ENDBRANCH   6   7
ENDBRANCH   4   6
ENDBRANCH   2   4
TORSDOF 8
ENDMDL
MODEL       24
REMARK 921   NORMALIZED FREE ENERGY PREDICTED BY IDOCK:   -5.38 KCAL/MOL
REMARK 922        TOTAL FREE ENERGY PREDICTED BY IDOCK:   -8.46 KCAL/MOL
REMARK 923 INTER-LIGAND FREE ENERGY PREDICTED BY IDOCK:   -7.73 KCAL/MOL
REMARK 924 INTRA-LIGAND FREE ENERGY PREDICTED BY IDOCK:   -0.74 KCAL/MOL
REMARK 927      BINDING AFFINITY PREDICTED BY RF-SCORE:    0.00 PKD
ROOT
HETATM    1  C   UNL     1      -6.157  19.643  64.919  1.00  0.00    -0.303 C  
HETATM    2  C   UNL     1      -7.196  19.066  65.881  1.00  0.00    -0.258 C  
HETATM    3  C   UNL     1      -6.670  19.158  67.316  1.00  0.00    -0.204 C  
ENDROOT
BRANCH   2   4
HETATM    4  N   UNL     1      -8.447  19.810  65.710  1.00  0.00    -0.439 NA 
HETATM    5  H   UNL     1      -9.074  19.320  65.070  1.00  0.00     0.000 HD 
BRANCH   4   6
HETATM    6  C   UNL     1      -9.128  20.111  66.977  1.00  0.00    -0.367 C  
BRANCH   6   7
HETATM    7  C   UNL     1     -10.606  19.681  66.907  1.00  0.00    -0.484 C  
HETATM    8  H   UNL     1     -11.897  19.202  65.496  1.00  0.00     0.000 HD 
HETATM    9  O   UNL     1     -10.986  19.467  65.539  1.00  0.00    -0.416 OA 
BRANCH   7  10
HETATM   10  C   UNL     1     -10.848  18.404  67.722  1.00  0.00    -0.234 C  
BRANCH  10  11
HETATM   11  O   UNL     1      -9.865  17.419  67.369  1.00  0.00    -0.267 OA 
BRANCH  11  12
HETATM   12  C   UNL     1     -10.337  16.267  66.796  1.00  0.00    -0.296 A  
HETATM   13  C   UNL     1      -9.991  15.784  65.535  1.00  0.00    -0.341 A  
HETATM   14  C   UNL     1     -10.582  14.618  65.036  1.00  0.00    -0.461 A  
HETATM   15  C   UNL     1     -11.534  13.918  65.788  1.00  0.00    -0.324 A  
HETATM   16  C   UNL     1     -11.844  14.380  67.074  1.00  0.00    -0.437 A  
HETATM   17  C   UNL     1     -11.254  15.549  67.568  1.00  0.00    -0.272 A  
BRANCH  15  18
HETATM   18  C   UNL     1     -12.253  12.730  65.190  1.00  0.00    -0.530 C  
BRANCH  18  19
HETATM   19  C   UNL     1     -12.285  12.594  63.680  1.00  0.00    -0.536 C  
HETATM   20  N   UNL     1     -11.765  11.474  63.109  1.00  0.00    -0.890 N  
HETATM   21  O   UNL     1     -12.771  13.468  62.967  1.00  0.00    -0.668 OA 
HETATM   22  H2  UNL     1     -11.361  10.738  63.688  1.00  0.00     0.000 HD 
HETATM   23  H1  UNL     1     -11.787  11.383  62.093  1.00  0.00     0.000 HD 
ENDBRANCH  18  19
ENDBRANCH  15  18
ENDBRANCH  11  12
ENDBRANCH  10  11
ENDBRANCH   7  10
ENDBRANCH   6   7
ENDBRANCH   4   6
ENDBRANCH   2   4
TORSDOF 8
ENDMDL
MODEL       25
REMARK 921   NORMALIZED FREE ENERGY PREDICTED BY IDOCK:   -5.36 KCAL/MOL
REMARK 922        TOTAL FREE ENERGY PREDICTED BY IDOCK:   -8.44 KCAL/MOL
REMARK 923 INTER-LIGAND FREE ENERGY PREDICTED BY IDOCK:   -7.96 KCAL/MOL
REMARK 924 INTRA-LIGAND FREE ENERGY PREDICTED BY IDOCK:   -0.47 KCAL/MOL
REMARK 927      BINDING AFFINITY PREDICTED BY RF-SCORE:    0.00 PKD
ROOT
HETATM    1  C   UNL     1     -10.849   6.331  68.008  1.00  0.00    -0.409 C  
HETATM    2  C   UNL     1     -11.280   6.245  69.473  1.00  0.00    -0.430 C  
HETATM    3  C   UNL     1     -10.192   5.537  70.285  1.00  0.00    -0.326 C  
ENDROOT
BRANCH   2   4
HETATM    4  N   UNL     1     -11.528   7.605  69.961  1.00  0.00    -0.476 NA 
HETATM    5  H   UNL     1     -11.892   8.196  69.214  1.00  0.00     0.000 HD 
BRANCH   4   6
HETATM    6  C   UNL     1     -12.406   7.653  71.138  1.00  0.00    -0.267 C  
BRANCH   6   7
HETATM    7  C   UNL     1     -12.848   9.102  71.418  1.00  0.00    -0.313 C  
HETATM    8  H   UNL     1     -13.498  10.132  72.968  1.00  0.00     0.000 HD 
HETATM    9  O   UNL     1     -13.226   9.238  72.795  1.00  0.00    -0.354 OA 
BRANCH   7  10
HETATM   10  C   UNL     1     -11.727  10.095  71.084  1.00  0.00    -0.366 C  
BRANCH  10  11
HETATM   11  O   UNL     1     -12.286  11.405  70.909  1.00  0.00    -0.379 OA 
BRANCH  11  12
HETATM   12  C   UNL     1     -11.978  12.047  69.737  1.00  0.00    -0.300 A  
HETATM   13  C   UNL     1     -12.198  13.397  69.467  1.00  0.00    -0.260 A  
HETATM   14  C   UNL     1     -11.888  13.926  68.209  1.00  0.00    -0.412 A  
HETATM   15  C   UNL     1     -11.360  13.114  67.199  1.00  0.00    -0.354 A  
HETATM   16  C   UNL     1     -11.097  11.769  67.489  1.00  0.00    -0.330 A  
HETATM   17  C   UNL     1     -11.411  11.241  68.747  1.00  0.00    -0.359 A  
BRANCH  15  18
HETATM   18  C   UNL     1     -11.143  13.670  65.810  1.00  0.00    -0.292 C  
BRANCH  18  19
HETATM   19  C   UNL     1     -12.272  13.554  64.805  1.00  0.00    -0.409 C  
HETATM   20  N   UNL     1     -12.339  14.450  63.783  1.00  0.00    -1.079 N  
HETATM   21  O   UNL     1     -13.121  12.670  64.891  1.00  0.00    -0.850 OA 
HETATM   22  H2  UNL     1     -11.641  15.188  63.696  1.00  0.00     0.000 HD 
HETATM   23  H1  UNL     1     -13.099  14.372  63.107  1.00  0.00     0.000 HD 
ENDBRANCH  18  19
ENDBRANCH  15  18
ENDBRANCH  11  12
ENDBRANCH  10  11
ENDBRANCH   7  10
ENDBRANCH   6   7
ENDBRANCH   4   6
ENDBRANCH   2   4
TORSDOF 8
ENDMDL
MODEL       26
REMARK 921   NORMALIZED FREE ENERGY PREDICTED BY IDOCK:   -5.35 KCAL/MOL
REMARK 922        TOTAL FREE ENERGY PREDICTED BY IDOCK:   -8.42 KCAL/MOL
REMARK 923 INTER-LIGAND FREE ENERGY PREDICTED BY IDOCK:   -7.78 KCAL/MOL
REMARK 924 INTRA-LIGAND FREE ENERGY PREDICTED BY IDOCK:   -0.65 KCAL/MOL
REMARK 927      BINDING AFFINITY PREDICTED BY RF-SCORE:    0.00 PKD
ROOT
HETATM    1  C   UNL     1      -9.987   9.980  66.997  1.00  0.00    -0.257 C  
HETATM    2  C   UNL     1     -11.174  10.479  67.823  1.00  0.00    -0.273 C  
HETATM    3  C   UNL     1     -10.677  10.981  69.181  1.00  0.00    -0.274 C  
ENDROOT
BRANCH   2   4
HETATM    4  N   UNL     1     -11.851  11.535  67.065  1.00  0.00    -0.530 NA 
HETATM    5  H   UNL     1     -12.018  12.352  67.653  1.00  0.00     0.000 HD 
BRANCH   4   6
HETATM    6  C   UNL     1     -11.146  11.915  65.833  1.00  0.00    -0.316 C  
BRANCH   6   7
HETATM    7  C   UNL     1     -11.835  13.125  65.173  1.00  0.00    -0.359 C  
HETATM    8  H   UNL     1     -13.314  13.420  63.904  1.00  0.00     0.000 HD 
HETATM    9  O   UNL     1     -12.889  12.674  64.311  1.00  0.00    -0.699 OA 
BRANCH   7  10
HETATM   10  C   UNL     1     -12.399  14.084  66.230  1.00  0.00    -0.448 C  
BRANCH  10  11
HETATM   11  O   UNL     1     -11.322  14.810  66.839  1.00  0.00    -0.344 OA 
BRANCH  11  12
HETATM   12  C   UNL     1     -11.438  15.060  68.182  1.00  0.00    -0.339 A  
HETATM   13  C   UNL     1     -10.805  16.089  68.877  1.00  0.00    -0.286 A  
HETATM   14  C   UNL     1     -10.962  16.210  70.262  1.00  0.00    -0.345 A  
HETATM   15  C   UNL     1     -11.750  15.299  70.977  1.00  0.00    -0.394 A  
HETATM   16  C   UNL     1     -12.422  14.295  70.269  1.00  0.00    -0.422 A  
HETATM   17  C   UNL     1     -12.260  14.174  68.884  1.00  0.00    -0.257 A  
BRANCH  15  18
HETATM   18  C   UNL     1     -11.814  15.369  72.486  1.00  0.00    -0.564 C  
BRANCH  18  19
HETATM   19  C   UNL     1     -13.077  15.909  73.128  1.00  0.00    -0.572 C  
HETATM   20  N   UNL     1     -13.099  16.104  74.474  1.00  0.00    -0.837 N  
HETATM   21  O   UNL     1     -14.073  16.177  72.460  1.00  0.00    -0.260 OA 
HETATM   22  H2  UNL     1     -12.279  15.890  75.042  1.00  0.00     0.000 HD 
HETATM   23  H1  UNL     1     -13.949  16.468  74.906  1.00  0.00     0.000 HD 
ENDBRANCH  18  19
ENDBRANCH  15  18
ENDBRANCH  11  12
ENDBRANCH  10  11
ENDBRANCH   7  10
ENDBRANCH   6   7
ENDBRANCH   4   6
ENDBRANCH   2   4
TORSDOF 8
ENDMDL
MODEL       27
REMARK 921   NORMALIZED FREE ENERGY PREDICTED BY IDOCK:   -5.35 KCAL/MOL
REMARK 922        TOTAL FREE ENERGY PREDICTED BY IDOCK:   -8.42 KCAL/MOL
REMARK 923 INTER-LIGAND FREE ENERGY PREDICTED BY IDOCK:   -7.78 KCAL/MOL
REMARK 924 INTRA-LIGAND FREE ENERGY PREDICTED BY IDOCK:   -0.63 KCAL/MOL
REMARK 927      BINDING AFFINITY PREDICTED BY RF-SCORE:    0.00 PKD
ROOT
HETATM    1  C   UNL     1     -10.889  16.304  67.361  1.00  0.00    -0.242 C  
HETATM    2  C   UNL     1     -10.130  16.740  66.106  1.00  0.00    -0.345 C  
HETATM    3  C   UNL     1      -8.719  16.147  66.130  1.00  0.00    -0.358 C  
ENDROOT
BRANCH   2   4
HETATM    4  N   UNL     1     -10.889  16.298  64.932  1.00  0.00    -0.671 NA 
HETATM    5  H   UNL     1     -10.593  16.807  64.099  1.00  0.00     0.000 HD 
BRANCH   4   6
HETATM    6  C   UNL     1     -10.825  14.848  64.707  1.00  0.00    -0.363 C  
BRANCH   6   7
HETATM    7  C   UNL     1     -12.245  14.260  64.595  1.00  0.00    -0.454 C  
HETATM    8  H   UNL     1     -13.450  13.680  63.146  1.00  0.00     0.000 HD 
HETATM    9  O   UNL     1     -12.574  14.042  63.215  1.00  0.00    -0.801 OA 
BRANCH   7  10
HETATM   10  C   UNL     1     -12.361  12.943  65.374  1.00  0.00    -0.485 C  
BRANCH  10  11
HETATM   11  O   UNL     1     -11.189  12.762  66.182  1.00  0.00    -0.279 OA 
BRANCH  11  12
HETATM   12  C   UNL     1     -11.370  12.127  67.383  1.00  0.00    -0.326 A  
HETATM   13  C   UNL     1     -11.785  12.732  68.569  1.00  0.00    -0.371 A  
HETATM   14  C   UNL     1     -11.882  11.985  69.748  1.00  0.00    -0.401 A  
HETATM   15  C   UNL     1     -11.561  10.622  69.762  1.00  0.00    -0.385 A  
HETATM   16  C   UNL     1     -11.190  10.008  68.559  1.00  0.00    -0.180 A  
HETATM   17  C   UNL     1     -11.089  10.758  67.382  1.00  0.00    -0.363 A  
BRANCH  15  18
HETATM   18  C   UNL     1     -11.554   9.855  71.065  1.00  0.00    -0.470 C  
BRANCH  18  19
HETATM   19  C   UNL     1     -12.863   9.277  71.566  1.00  0.00    -0.354 C  
HETATM   20  N   UNL     1     -13.313   8.108  71.036  1.00  0.00    -0.523 N  
HETATM   21  O   UNL     1     -13.521   9.838  72.440  1.00  0.00    -0.413 OA 
HETATM   22  H2  UNL     1     -12.777   7.628  70.313  1.00  0.00     0.000 HD 
HETATM   23  H1  UNL     1     -14.194   7.720  71.374  1.00  0.00     0.000 HD 
ENDBRANCH  18  19
ENDBRANCH  15  18
ENDBRANCH  11  12
ENDBRANCH  10  11
ENDBRANCH   7  10
ENDBRANCH   6   7
ENDBRANCH   4   6
ENDBRANCH   2   4
TORSDOF 8
ENDMDL
MODEL       28
REMARK 921   NORMALIZED FREE ENERGY PREDICTED BY IDOCK:   -5.30 KCAL/MOL
REMARK 922        TOTAL FREE ENERGY PREDICTED BY IDOCK:   -8.36 KCAL/MOL
REMARK 923 INTER-LIGAND FREE ENERGY PREDICTED BY IDOCK:   -7.47 KCAL/MOL
REMARK 924 INTRA-LIGAND FREE ENERGY PREDICTED BY IDOCK:   -0.89 KCAL/MOL
REMARK 927      BINDING AFFINITY PREDICTED BY RF-SCORE:    0.00 PKD
ROOT
HETATM    1  C   UNL     1     -11.497  11.176  68.142  1.00  0.00    -0.373 C  
HETATM    2  C   UNL     1     -11.928  11.478  69.579  1.00  0.00    -0.335 C  
HETATM    3  C   UNL     1     -11.446  10.357  70.504  1.00  0.00    -0.431 C  
ENDROOT
BRANCH   2   4
HETATM    4  N   UNL     1     -11.371  12.779  69.962  1.00  0.00    -0.497 NA 
HETATM    5  H   UNL     1     -10.807  13.168  69.207  1.00  0.00     0.000 HD 
BRANCH   4   6
HETATM    6  C   UNL     1     -12.389  13.744  70.401  1.00  0.00    -0.353 C  
BRANCH   6   7
HETATM    7  C   UNL     1     -11.899  15.185  70.162  1.00  0.00    -0.313 C  
HETATM    8  H   UNL     1     -11.202  16.667  71.261  1.00  0.00     0.000 HD 
HETATM    9  O   UNL     1     -11.505  15.778  71.408  1.00  0.00    -0.377 OA 
BRANCH   7  10
HETATM   10  C   UNL     1     -10.724  15.212  69.176  1.00  0.00    -0.253 C  
BRANCH  10  11
HETATM   11  O   UNL     1     -11.138  15.847  67.957  1.00  0.00    -0.328 OA 
BRANCH  11  12
HETATM   12  C   UNL     1     -11.281  15.031  66.865  1.00  0.00    -0.323 A  
HETATM   13  C   UNL     1     -12.399  14.251  66.572  1.00  0.00    -0.345 A  
HETATM   14  C   UNL     1     -12.406  13.415  65.450  1.00  0.00    -0.522 A  
HETATM   15  C   UNL     1     -11.292  13.341  64.605  1.00  0.00    -0.372 A  
HETATM   16  C   UNL     1     -10.189  14.161  64.875  1.00  0.00    -0.371 A  
HETATM   17  C   UNL     1     -10.184  14.993  66.000  1.00  0.00    -0.318 A  
BRANCH  15  18
HETATM   18  C   UNL     1     -11.266  12.347  63.466  1.00  0.00    -0.540 C  
BRANCH  18  19
HETATM   19  C   UNL     1     -10.362  11.135  63.590  1.00  0.00    -0.389 C  
HETATM   20  N   UNL     1      -9.997  10.468  62.462  1.00  0.00    -0.755 N  
HETATM   21  O   UNL     1      -9.951  10.749  64.682  1.00  0.00    -0.272 OA 
HETATM   22  H2  UNL     1     -10.327  10.777  61.548  1.00  0.00     0.000 HD 
HETATM   23  H1  UNL     1      -9.389   9.653  62.546  1.00  0.00     0.000 HD 
ENDBRANCH  18  19
ENDBRANCH  15  18
ENDBRANCH  11  12
ENDBRANCH  10  11
ENDBRANCH   7  10
ENDBRANCH   6   7
ENDBRANCH   4   6
ENDBRANCH   2   4
TORSDOF 8
ENDMDL
MODEL       29
REMARK 921   NORMALIZED FREE ENERGY PREDICTED BY IDOCK:   -5.26 KCAL/MOL
REMARK 922        TOTAL FREE ENERGY PREDICTED BY IDOCK:   -8.30 KCAL/MOL
REMARK 923 INTER-LIGAND FREE ENERGY PREDICTED BY IDOCK:   -7.68 KCAL/MOL
REMARK 924 INTRA-LIGAND FREE ENERGY PREDICTED BY IDOCK:   -0.62 KCAL/MOL
REMARK 927      BINDING AFFINITY PREDICTED BY RF-SCORE:    0.00 PKD
ROOT
HETATM    1  C   UNL     1     -10.743   5.835  69.697  1.00  0.00    -0.416 C  
HETATM    2  C   UNL     1     -11.656   6.795  70.460  1.00  0.00    -0.372 C  
HETATM    3  C   UNL     1     -11.351   6.710  71.958  1.00  0.00    -0.317 C  
ENDROOT
BRANCH   2   4
HETATM    4  N   UNL     1     -11.444   8.148  69.936  1.00  0.00    -0.449 NA 
HETATM    5  H   UNL     1     -12.163   8.388  69.254  1.00  0.00     0.000 HD 
BRANCH   4   6
HETATM    6  C   UNL     1     -11.357   9.174  70.984  1.00  0.00    -0.309 C  
BRANCH   6   7
HETATM    7  C   UNL     1     -12.544  10.150  70.878  1.00  0.00    -0.360 C  
HETATM    8  H   UNL     1     -13.794  11.033  72.122  1.00  0.00     0.000 HD 
HETATM    9  O   UNL     1     -13.061  10.430  72.187  1.00  0.00    -0.445 OA 
BRANCH   7  10
HETATM   10  C   UNL     1     -12.126  11.457  70.192  1.00  0.00    -0.357 C  
BRANCH  10  11
HETATM   11  O   UNL     1     -11.288  11.157  69.066  1.00  0.00    -0.225 OA 
BRANCH  11  12
HETATM   12  C   UNL     1     -11.499  11.901  67.934  1.00  0.00    -0.316 A  
HETATM   13  C   UNL     1     -11.217  11.498  66.630  1.00  0.00    -0.336 A  
HETATM   14  C   UNL     1     -11.428  12.371  65.557  1.00  0.00    -0.404 A  
HETATM   15  C   UNL     1     -11.920  13.665  65.772  1.00  0.00    -0.425 A  
HETATM   16  C   UNL     1     -12.247  14.050  67.078  1.00  0.00    -0.387 A  
HETATM   17  C   UNL     1     -12.031  13.176  68.150  1.00  0.00    -0.333 A  
BRANCH  15  18
HETATM   18  C   UNL     1     -12.030  14.638  64.620  1.00  0.00    -0.472 C  
BRANCH  18  19
HETATM   19  C   UNL     1     -11.156  15.877  64.640  1.00  0.00    -0.354 C  
HETATM   20  N   UNL     1      -9.931  15.809  65.226  1.00  0.00    -0.230 N  
HETATM   21  O   UNL     1     -11.528  16.934  64.136  1.00  0.00    -1.174 OA 
HETATM   22  H2  UNL     1      -9.605  14.939  65.647  1.00  0.00     0.000 HD 
HETATM   23  H1  UNL     1      -9.343  16.643  65.240  1.00  0.00     0.000 HD 
ENDBRANCH  18  19
ENDBRANCH  15  18
ENDBRANCH  11  12
ENDBRANCH  10  11
ENDBRANCH   7  10
ENDBRANCH   6   7
ENDBRANCH   4   6
ENDBRANCH   2   4
TORSDOF 8
ENDMDL
MODEL       30
REMARK 921   NORMALIZED FREE ENERGY PREDICTED BY IDOCK:   -5.26 KCAL/MOL
REMARK 922        TOTAL FREE ENERGY PREDICTED BY IDOCK:   -8.29 KCAL/MOL
REMARK 923 INTER-LIGAND FREE ENERGY PREDICTED BY IDOCK:   -7.83 KCAL/MOL
REMARK 924 INTRA-LIGAND FREE ENERGY PREDICTED BY IDOCK:   -0.46 KCAL/MOL
REMARK 927      BINDING AFFINITY PREDICTED BY RF-SCORE:    0.00 PKD
ROOT
HETATM    1  C   UNL     1     -10.203  19.888  68.439  1.00  0.00    -0.557 C  
HETATM    2  C   UNL     1     -10.683  19.412  67.067  1.00  0.00    -0.474 C  
HETATM    3  C   UNL     1      -9.942  20.181  65.970  1.00  0.00    -0.487 C  
ENDROOT
BRANCH   2   4
HETATM    4  N   UNL     1     -10.451  17.967  66.973  1.00  0.00    -0.366 NA 
HETATM    5  H   UNL     1      -9.658  17.768  66.363  1.00  0.00     0.000 HD 
BRANCH   4   6
HETATM    6  C   UNL     1     -10.280  17.316  68.279  1.00  0.00    -0.348 C  
BRANCH   6   7
HETATM    7  C   UNL     1     -11.369  16.247  68.491  1.00  0.00    -0.330 C  
HETATM    8  H   UNL     1     -11.992  14.626  67.558  1.00  0.00     0.000 HD 
HETATM    9  O   UNL     1     -11.321  15.286  67.427  1.00  0.00    -0.333 OA 
BRANCH   7  10
HETATM   10  C   UNL     1     -11.192  15.540  69.841  1.00  0.00    -0.316 C  
BRANCH  10  11
HETATM   11  O   UNL     1     -12.464  15.061  70.300  1.00  0.00    -0.332 OA 
BRANCH  11  12
HETATM   12  C   UNL     1     -12.532  13.731  70.628  1.00  0.00    -0.359 A  
HETATM   13  C   UNL     1     -11.910  12.691  69.940  1.00  0.00    -0.364 A  
HETATM   14  C   UNL     1     -12.099  11.364  70.342  1.00  0.00    -0.473 A  
HETATM   15  C   UNL     1     -12.916  11.055  71.436  1.00  0.00    -0.517 A  
HETATM   16  C   UNL     1     -13.501  12.106  72.154  1.00  0.00    -0.383 A  
HETATM   17  C   UNL     1     -13.315  13.432  71.746  1.00  0.00    -0.479 A  
BRANCH  15  18
HETATM   18  C   UNL     1     -13.208   9.614  71.787  1.00  0.00    -0.520 C  
BRANCH  18  19
HETATM   19  C   UNL     1     -12.094   8.596  71.629  1.00  0.00    -0.326 C  
HETATM   20  N   UNL     1     -12.199   7.651  70.657  1.00  0.00    -0.511 N  
HETATM   21  O   UNL     1     -11.103   8.611  72.355  1.00  0.00    -0.354 OA 
HETATM   22  H2  UNL     1     -13.014   7.627  70.044  1.00  0.00     0.000 HD 
HETATM   23  H1  UNL     1     -11.450   6.966  70.551  1.00  0.00     0.000 HD 
ENDBRANCH  18  19
ENDBRANCH  15  18
ENDBRANCH  11  12
ENDBRANCH  10  11
ENDBRANCH   7  10
ENDBRANCH   6   7
ENDBRANCH   4   6
ENDBRANCH   2   4
TORSDOF 8
ENDMDL
MODEL       31
REMARK 921   NORMALIZED FREE ENERGY PREDICTED BY IDOCK:   -5.23 KCAL/MOL
REMARK 922        TOTAL FREE ENERGY PREDICTED BY IDOCK:   -8.25 KCAL/MOL
REMARK 923 INTER-LIGAND FREE ENERGY PREDICTED BY IDOCK:   -7.57 KCAL/MOL
REMARK 924 INTRA-LIGAND FREE ENERGY PREDICTED BY IDOCK:   -0.68 KCAL/MOL
REMARK 927      BINDING AFFINITY PREDICTED BY RF-SCORE:    0.00 PKD
ROOT
HETATM    1  C   UNL     1     -11.148   6.088  71.533  1.00  0.00    -0.336 C  
HETATM    2  C   UNL     1     -11.943   7.383  71.354  1.00  0.00    -0.310 C  
HETATM    3  C   UNL     1     -11.538   8.385  72.438  1.00  0.00    -0.450 C  
ENDROOT
BRANCH   2   4
HETATM    4  N   UNL     1     -11.683   7.900  70.007  1.00  0.00    -0.443 NA 
HETATM    5  H   UNL     1     -11.338   8.859  70.049  1.00  0.00     0.000 HD 
BRANCH   4   6
HETATM    6  C   UNL     1     -10.775   7.054  69.220  1.00  0.00    -0.225 C  
BRANCH   6   7
HETATM    7  C   UNL     1     -10.087   7.886  68.120  1.00  0.00    -0.191 C  
HETATM    8  H   UNL     1     -10.310   8.169  66.182  1.00  0.00     0.000 HD 
HETATM    9  O   UNL     1     -10.735   7.656  66.860  1.00  0.00    -0.351 OA 
BRANCH   7  10
HETATM   10  C   UNL     1     -10.119   9.382  68.458  1.00  0.00    -0.187 C  
BRANCH  10  11
HETATM   11  O   UNL     1     -11.255   9.990  67.827  1.00  0.00    -0.256 OA 
BRANCH  11  12
HETATM   12  C   UNL     1     -11.084  11.272  67.371  1.00  0.00    -0.297 A  
HETATM   13  C   UNL     1     -11.724  12.405  67.871  1.00  0.00    -0.421 A  
HETATM   14  C   UNL     1     -11.507  13.657  67.284  1.00  0.00    -0.370 A  
HETATM   15  C   UNL     1     -10.651  13.795  66.184  1.00  0.00    -0.291 A  
HETATM   16  C   UNL     1      -9.974  12.662  65.715  1.00  0.00    -0.266 A  
HETATM   17  C   UNL     1     -10.196  11.410  66.301  1.00  0.00    -0.274 A  
BRANCH  15  18
HETATM   18  C   UNL     1     -10.518  15.129  65.486  1.00  0.00    -0.400 C  
BRANCH  18  19
HETATM   19  C   UNL     1     -11.527  15.481  64.410  1.00  0.00    -0.259 C  
HETATM   20  N   UNL     1     -12.355  14.509  63.941  1.00  0.00    -1.047 N  
HETATM   21  O   UNL     1     -11.613  16.620  63.958  1.00  0.00    -1.197 OA 
HETATM   22  H2  UNL     1     -12.299  13.559  64.308  1.00  0.00     0.000 HD 
HETATM   23  H1  UNL     1     -13.034  14.746  63.217  1.00  0.00     0.000 HD 
ENDBRANCH  18  19
ENDBRANCH  15  18
ENDBRANCH  11  12
ENDBRANCH  10  11
ENDBRANCH   7  10
ENDBRANCH   6   7
ENDBRANCH   4   6
ENDBRANCH   2   4
TORSDOF 8
ENDMDL
MODEL       32
REMARK 921   NORMALIZED FREE ENERGY PREDICTED BY IDOCK:   -5.20 KCAL/MOL
REMARK 922        TOTAL FREE ENERGY PREDICTED BY IDOCK:   -8.20 KCAL/MOL
REMARK 923 INTER-LIGAND FREE ENERGY PREDICTED BY IDOCK:   -7.61 KCAL/MOL
REMARK 924 INTRA-LIGAND FREE ENERGY PREDICTED BY IDOCK:   -0.58 KCAL/MOL
REMARK 927      BINDING AFFINITY PREDICTED BY RF-SCORE:    0.00 PKD
ROOT
HETATM    1  C   UNL     1     -11.053  14.620  65.021  1.00  0.00    -0.401 C  
HETATM    2  C   UNL     1     -11.721  13.490  65.806  1.00  0.00    -0.345 C  
HETATM    3  C   UNL     1     -12.570  12.641  64.856  1.00  0.00    -0.525 C  
ENDROOT
BRANCH   2   4
HETATM    4  N   UNL     1     -10.673  12.699  66.457  1.00  0.00    -0.248 NA 
HETATM    5  H   UNL     1     -10.774  12.730  67.472  1.00  0.00     0.000 HD 
BRANCH   4   6
HETATM    6  C   UNL     1     -10.609  11.310  65.983  1.00  0.00    -0.258 C  
BRANCH   6   7
HETATM    7  C   UNL     1     -10.779  10.333  67.163  1.00  0.00    -0.241 C  
HETATM    8  H   UNL     1      -9.923   8.669  67.785  1.00  0.00     0.000 HD 
HETATM    9  O   UNL     1      -9.818   9.272  67.057  1.00  0.00    -0.171 OA 
BRANCH   7  10
HETATM   10  C   UNL     1     -10.613  11.055  68.506  1.00  0.00    -0.190 C  
BRANCH  10  11
HETATM   11  O   UNL     1     -11.739  10.765  69.346  1.00  0.00    -0.277 OA 
BRANCH  11  12
HETATM   12  C   UNL     1     -12.181  11.786  70.146  1.00  0.00    -0.263 A  
HETATM   13  C   UNL     1     -12.761  11.642  71.406  1.00  0.00    -0.445 A  
HETATM   14  C   UNL     1     -13.223  12.761  72.106  1.00  0.00    -0.546 A  
HETATM   15  C   UNL     1     -13.119  14.045  71.555  1.00  0.00    -0.436 A  
HETATM   16  C   UNL     1     -12.494  14.191  70.310  1.00  0.00    -0.416 A  
HETATM   17  C   UNL     1     -12.036  13.069  69.610  1.00  0.00    -0.367 A  
BRANCH  15  18
HETATM   18  C   UNL     1     -13.729  15.231  72.267  1.00  0.00    -0.614 C  
BRANCH  18  19
HETATM   19  C   UNL     1     -12.829  16.092  73.132  1.00  0.00    -0.519 C  
HETATM   20  N   UNL     1     -13.097  16.195  74.461  1.00  0.00    -0.837 N  
HETATM   21  O   UNL     1     -11.867  16.692  72.659  1.00  0.00    -0.516 OA 
HETATM   22  H2  UNL     1     -13.890  15.700  74.870  1.00  0.00     0.000 HD 
HETATM   23  H1  UNL     1     -12.491  16.774  75.043  1.00  0.00     0.000 HD 
ENDBRANCH  18  19
ENDBRANCH  15  18
ENDBRANCH  11  12
ENDBRANCH  10  11
ENDBRANCH   7  10
ENDBRANCH   6   7
ENDBRANCH   4   6
ENDBRANCH   2   4
TORSDOF 8
ENDMDL
MODEL       33
REMARK 921   NORMALIZED FREE ENERGY PREDICTED BY IDOCK:   -5.18 KCAL/MOL
REMARK 922        TOTAL FREE ENERGY PREDICTED BY IDOCK:   -8.17 KCAL/MOL
REMARK 923 INTER-LIGAND FREE ENERGY PREDICTED BY IDOCK:   -7.38 KCAL/MOL
REMARK 924 INTRA-LIGAND FREE ENERGY PREDICTED BY IDOCK:   -0.79 KCAL/MOL
REMARK 927      BINDING AFFINITY PREDICTED BY RF-SCORE:    0.00 PKD
ROOT
HETATM    1  C   UNL     1     -10.161  14.462  68.773  1.00  0.00    -0.239 C  
HETATM    2  C   UNL     1     -11.428  15.065  68.164  1.00  0.00    -0.339 C  
HETATM    3  C   UNL     1     -12.023  14.087  67.147  1.00  0.00    -0.465 C  
ENDROOT
BRANCH   2   4
HETATM    4  N   UNL     1     -12.366  15.361  69.250  1.00  0.00    -0.606 NA 
HETATM    5  H   UNL     1     -13.210  14.795  69.163  1.00  0.00     0.000 HD 
BRANCH   4   6
HETATM    6  C   UNL     1     -11.777  15.214  70.588  1.00  0.00    -0.312 C  
BRANCH   6   7
HETATM    7  C   UNL     1     -12.883  15.016  71.642  1.00  0.00    -0.345 C  
HETATM    8  H   UNL     1     -14.740  15.623  71.908  1.00  0.00     0.000 HD 
HETATM    9  O   UNL     1     -14.057  15.746  71.258  1.00  0.00    -0.501 OA 
BRANCH   7  10
HETATM   10  C   UNL     1     -13.224  13.529  71.811  1.00  0.00    -0.404 C  
BRANCH  10  11
HETATM   11  O   UNL     1     -12.527  12.764  70.818  1.00  0.00    -0.344 OA 
BRANCH  11  12
HETATM   12  C   UNL     1     -12.433  11.415  71.044  1.00  0.00    -0.383 A  
HETATM   13  C   UNL     1     -11.500  10.556  70.465  1.00  0.00    -0.433 A  
HETATM   14  C   UNL     1     -11.539   9.183  70.734  1.00  0.00    -0.329 A  
HETATM   15  C   UNL     1     -12.515   8.646  71.583  1.00  0.00    -0.382 A  
HETATM   16  C   UNL     1     -13.421   9.519  72.200  1.00  0.00    -0.535 A  
HETATM   17  C   UNL     1     -13.382  10.891  71.925  1.00  0.00    -0.429 A  
BRANCH  15  18
HETATM   18  C   UNL     1     -12.621   7.150  71.771  1.00  0.00    -0.381 C  
BRANCH  18  19
HETATM   19  C   UNL     1     -11.605   6.463  72.663  1.00  0.00    -0.158 C  
HETATM   20  N   UNL     1     -10.853   7.220  73.508  1.00  0.00    -0.529 N  
HETATM   21  O   UNL     1     -11.451   5.245  72.642  1.00  0.00    -0.262 OA 
HETATM   22  H2  UNL     1     -10.971   8.232  73.540  1.00  0.00     0.000 HD 
HETATM   23  H1  UNL     1     -10.170   6.757  74.108  1.00  0.00     0.000 HD 
ENDBRANCH  18  19
ENDBRANCH  15  18
ENDBRANCH  11  12
ENDBRANCH  10  11
ENDBRANCH   7  10
ENDBRANCH   6   7
ENDBRANCH   4   6
ENDBRANCH   2   4
TORSDOF 8
ENDMDL
MODEL       34
REMARK 921   NORMALIZED FREE ENERGY PREDICTED BY IDOCK:   -5.17 KCAL/MOL
REMARK 922        TOTAL FREE ENERGY PREDICTED BY IDOCK:   -8.16 KCAL/MOL
REMARK 923 INTER-LIGAND FREE ENERGY PREDICTED BY IDOCK:   -7.31 KCAL/MOL
REMARK 924 INTRA-LIGAND FREE ENERGY PREDICTED BY IDOCK:   -0.86 KCAL/MOL
REMARK 927      BINDING AFFINITY PREDICTED BY RF-SCORE:    0.00 PKD
ROOT
HETATM    1  C   UNL     1     -11.642  14.412  68.367  1.00  0.00    -0.351 C  
HETATM    2  C   UNL     1     -11.768  14.957  69.790  1.00  0.00    -0.305 C  
HETATM    3  C   UNL     1     -11.025  16.291  69.896  1.00  0.00    -0.365 C  
ENDROOT
BRANCH   2   4
HETATM    4  N   UNL     1     -13.193  15.099  70.104  1.00  0.00    -0.594 NA 
HETATM    5  H   UNL     1     -13.706  14.257  69.844  1.00  0.00     0.000 HD 
BRANCH   4   6
HETATM    6  C   UNL     1     -13.450  15.453  71.507  1.00  0.00    -0.513 C  
BRANCH   6   7
HETATM    7  C   UNL     1     -12.785  14.430  72.448  1.00  0.00    -0.318 C  
HETATM    8  H   UNL     1     -12.271  14.349  74.350  1.00  0.00     0.000 HD 
HETATM    9  O   UNL     1     -12.681  14.980  73.769  1.00  0.00    -0.527 OA 
BRANCH   7  10
HETATM   10  C   UNL     1     -13.581  13.119  72.490  1.00  0.00    -0.491 C  
BRANCH  10  11
HETATM   11  O   UNL     1     -13.482  12.460  71.219  1.00  0.00     0.022 OA 
BRANCH  11  12
HETATM   12  C   UNL     1     -12.830  11.254  71.208  1.00  0.00    -0.389 A  
HETATM   13  C   UNL     1     -13.140  10.154  72.006  1.00  0.00    -0.538 A  
HETATM   14  C   UNL     1     -12.364   8.991  71.942  1.00  0.00    -0.455 A  
HETATM   15  C   UNL     1     -11.262   8.911  71.082  1.00  0.00    -0.352 A  
HETATM   16  C   UNL     1     -10.982  10.001  70.247  1.00  0.00    -0.377 A  
HETATM   17  C   UNL     1     -11.757  11.164  70.317  1.00  0.00    -0.431 A  
BRANCH  15  18
HETATM   18  C   UNL     1     -10.362   7.697  71.108  1.00  0.00    -0.212 C  
BRANCH  18  19
HETATM   19  C   UNL     1     -10.885   6.401  70.520  1.00  0.00    -0.279 C  
HETATM   20  N   UNL     1     -11.574   6.441  69.348  1.00  0.00    -0.618 N  
HETATM   21  O   UNL     1     -10.696   5.321  71.075  1.00  0.00    -0.213 OA 
HETATM   22  H2  UNL     1     -11.737   7.328  68.873  1.00  0.00     0.000 HD 
HETATM   23  H1  UNL     1     -11.926   5.568  68.953  1.00  0.00     0.000 HD 
ENDBRANCH  18  19
ENDBRANCH  15  18
ENDBRANCH  11  12
ENDBRANCH  10  11
ENDBRANCH   7  10
ENDBRANCH   6   7
ENDBRANCH   4   6
ENDBRANCH   2   4
TORSDOF 8
ENDMDL
MODEL       35
REMARK 921   NORMALIZED FREE ENERGY PREDICTED BY IDOCK:   -5.15 KCAL/MOL
REMARK 922        TOTAL FREE ENERGY PREDICTED BY IDOCK:   -8.13 KCAL/MOL
REMARK 923 INTER-LIGAND FREE ENERGY PREDICTED BY IDOCK:   -7.21 KCAL/MOL
REMARK 924 INTRA-LIGAND FREE ENERGY PREDICTED BY IDOCK:   -0.93 KCAL/MOL
REMARK 927      BINDING AFFINITY PREDICTED BY RF-SCORE:    0.00 PKD
ROOT
HETATM    1  C   UNL     1     -13.308  13.412  72.123  1.00  0.00    -0.613 C  
HETATM    2  C   UNL     1     -12.522  14.502  71.393  1.00  0.00    -0.353 C  
HETATM    3  C   UNL     1     -11.758  15.352  72.411  1.00  0.00    -0.565 C  
ENDROOT
BRANCH   2   4
HETATM    4  N   UNL     1     -11.620  13.856  70.434  1.00  0.00    -0.508 NA 
HETATM    5  H   UNL     1     -11.405  12.903  70.727  1.00  0.00     0.000 HD 
BRANCH   4   6
HETATM    6  C   UNL     1     -12.123  13.876  69.053  1.00  0.00    -0.329 C  
BRANCH   6   7
HETATM    7  C   UNL     1     -11.234  13.002  68.148  1.00  0.00    -0.272 C  
HETATM    8  H   UNL     1      -9.318  12.556  68.013  1.00  0.00     0.000 HD 
HETATM    9  O   UNL     1      -9.866  13.095  68.572  1.00  0.00    -0.218 OA 
BRANCH   7  10
HETATM   10  C   UNL     1     -11.690  11.537  68.175  1.00  0.00    -0.287 C  
BRANCH  10  11
HETATM   11  O   UNL     1     -12.522  11.317  69.324  1.00  0.00    -0.331 OA 
BRANCH  11  12
HETATM   12  C   UNL     1     -12.037  10.450  70.268  1.00  0.00    -0.286 A  
HETATM   13  C   UNL     1     -10.700  10.093  70.437  1.00  0.00    -0.329 A  
HETATM   14  C   UNL     1     -10.335   9.153  71.406  1.00  0.00    -0.409 A  
HETATM   15  C   UNL     1     -11.301   8.549  72.220  1.00  0.00    -0.441 A  
HETATM   16  C   UNL     1     -12.637   8.945  72.080  1.00  0.00    -0.467 A  
HETATM   17  C   UNL     1     -13.001   9.882  71.106  1.00  0.00    -0.456 A  
BRANCH  15  18
HETATM   18  C   UNL     1     -10.909   7.449  73.180  1.00  0.00    -0.435 C  
BRANCH  18  19
HETATM   19  C   UNL     1     -10.963   6.015  72.690  1.00  0.00    -0.264 C  
HETATM   20  N   UNL     1     -11.716   5.113  73.375  1.00  0.00    -0.445 N  
HETATM   21  O   UNL     1     -10.346   5.654  71.691  1.00  0.00    -0.201 OA 
HETATM   22  H2  UNL     1     -12.237   5.398  74.205  1.00  0.00     0.000 HD 
HETATM   23  H1  UNL     1     -11.752   4.148  73.045  1.00  0.00     0.000 HD 
ENDBRANCH  18  19
ENDBRANCH  15  18
ENDBRANCH  11  12
ENDBRANCH  10  11
ENDBRANCH   7  10
ENDBRANCH   6   7
ENDBRANCH   4   6
ENDBRANCH   2   4
TORSDOF 8
ENDMDL
MODEL       36
REMARK 921   NORMALIZED FREE ENERGY PREDICTED BY IDOCK:   -5.14 KCAL/MOL
REMARK 922        TOTAL FREE ENERGY PREDICTED BY IDOCK:   -8.11 KCAL/MOL
REMARK 923 INTER-LIGAND FREE ENERGY PREDICTED BY IDOCK:   -7.43 KCAL/MOL
REMARK 924 INTRA-LIGAND FREE ENERGY PREDICTED BY IDOCK:   -0.68 KCAL/MOL
REMARK 927      BINDING AFFINITY PREDICTED BY RF-SCORE:    0.00 PKD
ROOT
HETATM    1  C   UNL     1     -12.987  10.457  70.862  1.00  0.00    -0.475 C  
HETATM    2  C   UNL     1     -11.785  10.911  70.033  1.00  0.00    -0.345 C  
HETATM    3  C   UNL     1     -10.590   9.999  70.323  1.00  0.00    -0.354 C  
ENDROOT
BRANCH   2   4
HETATM    4  N   UNL     1     -12.163  10.881  68.617  1.00  0.00    -0.810 NA 
HETATM    5  H   UNL     1     -12.537  11.784  68.324  1.00  0.00     0.000 HD 
BRANCH   4   6
HETATM    6  C   UNL     1     -11.073  10.455  67.729  1.00  0.00    -0.299 C  
BRANCH   6   7
HETATM    7  C   UNL     1     -10.850  11.498  66.617  1.00  0.00    -0.287 C  
HETATM    8  H   UNL     1     -11.921  12.884  65.711  1.00  0.00     0.000 HD 
HETATM    9  O   UNL     1     -12.058  12.240  66.396  1.00  0.00    -0.623 OA 
BRANCH   7  10
HETATM   10  C   UNL     1      -9.708  12.456  66.980  1.00  0.00    -0.211 C  
BRANCH  10  11
HETATM   11  O   UNL     1     -10.150  13.360  68.003  1.00  0.00    -0.228 OA 
BRANCH  11  12
HETATM   12  C   UNL     1     -10.178  14.689  67.670  1.00  0.00    -0.232 A  
HETATM   13  C   UNL     1     -10.437  15.742  68.546  1.00  0.00    -0.236 A  
HETATM   14  C   UNL     1     -10.492  17.059  68.074  1.00  0.00    -0.353 A  
HETATM   15  C   UNL     1     -10.295  17.343  66.717  1.00  0.00    -0.305 A  
HETATM   16  C   UNL     1      -9.989  16.288  65.849  1.00  0.00    -0.366 A  
HETATM   17  C   UNL     1      -9.939  14.972  66.322  1.00  0.00    -0.300 A  
BRANCH  15  18
HETATM   18  C   UNL     1     -10.476  18.752  66.201  1.00  0.00    -0.499 C  
BRANCH  18  19
HETATM   19  C   UNL     1      -9.300  19.706  66.288  1.00  0.00    -0.383 C  
HETATM   20  N   UNL     1      -9.437  20.856  67.001  1.00  0.00    -0.690 N  
HETATM   21  O   UNL     1      -8.232  19.461  65.733  1.00  0.00    -0.439 OA 
HETATM   22  H2  UNL     1     -10.316  21.073  67.470  1.00  0.00     0.000 HD 
HETATM   23  H1  UNL     1      -8.645  21.498  67.059  1.00  0.00     0.000 HD 
ENDBRANCH  18  19
ENDBRANCH  15  18
ENDBRANCH  11  12
ENDBRANCH  10  11
ENDBRANCH   7  10
ENDBRANCH   6   7
ENDBRANCH   4   6
ENDBRANCH   2   4
TORSDOF 8
ENDMDL
MODEL       37
REMARK 921   NORMALIZED FREE ENERGY PREDICTED BY IDOCK:   -5.13 KCAL/MOL
REMARK 922        TOTAL FREE ENERGY PREDICTED BY IDOCK:   -8.10 KCAL/MOL
REMARK 923 INTER-LIGAND FREE ENERGY PREDICTED BY IDOCK:   -7.46 KCAL/MOL
REMARK 924 INTRA-LIGAND FREE ENERGY PREDICTED BY IDOCK:   -0.64 KCAL/MOL
REMARK 927      BINDING AFFINITY PREDICTED BY RF-SCORE:    0.00 PKD
ROOT
HETATM    1  C   UNL     1     -10.981  15.709  67.177  1.00  0.00    -0.270 C  
HETATM    2  C   UNL     1     -10.057  15.584  65.965  1.00  0.00    -0.332 C  
HETATM    3  C   UNL     1      -8.713  16.249  66.275  1.00  0.00    -0.370 C  
ENDROOT
BRANCH   2   4
HETATM    4  N   UNL     1      -9.902  14.161  65.648  1.00  0.00    -0.485 NA 
HETATM    5  H   UNL     1      -9.822  13.608  66.501  1.00  0.00     0.000 HD 
BRANCH   4   6
HETATM    6  C   UNL     1     -10.968  13.635  64.785  1.00  0.00    -0.378 C  
BRANCH   6   7
HETATM    7  C   UNL     1     -11.926  12.744  65.599  1.00  0.00    -0.452 C  
HETATM    8  H   UNL     1     -13.556  11.692  65.249  1.00  0.00     0.000 HD 
HETATM    9  O   UNL     1     -12.966  12.241  64.747  1.00  0.00    -0.713 OA 
BRANCH   7  10
HETATM   10  C   UNL     1     -11.174  11.575  66.250  1.00  0.00    -0.222 C  
BRANCH  10  11
HETATM   11  O   UNL     1     -10.488  12.041  67.421  1.00  0.00    -0.211 OA 
BRANCH  11  12
HETATM   12  C   UNL     1     -10.639  11.287  68.555  1.00  0.00    -0.199 A  
HETATM   13  C   UNL     1      -9.842  10.205  68.925  1.00  0.00    -0.194 A  
HETATM   14  C   UNL     1     -10.130   9.477  70.085  1.00  0.00    -0.293 A  
HETATM   15  C   UNL     1     -11.223   9.816  70.892  1.00  0.00    -0.429 A  
HETATM   16  C   UNL     1     -11.993  10.933  70.543  1.00  0.00    -0.466 A  
HETATM   17  C   UNL     1     -11.706  11.656  69.379  1.00  0.00    -0.405 A  
BRANCH  15  18
HETATM   18  C   UNL     1     -11.594   8.951  72.075  1.00  0.00    -0.435 C  
BRANCH  18  19
HETATM   19  C   UNL     1     -12.987   8.355  72.121  1.00  0.00    -0.337 C  
HETATM   20  N   UNL     1     -13.954   8.995  72.832  1.00  0.00    -0.896 N  
HETATM   21  O   UNL     1     -13.261   7.313  71.529  1.00  0.00    -0.376 OA 
HETATM   22  H2  UNL     1     -13.745   9.863  73.326  1.00  0.00     0.000 HD 
HETATM   23  H1  UNL     1     -14.892   8.594  72.863  1.00  0.00     0.000 HD 
ENDBRANCH  18  19
ENDBRANCH  15  18
ENDBRANCH  11  12
ENDBRANCH  10  11
ENDBRANCH   7  10
ENDBRANCH   6   7
ENDBRANCH   4   6
ENDBRANCH   2   4
TORSDOF 8
ENDMDL
MODEL       38
REMARK 921   NORMALIZED FREE ENERGY PREDICTED BY IDOCK:   -5.11 KCAL/MOL
REMARK 922        TOTAL FREE ENERGY PREDICTED BY IDOCK:   -8.07 KCAL/MOL
REMARK 923 INTER-LIGAND FREE ENERGY PREDICTED BY IDOCK:   -7.03 KCAL/MOL
REMARK 924 INTRA-LIGAND FREE ENERGY PREDICTED BY IDOCK:   -1.05 KCAL/MOL
REMARK 927      BINDING AFFINITY PREDICTED BY RF-SCORE:    0.00 PKD
ROOT
HETATM    1  C   UNL     1     -10.291  19.942  65.896  1.00  0.00    -0.567 C  
HETATM    2  C   UNL     1      -9.760  20.518  67.210  1.00  0.00    -0.460 C  
HETATM    3  C   UNL     1     -10.394  19.774  68.388  1.00  0.00    -0.513 C  
ENDROOT
BRANCH   2   4
HETATM    4  N   UNL     1      -8.299  20.396  67.209  1.00  0.00    -0.364 NA 
HETATM    5  H   UNL     1      -7.976  19.921  68.052  1.00  0.00     0.000 HD 
BRANCH   4   6
HETATM    6  C   UNL     1      -7.767  19.743  66.006  1.00  0.00    -0.332 C  
BRANCH   6   7
HETATM    7  C   UNL     1      -6.870  18.552  66.396  1.00  0.00    -0.213 C  
HETATM    8  H   UNL     1      -5.946  17.920  68.019  1.00  0.00     0.000 HD 
HETATM    9  O   UNL     1      -6.499  18.654  67.778  1.00  0.00    -0.206 OA 
BRANCH   7  10
HETATM   10  C   UNL     1      -7.585  17.217  66.145  1.00  0.00    -0.282 C  
BRANCH  10  11
HETATM   11  O   UNL     1      -8.582  17.012  67.156  1.00  0.00    -0.193 OA 
BRANCH  11  12
HETATM   12  C   UNL     1      -9.627  16.191  66.823  1.00  0.00    -0.240 A  
HETATM   13  C   UNL     1     -10.277  15.309  67.685  1.00  0.00    -0.242 A  
HETATM   14  C   UNL     1     -11.300  14.480  67.212  1.00  0.00    -0.363 A  
HETATM   15  C   UNL     1     -11.688  14.516  65.867  1.00  0.00    -0.345 A  
HETATM   16  C   UNL     1     -11.066  15.437  65.014  1.00  0.00    -0.428 A  
HETATM   17  C   UNL     1     -10.039  16.261  65.489  1.00  0.00    -0.276 A  
BRANCH  15  18
HETATM   18  C   UNL     1     -12.710  13.533  65.343  1.00  0.00    -0.495 C  
BRANCH  18  19
HETATM   19  C   UNL     1     -12.221  12.364  64.509  1.00  0.00    -0.431 C  
HETATM   20  N   UNL     1     -12.895  12.038  63.373  1.00  0.00    -0.784 N  
HETATM   21  O   UNL     1     -11.233  11.711  64.835  1.00  0.00    -0.290 OA 
HETATM   22  H2  UNL     1     -13.716  12.572  63.087  1.00  0.00     0.000 HD 
HETATM   23  H1  UNL     1     -12.567  11.252  62.813  1.00  0.00     0.000 HD 
ENDBRANCH  18  19
ENDBRANCH  15  18
ENDBRANCH  11  12
ENDBRANCH  10  11
ENDBRANCH   7  10
ENDBRANCH   6   7
ENDBRANCH   4   6
ENDBRANCH   2   4
TORSDOF 8
ENDMDL
MODEL       39
REMARK 921   NORMALIZED FREE ENERGY PREDICTED BY IDOCK:   -5.06 KCAL/MOL
REMARK 922        TOTAL FREE ENERGY PREDICTED BY IDOCK:   -8.00 KCAL/MOL
REMARK 923 INTER-LIGAND FREE ENERGY PREDICTED BY IDOCK:   -6.52 KCAL/MOL
REMARK 924 INTRA-LIGAND FREE ENERGY PREDICTED BY IDOCK:   -1.49 KCAL/MOL
REMARK 927      BINDING AFFINITY PREDICTED BY RF-SCORE:    0.00 PKD
ROOT
HETATM    1  C   UNL     1     -12.614  13.508  65.378  1.00  0.00    -0.531 C  
HETATM    2  C   UNL     1     -11.514  13.971  64.422  1.00  0.00    -0.344 C  
HETATM    3  C   UNL     1     -11.257  15.466  64.624  1.00  0.00    -0.374 C  
ENDROOT
BRANCH   2   4
HETATM    4  N   UNL     1     -10.313  13.171  64.681  1.00  0.00    -0.473 NA 
HETATM    5  H   UNL     1      -9.637  13.701  65.232  1.00  0.00     0.000 HD 
BRANCH   4   6
HETATM    6  C   UNL     1     -10.597  11.875  65.312  1.00  0.00    -0.275 C  
BRANCH   6   7
HETATM    7  C   UNL     1      -9.445  11.473  66.253  1.00  0.00    -0.217 C  
HETATM    8  H   UNL     1      -7.715  10.542  66.089  1.00  0.00     0.000 HD 
HETATM    9  O   UNL     1      -8.426  10.790  65.509  1.00  0.00    -0.174 OA 
BRANCH   7  10
HETATM   10  C   UNL     1      -8.847  12.702  66.950  1.00  0.00    -0.201 C  
BRANCH  10  11
HETATM   11  O   UNL     1      -9.770  13.189  67.935  1.00  0.00    -0.208 OA 
BRANCH  11  12
HETATM   12  C   UNL     1      -9.985  14.543  67.952  1.00  0.00    -0.226 A  
HETATM   13  C   UNL     1     -11.139  15.178  68.408  1.00  0.00    -0.286 A  
HETATM   14  C   UNL     1     -11.261  16.569  68.324  1.00  0.00    -0.265 A  
HETATM   15  C   UNL     1     -10.234  17.348  67.778  1.00  0.00    -0.345 A  
HETATM   16  C   UNL     1      -9.057  16.711  67.364  1.00  0.00    -0.206 A  
HETATM   17  C   UNL     1      -8.939  15.319  67.445  1.00  0.00    -0.194 A  
BRANCH  15  18
HETATM   18  C   UNL     1     -10.427  18.835  67.583  1.00  0.00    -0.495 C  
BRANCH  18  19
HETATM   19  C   UNL     1     -10.340  19.393  66.176  1.00  0.00    -0.504 C  
HETATM   20  N   UNL     1      -9.621  20.527  65.960  1.00  0.00    -0.639 N  
HETATM   21  O   UNL     1     -10.901  18.842  65.231  1.00  0.00    -0.559 OA 
HETATM   22  H2  UNL     1      -9.147  20.995  66.733  1.00  0.00     0.000 HD 
HETATM   23  H1  UNL     1      -9.563  20.902  65.013  1.00  0.00     0.000 HD 
ENDBRANCH  18  19
ENDBRANCH  15  18
ENDBRANCH  11  12
ENDBRANCH  10  11
ENDBRANCH   7  10
ENDBRANCH   6   7
ENDBRANCH   4   6
ENDBRANCH   2   4
TORSDOF 8
ENDMDL
MODEL       40
REMARK 921   NORMALIZED FREE ENERGY PREDICTED BY IDOCK:   -5.05 KCAL/MOL
REMARK 922        TOTAL FREE ENERGY PREDICTED BY IDOCK:   -7.99 KCAL/MOL
REMARK 923 INTER-LIGAND FREE ENERGY PREDICTED BY IDOCK:   -7.27 KCAL/MOL
REMARK 924 INTRA-LIGAND FREE ENERGY PREDICTED BY IDOCK:   -0.71 KCAL/MOL
REMARK 927      BINDING AFFINITY PREDICTED BY RF-SCORE:    0.00 PKD
ROOT
HETATM    1  C   UNL     1     -12.177  13.543  63.414  1.00  0.00    -0.338 C  
HETATM    2  C   UNL     1     -12.225  12.218  64.175  1.00  0.00    -0.446 C  
HETATM    3  C   UNL     1     -10.977  11.394  63.846  1.00  0.00    -0.442 C  
ENDROOT
BRANCH   2   4
HETATM    4  N   UNL     1     -12.323  12.512  65.607  1.00  0.00    -0.638 NA 
HETATM    5  H   UNL     1     -12.910  11.823  66.079  1.00  0.00     0.000 HD 
BRANCH   4   6
HETATM    6  C   UNL     1     -11.018  12.626  66.272  1.00  0.00    -0.283 C  
BRANCH   6   7
HETATM    7  C   UNL     1     -11.091  13.646  67.425  1.00  0.00    -0.282 C  
HETATM    8  H   UNL     1     -11.680  15.513  67.655  1.00  0.00     0.000 HD 
HETATM    9  O   UNL     1     -11.634  14.884  66.945  1.00  0.00    -0.345 OA 
BRANCH   7  10
HETATM   10  C   UNL     1     -11.948  13.113  68.580  1.00  0.00    -0.284 C  
BRANCH  10  11
HETATM   11  O   UNL     1     -12.199  11.714  68.382  1.00  0.00    -0.498 OA 
BRANCH  11  12
HETATM   12  C   UNL     1     -11.794  10.874  69.387  1.00  0.00    -0.328 A  
HETATM   13  C   UNL     1     -10.627  10.111  69.388  1.00  0.00    -0.261 A  
HETATM   14  C   UNL     1     -10.347   9.247  70.453  1.00  0.00    -0.291 A  
HETATM   15  C   UNL     1     -11.232   9.128  71.532  1.00  0.00    -0.430 A  
HETATM   16  C   UNL     1     -12.379   9.932  71.550  1.00  0.00    -0.504 A  
HETATM   17  C   UNL     1     -12.659  10.792  70.481  1.00  0.00    -0.421 A  
BRANCH  15  18
HETATM   18  C   UNL     1     -10.979   8.105  72.615  1.00  0.00    -0.440 C  
BRANCH  18  19
HETATM   19  C   UNL     1     -11.523   6.703  72.422  1.00  0.00    -0.262 C  
HETATM   20  N   UNL     1     -11.194   5.739  73.324  1.00  0.00    -0.466 N  
HETATM   21  O   UNL     1     -12.254   6.423  71.476  1.00  0.00    -0.312 OA 
HETATM   22  H2  UNL     1     -10.591   5.956  74.117  1.00  0.00     0.000 HD 
HETATM   23  H1  UNL     1     -11.561   4.796  73.194  1.00  0.00     0.000 HD 
ENDBRANCH  18  19
ENDBRANCH  15  18
ENDBRANCH  11  12
ENDBRANCH  10  11
ENDBRANCH   7  10
ENDBRANCH   6   7
ENDBRANCH   4   6
ENDBRANCH   2   4
TORSDOF 8
ENDMDL
MODEL       41
REMARK 921   NORMALIZED FREE ENERGY PREDICTED BY IDOCK:   -5.04 KCAL/MOL
REMARK 922        TOTAL FREE ENERGY PREDICTED BY IDOCK:   -7.97 KCAL/MOL
REMARK 923 INTER-LIGAND FREE ENERGY PREDICTED BY IDOCK:   -7.32 KCAL/MOL
REMARK 924 INTRA-LIGAND FREE ENERGY PREDICTED BY IDOCK:   -0.64 KCAL/MOL
REMARK 927      BINDING AFFINITY PREDICTED BY RF-SCORE:    0.00 PKD
ROOT
HETATM    1  C   UNL     1     -11.781   6.043  71.898  1.00  0.00    -0.287 C  
HETATM    2  C   UNL     1     -11.857   7.555  71.679  1.00  0.00    -0.291 C  
HETATM    3  C   UNL     1     -10.767   8.246  72.503  1.00  0.00    -0.411 C  
ENDROOT
BRANCH   2   4
HETATM    4  N   UNL     1     -11.708   7.821  70.245  1.00  0.00    -0.481 NA 
HETATM    5  H   UNL     1     -12.041   8.757  70.015  1.00  0.00     0.000 HD 
BRANCH   4   6
HETATM    6  C   UNL     1     -10.339   7.620  69.752  1.00  0.00    -0.223 C  
BRANCH   6   7
HETATM    7  C   UNL     1      -9.969   8.717  68.735  1.00  0.00    -0.183 C  
HETATM    8  H   UNL     1     -10.640   9.344  66.991  1.00  0.00     0.000 HD 
HETATM    9  O   UNL     1     -10.868   8.667  67.618  1.00  0.00    -0.180 OA 
BRANCH   7  10
HETATM   10  C   UNL     1     -10.016  10.107  69.382  1.00  0.00    -0.228 C  
BRANCH  10  11
HETATM   11  O   UNL     1     -11.009  10.907  68.724  1.00  0.00    -0.202 OA 
BRANCH  11  12
HETATM   12  C   UNL     1     -11.682  11.808  69.507  1.00  0.00    -0.343 A  
HETATM   13  C   UNL     1     -11.817  13.171  69.247  1.00  0.00    -0.377 A  
HETATM   14  C   UNL     1     -12.485  14.002  70.153  1.00  0.00    -0.380 A  
HETATM   15  C   UNL     1     -13.023  13.486  71.337  1.00  0.00    -0.421 A  
HETATM   16  C   UNL     1     -12.927  12.108  71.573  1.00  0.00    -0.398 A  
HETATM   17  C   UNL     1     -12.255  11.280  70.667  1.00  0.00    -0.489 A  
BRANCH  15  18
HETATM   18  C   UNL     1     -13.636  14.412  72.363  1.00  0.00    -0.578 C  
BRANCH  18  19
HETATM   19  C   UNL     1     -12.719  15.355  73.119  1.00  0.00    -0.479 C  
HETATM   20  N   UNL     1     -13.259  16.213  74.025  1.00  0.00    -0.941 N  
HETATM   21  O   UNL     1     -11.504  15.356  72.933  1.00  0.00    -0.432 OA 
HETATM   22  H2  UNL     1     -14.265  16.223  74.193  1.00  0.00     0.000 HD 
HETATM   23  H1  UNL     1     -12.642  16.847  74.533  1.00  0.00     0.000 HD 
ENDBRANCH  18  19
ENDBRANCH  15  18
ENDBRANCH  11  12
ENDBRANCH  10  11
ENDBRANCH   7  10
ENDBRANCH   6   7
ENDBRANCH   4   6
ENDBRANCH   2   4
TORSDOF 8
ENDMDL
MODEL       42
REMARK 921   NORMALIZED FREE ENERGY PREDICTED BY IDOCK:   -5.03 KCAL/MOL
REMARK 922        TOTAL FREE ENERGY PREDICTED BY IDOCK:   -7.96 KCAL/MOL
REMARK 923 INTER-LIGAND FREE ENERGY PREDICTED BY IDOCK:   -7.28 KCAL/MOL
REMARK 924 INTRA-LIGAND FREE ENERGY PREDICTED BY IDOCK:   -0.68 KCAL/MOL
REMARK 927      BINDING AFFINITY PREDICTED BY RF-SCORE:    0.00 PKD
ROOT
HETATM    1  C   UNL     1      -9.831  10.497  67.534  1.00  0.00    -0.196 C  
HETATM    2  C   UNL     1     -11.262  10.645  68.052  1.00  0.00    -0.307 C  
HETATM    3  C   UNL     1     -11.233  11.050  69.528  1.00  0.00    -0.343 C  
ENDROOT
BRANCH   2   4
HETATM    4  N   UNL     1     -11.950  11.642  67.226  1.00  0.00    -0.602 NA 
HETATM    5  H   UNL     1     -12.239  12.441  67.791  1.00  0.00     0.000 HD 
BRANCH   4   6
HETATM    6  C   UNL     1     -11.165  12.082  66.065  1.00  0.00    -0.335 C  
BRANCH   6   7
HETATM    7  C   UNL     1     -11.989  13.054  65.198  1.00  0.00    -0.402 C  
HETATM    8  H   UNL     1     -13.665  12.988  64.163  1.00  0.00     0.000 HD 
HETATM    9  O   UNL     1     -13.157  12.388  64.698  1.00  0.00    -0.825 OA 
BRANCH   7  10
HETATM   10  C   UNL     1     -12.398  14.296  66.000  1.00  0.00    -0.395 C  
BRANCH  10  11
HETATM   11  O   UNL     1     -11.594  14.386  67.185  1.00  0.00    -0.351 OA 
BRANCH  11  12
HETATM   12  C   UNL     1     -10.829  15.516  67.317  1.00  0.00    -0.313 A  
HETATM   13  C   UNL     1      -9.788  15.896  66.471  1.00  0.00    -0.277 A  
HETATM   14  C   UNL     1      -9.042  17.049  66.741  1.00  0.00    -0.266 A  
HETATM   15  C   UNL     1      -9.320  17.837  67.864  1.00  0.00    -0.266 A  
HETATM   16  C   UNL     1     -10.397  17.478  68.685  1.00  0.00    -0.369 A  
HETATM   17  C   UNL     1     -11.139  16.322  68.415  1.00  0.00    -0.362 A  
BRANCH  15  18
HETATM   18  C   UNL     1      -8.432  19.010  68.210  1.00  0.00    -0.366 C  
BRANCH  18  19
HETATM   19  C   UNL     1      -8.534  20.264  67.364  1.00  0.00    -0.339 C  
HETATM   20  N   UNL     1      -9.765  20.730  67.022  1.00  0.00    -0.659 N  
HETATM   21  O   UNL     1      -7.532  20.867  66.985  1.00  0.00    -0.306 OA 
HETATM   22  H2  UNL     1     -10.607  20.243  67.330  1.00  0.00     0.000 HD 
HETATM   23  H1  UNL     1      -9.834  21.573  66.452  1.00  0.00     0.000 HD 
ENDBRANCH  18  19
ENDBRANCH  15  18
ENDBRANCH  11  12
ENDBRANCH  10  11
ENDBRANCH   7  10
ENDBRANCH   6   7
ENDBRANCH   4   6
ENDBRANCH   2   4
TORSDOF 8
ENDMDL
MODEL       43
REMARK 921   NORMALIZED FREE ENERGY PREDICTED BY IDOCK:   -5.01 KCAL/MOL
REMARK 922        TOTAL FREE ENERGY PREDICTED BY IDOCK:   -7.93 KCAL/MOL
REMARK 923 INTER-LIGAND FREE ENERGY PREDICTED BY IDOCK:   -7.16 KCAL/MOL
REMARK 924 INTRA-LIGAND FREE ENERGY PREDICTED BY IDOCK:   -0.77 KCAL/MOL
REMARK 927      BINDING AFFINITY PREDICTED BY RF-SCORE:    0.00 PKD
ROOT
HETATM    1  C   UNL     1      -9.925  10.687  66.747  1.00  0.00    -0.254 C  
HETATM    2  C   UNL     1      -9.604  10.787  65.255  1.00  0.00    -0.229 C  
HETATM    3  C   UNL     1      -9.024   9.457  64.767  1.00  0.00    -0.241 C  
ENDROOT
BRANCH   2   4
HETATM    4  N   UNL     1     -10.835  11.141  64.542  1.00  0.00    -0.298 NA 
HETATM    5  H   UNL     1     -11.595  11.321  65.198  1.00  0.00     0.000 HD 
BRANCH   4   6
HETATM    6  C   UNL     1     -10.670  12.268  63.614  1.00  0.00    -0.467 C  
BRANCH   6   7
HETATM    7  C   UNL     1     -12.014  12.992  63.407  1.00  0.00    -0.520 C  
HETATM    8  H   UNL     1     -13.921  12.493  63.348  1.00  0.00     0.000 HD 
HETATM    9  O   UNL     1     -13.092  12.047  63.476  1.00  0.00    -0.764 OA 
BRANCH   7  10
HETATM   10  C   UNL     1     -12.217  14.092  64.457  1.00  0.00    -0.445 C  
BRANCH  10  11
HETATM   11  O   UNL     1     -11.317  13.876  65.554  1.00  0.00    -0.302 OA 
BRANCH  11  12
HETATM   12  C   UNL     1     -11.037  14.967  66.336  1.00  0.00    -0.329 A  
HETATM   13  C   UNL     1     -11.290  15.076  67.702  1.00  0.00    -0.342 A  
HETATM   14  C   UNL     1     -11.007  16.265  68.382  1.00  0.00    -0.351 A  
HETATM   15  C   UNL     1     -10.471  17.368  67.706  1.00  0.00    -0.376 A  
HETATM   16  C   UNL     1     -10.174  17.239  66.343  1.00  0.00    -0.333 A  
HETATM   17  C   UNL     1     -10.462  16.050  65.664  1.00  0.00    -0.416 A  
BRANCH  15  18
HETATM   18  C   UNL     1     -10.283  18.684  68.425  1.00  0.00    -0.415 C  
BRANCH  18  19
HETATM   19  C   UNL     1      -9.222  19.639  67.912  1.00  0.00    -0.332 C  
HETATM   20  N   UNL     1      -7.921  19.414  68.236  1.00  0.00    -0.319 N  
HETATM   21  O   UNL     1      -9.513  20.604  67.209  1.00  0.00    -0.425 OA 
HETATM   22  H2  UNL     1      -7.662  18.615  68.816  1.00  0.00     0.000 HD 
HETATM   23  H1  UNL     1      -7.207  20.056  67.890  1.00  0.00     0.000 HD 
ENDBRANCH  18  19
ENDBRANCH  15  18
ENDBRANCH  11  12
ENDBRANCH  10  11
ENDBRANCH   7  10
ENDBRANCH   6   7
ENDBRANCH   4   6
ENDBRANCH   2   4
TORSDOF 8
ENDMDL
MODEL       44
REMARK 921   NORMALIZED FREE ENERGY PREDICTED BY IDOCK:   -5.01 KCAL/MOL
REMARK 922        TOTAL FREE ENERGY PREDICTED BY IDOCK:   -7.92 KCAL/MOL
REMARK 923 INTER-LIGAND FREE ENERGY PREDICTED BY IDOCK:   -7.18 KCAL/MOL
REMARK 924 INTRA-LIGAND FREE ENERGY PREDICTED BY IDOCK:   -0.74 KCAL/MOL
REMARK 927      BINDING AFFINITY PREDICTED BY RF-SCORE:    0.00 PKD
ROOT
HETATM    1  C   UNL     1     -10.381  11.435  63.854  1.00  0.00    -0.434 C  
HETATM    2  C   UNL     1     -11.346  12.554  63.459  1.00  0.00    -0.486 C  
HETATM    3  C   UNL     1     -12.775  12.007  63.422  1.00  0.00    -0.527 C  
ENDROOT
BRANCH   2   4
HETATM    4  N   UNL     1     -11.204  13.648  64.425  1.00  0.00    -0.446 NA 
HETATM    5  H   UNL     1     -10.863  14.493  63.966  1.00  0.00     0.000 HD 
BRANCH   4   6
HETATM    6  C   UNL     1     -12.434  13.925  65.179  1.00  0.00    -0.453 C  
BRANCH   6   7
HETATM    7  C   UNL     1     -12.198  13.706  66.686  1.00  0.00    -0.389 C  
HETATM    8  H   UNL     1     -11.832  12.178  67.876  1.00  0.00     0.000 HD 
HETATM    9  O   UNL     1     -11.977  12.312  66.947  1.00  0.00    -0.578 OA 
BRANCH   7  10
HETATM   10  C   UNL     1     -11.000  14.526  67.182  1.00  0.00    -0.304 C  
BRANCH  10  11
HETATM   11  O   UNL     1     -10.997  15.807  66.535  1.00  0.00    -0.278 OA 
BRANCH  11  12
HETATM   12  C   UNL     1     -10.168  16.758  67.071  1.00  0.00    -0.292 A  
HETATM   13  C   UNL     1     -10.507  17.657  68.081  1.00  0.00    -0.386 A  
HETATM   14  C   UNL     1      -9.588  18.621  68.509  1.00  0.00    -0.399 A  
HETATM   15  C   UNL     1      -8.315  18.705  67.930  1.00  0.00    -0.293 A  
HETATM   16  C   UNL     1      -7.962  17.771  66.949  1.00  0.00    -0.251 A  
HETATM   17  C   UNL     1      -8.885  16.810  66.520  1.00  0.00    -0.311 A  
BRANCH  15  18
HETATM   18  C   UNL     1      -7.376  19.825  68.317  1.00  0.00    -0.349 C  
BRANCH  18  19
HETATM   19  C   UNL     1      -6.378  19.574  69.430  1.00  0.00    -0.320 C  
HETATM   20  N   UNL     1      -5.780  20.639  70.030  1.00  0.00    -0.433 N  
HETATM   21  O   UNL     1      -6.102  18.436  69.802  1.00  0.00    -0.252 OA 
HETATM   22  H2  UNL     1      -6.000  21.590  69.736  1.00  0.00     0.000 HD 
HETATM   23  H1  UNL     1      -5.108  20.470  70.780  1.00  0.00     0.000 HD 
ENDBRANCH  18  19
ENDBRANCH  15  18
ENDBRANCH  11  12
ENDBRANCH  10  11
ENDBRANCH   7  10
ENDBRANCH   6   7
ENDBRANCH   4   6
ENDBRANCH   2   4
TORSDOF 8
ENDMDL
MODEL       45
REMARK 921   NORMALIZED FREE ENERGY PREDICTED BY IDOCK:   -5.00 KCAL/MOL
REMARK 922        TOTAL FREE ENERGY PREDICTED BY IDOCK:   -7.91 KCAL/MOL
REMARK 923 INTER-LIGAND FREE ENERGY PREDICTED BY IDOCK:   -7.38 KCAL/MOL
REMARK 924 INTRA-LIGAND FREE ENERGY PREDICTED BY IDOCK:   -0.53 KCAL/MOL
REMARK 927      BINDING AFFINITY PREDICTED BY RF-SCORE:    0.00 PKD
ROOT
HETATM    1  C   UNL     1     -10.232   5.223  70.179  1.00  0.00    -0.350 C  
HETATM    2  C   UNL     1     -10.776   6.398  69.365  1.00  0.00    -0.289 C  
HETATM    3  C   UNL     1     -11.029   5.948  67.923  1.00  0.00    -0.248 C  
ENDROOT
BRANCH   2   4
HETATM    4  N   UNL     1     -12.003   6.876  70.010  1.00  0.00    -0.644 NA 
HETATM    5  H   UNL     1     -12.827   6.487  69.552  1.00  0.00     0.000 HD 
BRANCH   4   6
HETATM    6  C   UNL     1     -12.041   6.620  71.456  1.00  0.00    -0.355 C  
BRANCH   6   7
HETATM    7  C   UNL     1     -12.212   7.941  72.230  1.00  0.00    -0.287 C  
HETATM    8  H   UNL     1     -11.037   9.372  72.908  1.00  0.00     0.000 HD 
HETATM    9  O   UNL     1     -10.932   8.557  72.431  1.00  0.00    -0.357 OA 
BRANCH   7  10
HETATM   10  C   UNL     1     -13.142   8.904  71.480  1.00  0.00    -0.329 C  
BRANCH  10  11
HETATM   11  O   UNL     1     -13.295  10.110  72.241  1.00  0.00    -0.415 OA 
BRANCH  11  12
HETATM   12  C   UNL     1     -12.930  11.274  71.616  1.00  0.00    -0.432 A  
HETATM   13  C   UNL     1     -13.238  12.563  72.051  1.00  0.00    -0.524 A  
HETATM   14  C   UNL     1     -12.852  13.676  71.295  1.00  0.00    -0.424 A  
HETATM   15  C   UNL     1     -12.157  13.519  70.090  1.00  0.00    -0.425 A  
HETATM   16  C   UNL     1     -11.808  12.226  69.681  1.00  0.00    -0.393 A  
HETATM   17  C   UNL     1     -12.199  11.114  70.436  1.00  0.00    -0.457 A  
BRANCH  15  18
HETATM   18  C   UNL     1     -11.853  14.721  69.225  1.00  0.00    -0.352 C  
BRANCH  18  19
HETATM   19  C   UNL     1     -11.489  14.487  67.771  1.00  0.00    -0.340 C  
HETATM   20  N   UNL     1     -12.485  14.381  66.852  1.00  0.00    -0.510 N  
HETATM   21  O   UNL     1     -10.318  14.395  67.409  1.00  0.00    -0.250 OA 
HETATM   22  H2  UNL     1     -13.462  14.457  67.135  1.00  0.00     0.000 HD 
HETATM   23  H1  UNL     1     -12.240  14.223  65.874  1.00  0.00     0.000 HD 
ENDBRANCH  18  19
ENDBRANCH  15  18
ENDBRANCH  11  12
ENDBRANCH  10  11
ENDBRANCH   7  10
ENDBRANCH   6   7
ENDBRANCH   4   6
ENDBRANCH   2   4
TORSDOF 8
ENDMDL
MODEL       46
REMARK 921   NORMALIZED FREE ENERGY PREDICTED BY IDOCK:   -5.00 KCAL/MOL
REMARK 922        TOTAL FREE ENERGY PREDICTED BY IDOCK:   -7.90 KCAL/MOL
REMARK 923 INTER-LIGAND FREE ENERGY PREDICTED BY IDOCK:   -7.10 KCAL/MOL
REMARK 924 INTRA-LIGAND FREE ENERGY PREDICTED BY IDOCK:   -0.81 KCAL/MOL
REMARK 927      BINDING AFFINITY PREDICTED BY RF-SCORE:    0.00 PKD
ROOT
HETATM    1  C   UNL     1     -12.407   6.882  71.663  1.00  0.00    -0.413 C  
HETATM    2  C   UNL     1     -11.730   7.875  72.608  1.00  0.00    -0.341 C  
HETATM    3  C   UNL     1     -10.629   7.162  73.398  1.00  0.00    -0.424 C  
ENDROOT
BRANCH   2   4
HETATM    4  N   UNL     1     -11.197   8.982  71.808  1.00  0.00    -0.359 NA 
HETATM    5  H   UNL     1     -11.470   9.881  72.206  1.00  0.00     0.000 HD 
BRANCH   4   6
HETATM    6  C   UNL     1      -9.741   8.919  71.618  1.00  0.00    -0.309 C  
BRANCH   6   7
HETATM    7  C   UNL     1      -9.407   8.530  70.165  1.00  0.00    -0.161 C  
HETATM    8  H   UNL     1      -8.945   6.879  69.190  1.00  0.00     0.000 HD 
HETATM    9  O   UNL     1      -9.151   7.120  70.086  1.00  0.00    -0.151 OA 
BRANCH   7  10
HETATM   10  C   UNL     1     -10.552   8.906  69.215  1.00  0.00    -0.207 C  
BRANCH  10  11
HETATM   11  O   UNL     1     -10.853  10.302  69.360  1.00  0.00    -0.214 OA 
BRANCH  11  12
HETATM   12  C   UNL     1     -10.811  11.055  68.216  1.00  0.00    -0.215 A  
HETATM   13  C   UNL     1     -11.578  12.191  67.961  1.00  0.00    -0.411 A  
HETATM   14  C   UNL     1     -11.484  12.847  66.729  1.00  0.00    -0.391 A  
HETATM   15  C   UNL     1     -10.626  12.375  65.729  1.00  0.00    -0.288 A  
HETATM   16  C   UNL     1      -9.822  11.262  66.005  1.00  0.00    -0.267 A  
HETATM   17  C   UNL     1      -9.921  10.605  67.237  1.00  0.00    -0.224 A  
BRANCH  15  18
HETATM   18  C   UNL     1     -10.622  13.020  64.361  1.00  0.00    -0.429 C  
BRANCH  18  19
HETATM   19  C   UNL     1     -11.894  12.964  63.536  1.00  0.00    -0.536 C  
HETATM   20  N   UNL     1     -12.380  11.751  63.158  1.00  0.00    -0.959 N  
HETATM   21  O   UNL     1     -12.492  13.985  63.208  1.00  0.00    -0.795 OA 
HETATM   22  H2  UNL     1     -11.897  10.893  63.425  1.00  0.00     0.000 HD 
HETATM   23  H1  UNL     1     -13.235  11.713  62.603  1.00  0.00     0.000 HD 
ENDBRANCH  18  19
ENDBRANCH  15  18
ENDBRANCH  11  12
ENDBRANCH  10  11
ENDBRANCH   7  10
ENDBRANCH   6   7
ENDBRANCH   4   6
ENDBRANCH   2   4
TORSDOF 8
ENDMDL
MODEL       47
REMARK 921   NORMALIZED FREE ENERGY PREDICTED BY IDOCK:   -4.94 KCAL/MOL
REMARK 922        TOTAL FREE ENERGY PREDICTED BY IDOCK:   -7.83 KCAL/MOL
REMARK 923 INTER-LIGAND FREE ENERGY PREDICTED BY IDOCK:   -6.95 KCAL/MOL
REMARK 924 INTRA-LIGAND FREE ENERGY PREDICTED BY IDOCK:   -0.88 KCAL/MOL
REMARK 927      BINDING AFFINITY PREDICTED BY RF-SCORE:    0.00 PKD
ROOT
HETATM    1  C   UNL     1     -10.451  19.794  65.885  1.00  0.00    -0.587 C  
HETATM    2  C   UNL     1      -9.806  20.474  67.093  1.00  0.00    -0.426 C  
HETATM    3  C   UNL     1     -10.193  19.723  68.370  1.00  0.00    -0.568 C  
ENDROOT
BRANCH   2   4
HETATM    4  N   UNL     1      -8.354  20.493  66.890  1.00  0.00    -0.527 NA 
HETATM    5  H   UNL     1      -7.863  20.354  67.773  1.00  0.00     0.000 HD 
BRANCH   4   6
HETATM    6  C   UNL     1      -7.892  19.529  65.881  1.00  0.00    -0.253 C  
BRANCH   6   7
HETATM    7  C   UNL     1      -6.860  18.564  66.495  1.00  0.00    -0.202 C  
HETATM    8  H   UNL     1      -6.121  18.201  68.287  1.00  0.00     0.000 HD 
HETATM    9  O   UNL     1      -6.757  18.796  67.908  1.00  0.00    -0.211 OA 
BRANCH   7  10
HETATM   10  C   UNL     1      -7.246  17.103  66.233  1.00  0.00    -0.273 C  
BRANCH  10  11
HETATM   11  O   UNL     1      -8.596  17.046  65.748  1.00  0.00    -0.517 OA 
BRANCH  11  12
HETATM   12  C   UNL     1      -9.403  16.088  66.305  1.00  0.00    -0.322 A  
HETATM   13  C   UNL     1     -10.110  15.112  65.605  1.00  0.00    -0.392 A  
HETATM   14  C   UNL     1     -10.946  14.219  66.284  1.00  0.00    -0.317 A  
HETATM   15  C   UNL     1     -11.093  14.290  67.675  1.00  0.00    -0.305 A  
HETATM   16  C   UNL     1     -10.345  15.241  68.380  1.00  0.00    -0.227 A  
HETATM   17  C   UNL     1      -9.512  16.136  67.697  1.00  0.00    -0.220 A  
BRANCH  15  18
HETATM   18  C   UNL     1     -12.089  13.400  68.382  1.00  0.00    -0.270 C  
BRANCH  18  19
HETATM   19  C   UNL     1     -11.719  11.948  68.613  1.00  0.00    -0.323 C  
HETATM   20  N   UNL     1     -11.446  11.532  69.879  1.00  0.00    -0.439 N  
HETATM   21  O   UNL     1     -11.664  11.143  67.686  1.00  0.00    -0.573 OA 
HETATM   22  H2  UNL     1     -11.490  12.186  70.660  1.00  0.00     0.000 HD 
HETATM   23  H1  UNL     1     -11.197  10.555  70.034  1.00  0.00     0.000 HD 
ENDBRANCH  18  19
ENDBRANCH  15  18
ENDBRANCH  11  12
ENDBRANCH  10  11
ENDBRANCH   7  10
ENDBRANCH   6   7
ENDBRANCH   4   6
ENDBRANCH   2   4
TORSDOF 8
ENDMDL
MODEL       48
REMARK 921   NORMALIZED FREE ENERGY PREDICTED BY IDOCK:   -4.92 KCAL/MOL
REMARK 922        TOTAL FREE ENERGY PREDICTED BY IDOCK:   -7.80 KCAL/MOL
REMARK 923 INTER-LIGAND FREE ENERGY PREDICTED BY IDOCK:   -7.39 KCAL/MOL
REMARK 924 INTRA-LIGAND FREE ENERGY PREDICTED BY IDOCK:   -0.41 KCAL/MOL
REMARK 927      BINDING AFFINITY PREDICTED BY RF-SCORE:    0.00 PKD
ROOT
HETATM    1  C   UNL     1     -13.531   9.791  71.892  1.00  0.00    -0.485 C  
HETATM    2  C   UNL     1     -12.155  10.169  71.341  1.00  0.00    -0.382 C  
HETATM    3  C   UNL     1     -11.189   8.996  71.530  1.00  0.00    -0.418 C  
ENDROOT
BRANCH   2   4
HETATM    4  N   UNL     1     -12.308  10.528  69.928  1.00  0.00    -0.513 NA 
HETATM    5  H   UNL     1     -13.265  10.366  69.615  1.00  0.00     0.000 HD 
BRANCH   4   6
HETATM    6  C   UNL     1     -11.887  11.903  69.626  1.00  0.00    -0.337 C  
BRANCH   6   7
HETATM    7  C   UNL     1     -11.362  11.997  68.180  1.00  0.00    -0.291 C  
HETATM    8  H   UNL     1     -11.324  10.836  66.587  1.00  0.00     0.000 HD 
HETATM    9  O   UNL     1     -11.648  10.778  67.479  1.00  0.00    -0.510 OA 
BRANCH   7  10
HETATM   10  C   UNL     1     -11.990  13.185  67.440  1.00  0.00    -0.327 C  
BRANCH  10  11
HETATM   11  O   UNL     1     -10.996  13.819  66.623  1.00  0.00    -0.292 OA 
BRANCH  11  12
HETATM   12  C   UNL     1     -10.853  15.173  66.778  1.00  0.00    -0.322 A  
HETATM   13  C   UNL     1     -10.523  16.077  65.769  1.00  0.00    -0.391 A  
HETATM   14  C   UNL     1     -10.353  17.435  66.063  1.00  0.00    -0.309 A  
HETATM   15  C   UNL     1     -10.506  17.910  67.372  1.00  0.00    -0.390 A  
HETATM   16  C   UNL     1     -10.884  17.007  68.373  1.00  0.00    -0.333 A  
HETATM   17  C   UNL     1     -11.049  15.649  68.077  1.00  0.00    -0.335 A  
BRANCH  15  18
HETATM   18  C   UNL     1     -10.202  19.355  67.697  1.00  0.00    -0.526 C  
BRANCH  18  19
HETATM   19  C   UNL     1      -8.752  19.794  67.736  1.00  0.00    -0.325 C  
HETATM   20  N   UNL     1      -8.282  20.606  66.751  1.00  0.00    -0.553 N  
HETATM   21  O   UNL     1      -7.997  19.437  68.637  1.00  0.00    -0.351 OA 
HETATM   22  H2  UNL     1      -8.897  20.914  65.997  1.00  0.00     0.000 HD 
HETATM   23  H1  UNL     1      -7.306  20.901  66.778  1.00  0.00     0.000 HD 
ENDBRANCH  18  19
ENDBRANCH  15  18
ENDBRANCH  11  12
ENDBRANCH  10  11
ENDBRANCH   7  10
ENDBRANCH   6   7
ENDBRANCH   4   6
ENDBRANCH   2   4
TORSDOF 8
ENDMDL
MODEL       49
REMARK 921   NORMALIZED FREE ENERGY PREDICTED BY IDOCK:   -4.89 KCAL/MOL
REMARK 922        TOTAL FREE ENERGY PREDICTED BY IDOCK:   -7.75 KCAL/MOL
REMARK 923 INTER-LIGAND FREE ENERGY PREDICTED BY IDOCK:   -7.30 KCAL/MOL
REMARK 924 INTRA-LIGAND FREE ENERGY PREDICTED BY IDOCK:   -0.45 KCAL/MOL
REMARK 927      BINDING AFFINITY PREDICTED BY RF-SCORE:    0.00 PKD
ROOT
HETATM    1  C   UNL     1     -10.922   9.171  71.639  1.00  0.00    -0.445 C  
HETATM    2  C   UNL     1     -12.345   9.237  71.081  1.00  0.00    -0.293 C  
HETATM    3  C   UNL     1     -13.326   9.536  72.218  1.00  0.00    -0.526 C  
ENDROOT
BRANCH   2   4
HETATM    4  N   UNL     1     -12.385  10.269  70.041  1.00  0.00    -0.517 NA 
HETATM    5  H   UNL     1     -12.717  11.155  70.423  1.00  0.00     0.000 HD 
BRANCH   4   6
HETATM    6  C   UNL     1     -11.102  10.450  69.347  1.00  0.00    -0.254 C  
BRANCH   6   7
HETATM    7  C   UNL     1     -11.137  11.723  68.480  1.00  0.00    -0.239 C  
HETATM    8  H   UNL     1     -12.133  12.360  66.902  1.00  0.00     0.000 HD 
HETATM    9  O   UNL     1     -12.112  11.574  67.437  1.00  0.00    -0.593 OA 
BRANCH   7  10
HETATM   10  C   UNL     1     -11.463  12.960  69.327  1.00  0.00    -0.282 C  
BRANCH  10  11
HETATM   11  O   UNL     1     -12.279  13.860  68.563  1.00  0.00    -0.342 OA 
BRANCH  11  12
HETATM   12  C   UNL     1     -11.629  14.901  67.953  1.00  0.00    -0.344 A  
HETATM   13  C   UNL     1     -11.161  14.911  66.640  1.00  0.00    -0.329 A  
HETATM   14  C   UNL     1     -10.462  16.018  66.145  1.00  0.00    -0.334 A  
HETATM   15  C   UNL     1     -10.215  17.132  66.957  1.00  0.00    -0.313 A  
HETATM   16  C   UNL     1     -10.728  17.138  68.261  1.00  0.00    -0.363 A  
HETATM   17  C   UNL     1     -11.423  16.027  68.754  1.00  0.00    -0.375 A  
BRANCH  15  18
HETATM   18  C   UNL     1      -9.357  18.268  66.450  1.00  0.00    -0.280 C  
BRANCH  18  19
HETATM   19  C   UNL     1     -10.041  19.559  66.042  1.00  0.00    -0.436 C  
HETATM   20  N   UNL     1      -9.587  20.735  66.552  1.00  0.00    -0.609 N  
HETATM   21  O   UNL     1     -10.989  19.564  65.260  1.00  0.00    -0.426 OA 
HETATM   22  H2  UNL     1      -8.799  20.748  67.200  1.00  0.00     0.000 HD 
HETATM   23  H1  UNL     1     -10.047  21.603  66.277  1.00  0.00     0.000 HD 
ENDBRANCH  18  19
ENDBRANCH  15  18
ENDBRANCH  11  12
ENDBRANCH  10  11
ENDBRANCH   7  10
ENDBRANCH   6   7
ENDBRANCH   4   6
ENDBRANCH   2   4
TORSDOF 8
ENDMDL
MODEL       50
REMARK 921   NORMALIZED FREE ENERGY PREDICTED BY IDOCK:   -4.87 KCAL/MOL
REMARK 922        TOTAL FREE ENERGY PREDICTED BY IDOCK:   -7.72 KCAL/MOL
REMARK 923 INTER-LIGAND FREE ENERGY PREDICTED BY IDOCK:   -7.50 KCAL/MOL
REMARK 924 INTRA-LIGAND FREE ENERGY PREDICTED BY IDOCK:   -0.22 KCAL/MOL
REMARK 927      BINDING AFFINITY PREDICTED BY RF-SCORE:    0.00 PKD
ROOT
HETATM    1  C   UNL     1     -10.611   5.454  66.608  1.00  0.00    -0.359 C  
HETATM    2  C   UNL     1     -11.279   6.438  67.569  1.00  0.00    -0.179 C  
HETATM    3  C   UNL     1     -10.787   6.175  68.995  1.00  0.00    -0.416 C  
ENDROOT
BRANCH   2   4
HETATM    4  N   UNL     1     -10.964   7.800  67.127  1.00  0.00    -0.498 NA 
HETATM    5  H   UNL     1     -11.816   8.353  67.027  1.00  0.00     0.000 HD 
BRANCH   4   6
HETATM    6  C   UNL     1      -9.996   8.488  67.992  1.00  0.00    -0.183 C  
BRANCH   6   7
HETATM    7  C   UNL     1      -9.552   9.816  67.349  1.00  0.00    -0.155 C  
HETATM    8  H   UNL     1      -9.592  10.626  65.552  1.00  0.00     0.000 HD 
HETATM    9  O   UNL     1      -9.865   9.807  65.949  1.00  0.00    -0.248 OA 
BRANCH   7  10
HETATM   10  C   UNL     1     -10.230  11.012  68.029  1.00  0.00    -0.179 C  
BRANCH  10  11
HETATM   11  O   UNL     1     -11.235  10.538  68.938  1.00  0.00    -0.243 OA 
BRANCH  11  12
HETATM   12  C   UNL     1     -11.814  11.478  69.749  1.00  0.00    -0.357 A  
HETATM   13  C   UNL     1     -11.750  12.859  69.569  1.00  0.00    -0.387 A  
HETATM   14  C   UNL     1     -12.340  13.723  70.499  1.00  0.00    -0.429 A  
HETATM   15  C   UNL     1     -13.000  13.219  71.627  1.00  0.00    -0.441 A  
HETATM   16  C   UNL     1     -13.103  11.831  71.780  1.00  0.00    -0.480 A  
HETATM   17  C   UNL     1     -12.508  10.970  70.850  1.00  0.00    -0.509 A  
BRANCH  15  18
HETATM   18  C   UNL     1     -13.527  14.163  72.684  1.00  0.00    -0.634 C  
BRANCH  18  19
HETATM   19  C   UNL     1     -12.570  15.168  73.294  1.00  0.00    -0.499 C  
HETATM   20  N   UNL     1     -12.911  15.779  74.460  1.00  0.00    -0.855 N  
HETATM   21  O   UNL     1     -11.496  15.438  72.760  1.00  0.00    -0.449 OA 
HETATM   22  H2  UNL     1     -13.797  15.564  74.918  1.00  0.00     0.000 HD 
HETATM   23  H1  UNL     1     -12.266  16.455  74.870  1.00  0.00     0.000 HD 
ENDBRANCH  18  19
ENDBRANCH  15  18
ENDBRANCH  11  12
ENDBRANCH  10  11
ENDBRANCH   7  10
ENDBRANCH   6   7
ENDBRANCH   4   6
ENDBRANCH   2   4
TORSDOF 8
ENDMDL
MODEL       51
REMARK 921   NORMALIZED FREE ENERGY PREDICTED BY IDOCK:   -4.85 KCAL/MOL
REMARK 922        TOTAL FREE ENERGY PREDICTED BY IDOCK:   -7.70 KCAL/MOL
REMARK 923 INTER-LIGAND FREE ENERGY PREDICTED BY IDOCK:   -7.24 KCAL/MOL
REMARK 924 INTRA-LIGAND FREE ENERGY PREDICTED BY IDOCK:   -0.46 KCAL/MOL
REMARK 927      BINDING AFFINITY PREDICTED BY RF-SCORE:    0.00 PKD
ROOT
HETATM    1  C   UNL     1      -9.451  17.397  68.020  1.00  0.00    -0.281 C  
HETATM    2  C   UNL     1     -10.407  17.189  66.845  1.00  0.00    -0.308 C  
HETATM    3  C   UNL     1     -10.509  18.483  66.033  1.00  0.00    -0.433 C  
ENDROOT
BRANCH   2   4
HETATM    4  N   UNL     1      -9.907  16.074  66.035  1.00  0.00    -0.313 NA 
HETATM    5  H   UNL     1      -9.647  15.285  66.628  1.00  0.00     0.000 HD 
BRANCH   4   6
HETATM    6  C   UNL     1     -10.841  15.649  64.984  1.00  0.00    -0.450 C  
BRANCH   6   7
HETATM    7  C   UNL     1     -11.720  14.487  65.485  1.00  0.00    -0.343 C  
HETATM    8  H   UNL     1     -13.110  13.308  64.733  1.00  0.00     0.000 HD 
HETATM    9  O   UNL     1     -12.568  14.025  64.424  1.00  0.00    -0.651 OA 
BRANCH   7  10
HETATM   10  C   UNL     1     -10.858  13.329  66.006  1.00  0.00    -0.273 C  
BRANCH  10  11
HETATM   11  O   UNL     1     -11.692  12.187  66.254  1.00  0.00    -0.473 OA 
BRANCH  11  12
HETATM   12  C   UNL     1     -11.521  11.558  67.459  1.00  0.00    -0.282 A  
HETATM   13  C   UNL     1     -10.982  10.286  67.644  1.00  0.00    -0.356 A  
HETATM   14  C   UNL     1     -10.907   9.727  68.925  1.00  0.00    -0.220 A  
HETATM   15  C   UNL     1     -11.376  10.430  70.042  1.00  0.00    -0.384 A  
HETATM   16  C   UNL     1     -11.874  11.726  69.858  1.00  0.00    -0.423 A  
HETATM   17  C   UNL     1     -11.951  12.281  68.575  1.00  0.00    -0.272 A  
BRANCH  15  18
HETATM   18  C   UNL     1     -11.401   9.769  71.401  1.00  0.00    -0.407 C  
BRANCH  18  19
HETATM   19  C   UNL     1     -12.608   8.930  71.771  1.00  0.00    -0.361 C  
HETATM   20  N   UNL     1     -13.582   9.482  72.544  1.00  0.00    -0.686 N  
HETATM   21  O   UNL     1     -12.726   7.769  71.386  1.00  0.00    -0.326 OA 
HETATM   22  H2  UNL     1     -13.501  10.445  72.869  1.00  0.00     0.000 HD 
HETATM   23  H1  UNL     1     -14.394   8.917  72.792  1.00  0.00     0.000 HD 
ENDBRANCH  18  19
ENDBRANCH  15  18
ENDBRANCH  11  12
ENDBRANCH  10  11
ENDBRANCH   7  10
ENDBRANCH   6   7
ENDBRANCH   4   6
ENDBRANCH   2   4
TORSDOF 8
ENDMDL
MODEL       52
REMARK 921   NORMALIZED FREE ENERGY PREDICTED BY IDOCK:   -4.83 KCAL/MOL
REMARK 922        TOTAL FREE ENERGY PREDICTED BY IDOCK:   -7.66 KCAL/MOL
REMARK 923 INTER-LIGAND FREE ENERGY PREDICTED BY IDOCK:   -6.99 KCAL/MOL
REMARK 924 INTRA-LIGAND FREE ENERGY PREDICTED BY IDOCK:   -0.66 KCAL/MOL
REMARK 927      BINDING AFFINITY PREDICTED BY RF-SCORE:    0.00 PKD
ROOT
HETATM    1  C   UNL     1      -8.367   6.527  69.311  1.00  0.00    -0.123 C  
HETATM    2  C   UNL     1      -9.825   6.983  69.265  1.00  0.00    -0.159 C  
HETATM    3  C   UNL     1     -10.670   5.926  68.549  1.00  0.00    -0.327 C  
ENDROOT
BRANCH   2   4
HETATM    4  N   UNL     1     -10.281   7.207  70.641  1.00  0.00    -0.195 NA 
HETATM    5  H   UNL     1     -10.041   8.148  70.952  1.00  0.00     0.000 HD 
BRANCH   4   6
HETATM    6  C   UNL     1     -11.714   6.945  70.832  1.00  0.00    -0.361 C  
BRANCH   6   7
HETATM    7  C   UNL     1     -12.185   7.506  72.188  1.00  0.00    -0.248 C  
HETATM    8  H   UNL     1     -11.370   7.909  73.937  1.00  0.00     0.000 HD 
HETATM    9  O   UNL     1     -11.079   7.563  73.101  1.00  0.00    -0.383 OA 
BRANCH   7  10
HETATM   10  C   UNL     1     -12.800   8.902  72.024  1.00  0.00    -0.397 C  
BRANCH  10  11
HETATM   11  O   UNL     1     -12.274   9.519  70.840  1.00  0.00    -0.292 OA 
BRANCH  11  12
HETATM   12  C   UNL     1     -12.363  10.886  70.775  1.00  0.00    -0.390 A  
HETATM   13  C   UNL     1     -11.824  11.690  69.772  1.00  0.00    -0.428 A  
HETATM   14  C   UNL     1     -11.935  13.083  69.845  1.00  0.00    -0.381 A  
HETATM   15  C   UNL     1     -12.584  13.695  70.924  1.00  0.00    -0.421 A  
HETATM   16  C   UNL     1     -13.166  12.883  71.906  1.00  0.00    -0.521 A  
HETATM   17  C   UNL     1     -13.049  11.489  71.833  1.00  0.00    -0.492 A  
BRANCH  15  18
HETATM   18  C   UNL     1     -12.593  15.202  71.052  1.00  0.00    -0.441 C  
BRANCH  18  19
HETATM   19  C   UNL     1     -12.958  15.807  72.393  1.00  0.00    -0.465 C  
HETATM   20  N   UNL     1     -11.964  16.132  73.262  1.00  0.00    -0.462 N  
HETATM   21  O   UNL     1     -14.128  16.014  72.707  1.00  0.00    -0.509 OA 
HETATM   22  H2  UNL     1     -10.987  15.969  73.015  1.00  0.00     0.000 HD 
HETATM   23  H1  UNL     1     -12.210  16.539  74.164  1.00  0.00     0.000 HD 
ENDBRANCH  18  19
ENDBRANCH  15  18
ENDBRANCH  11  12
ENDBRANCH  10  11
ENDBRANCH   7  10
ENDBRANCH   6   7
ENDBRANCH   4   6
ENDBRANCH   2   4
TORSDOF 8
ENDMDL
MODEL       53
REMARK 921   NORMALIZED FREE ENERGY PREDICTED BY IDOCK:   -4.81 KCAL/MOL
REMARK 922        TOTAL FREE ENERGY PREDICTED BY IDOCK:   -7.63 KCAL/MOL
REMARK 923 INTER-LIGAND FREE ENERGY PREDICTED BY IDOCK:   -6.90 KCAL/MOL
REMARK 924 INTRA-LIGAND FREE ENERGY PREDICTED BY IDOCK:   -0.73 KCAL/MOL
REMARK 927      BINDING AFFINITY PREDICTED BY RF-SCORE:    0.00 PKD
ROOT
HETATM    1  C   UNL     1      -6.389  20.835  67.173  1.00  0.00    -0.338 C  
HETATM    2  C   UNL     1      -6.858  20.029  65.961  1.00  0.00    -0.257 C  
HETATM    3  C   UNL     1      -5.648  19.624  65.116  1.00  0.00    -0.208 C  
ENDROOT
BRANCH   2   4
HETATM    4  N   UNL     1      -7.602  18.862  66.444  1.00  0.00    -0.253 NA 
HETATM    5  H   UNL     1      -7.218  18.002  66.053  1.00  0.00     0.000 HD 
BRANCH   4   6
HETATM    6  C   UNL     1      -7.675  18.780  67.909  1.00  0.00    -0.256 C  
BRANCH   6   7
HETATM    7  C   UNL     1      -7.166  17.410  68.396  1.00  0.00    -0.223 C  
HETATM    8  H   UNL     1      -6.093  16.729  69.904  1.00  0.00     0.000 HD 
HETATM    9  O   UNL     1      -6.408  17.574  69.603  1.00  0.00    -0.248 OA 
BRANCH   7  10
HETATM   10  C   UNL     1      -8.331  16.442  68.638  1.00  0.00    -0.221 C  
BRANCH  10  11
HETATM   11  O   UNL     1      -9.487  16.897  67.921  1.00  0.00    -0.233 OA 
BRANCH  11  12
HETATM   12  C   UNL     1     -10.232  15.934  67.292  1.00  0.00    -0.278 A  
HETATM   13  C   UNL     1     -11.474  15.462  67.713  1.00  0.00    -0.284 A  
HETATM   14  C   UNL     1     -12.115  14.433  67.014  1.00  0.00    -0.374 A  
HETATM   15  C   UNL     1     -11.522  13.856  65.884  1.00  0.00    -0.328 A  
HETATM   16  C   UNL     1     -10.297  14.365  65.436  1.00  0.00    -0.400 A  
HETATM   17  C   UNL     1      -9.655  15.391  66.141  1.00  0.00    -0.362 A  
BRANCH  15  18
HETATM   18  C   UNL     1     -12.167  12.667  65.209  1.00  0.00    -0.532 C  
BRANCH  18  19
HETATM   19  C   UNL     1     -12.167  12.612  63.694  1.00  0.00    -0.536 C  
HETATM   20  N   UNL     1     -11.645  11.519  63.075  1.00  0.00    -0.856 N  
HETATM   21  O   UNL     1     -12.629  13.528  63.018  1.00  0.00    -0.716 OA 
HETATM   22  H2  UNL     1     -11.260  10.748  63.621  1.00  0.00     0.000 HD 
HETATM   23  H1  UNL     1     -11.645  11.482  62.055  1.00  0.00     0.000 HD 
ENDBRANCH  18  19
ENDBRANCH  15  18
ENDBRANCH  11  12
ENDBRANCH  10  11
ENDBRANCH   7  10
ENDBRANCH   6   7
ENDBRANCH   4   6
ENDBRANCH   2   4
TORSDOF 8
ENDMDL
MODEL       54
REMARK 921   NORMALIZED FREE ENERGY PREDICTED BY IDOCK:   -4.80 KCAL/MOL
REMARK 922        TOTAL FREE ENERGY PREDICTED BY IDOCK:   -7.62 KCAL/MOL
REMARK 923 INTER-LIGAND FREE ENERGY PREDICTED BY IDOCK:   -6.63 KCAL/MOL
REMARK 924 INTRA-LIGAND FREE ENERGY PREDICTED BY IDOCK:   -0.98 KCAL/MOL
REMARK 927      BINDING AFFINITY PREDICTED BY RF-SCORE:    0.00 PKD
ROOT
HETATM    1  C   UNL     1      -8.783  11.814  66.237  1.00  0.00    -0.106 C  
HETATM    2  C   UNL     1      -9.541  11.369  64.986  1.00  0.00    -0.221 C  
HETATM    3  C   UNL     1      -9.767   9.855  65.036  1.00  0.00    -0.359 C  
ENDROOT
BRANCH   2   4
HETATM    4  N   UNL     1     -10.805  12.108  64.925  1.00  0.00    -0.297 NA 
HETATM    5  H   UNL     1     -11.513  11.662  65.509  1.00  0.00     0.000 HD 
BRANCH   4   6
HETATM    6  C   UNL     1     -10.668  13.530  65.269  1.00  0.00    -0.323 C  
BRANCH   6   7
HETATM    7  C   UNL     1     -11.824  13.973  66.187  1.00  0.00    -0.407 C  
HETATM    8  H   UNL     1     -13.794  13.921  66.142  1.00  0.00     0.000 HD 
HETATM    9  O   UNL     1     -13.081  13.648  65.576  1.00  0.00    -0.639 OA 
BRANCH   7  10
HETATM   10  C   UNL     1     -11.723  13.304  67.563  1.00  0.00    -0.366 C  
BRANCH  10  11
HETATM   11  O   UNL     1     -12.012  11.904  67.437  1.00  0.00    -0.603 OA 
BRANCH  11  12
HETATM   12  C   UNL     1     -11.780  11.132  68.545  1.00  0.00    -0.298 A  
HETATM   13  C   UNL     1     -11.061   9.938  68.568  1.00  0.00    -0.181 A  
HETATM   14  C   UNL     1     -10.937   9.209  69.756  1.00  0.00    -0.195 A  
HETATM   15  C   UNL     1     -11.534   9.660  70.940  1.00  0.00    -0.427 A  
HETATM   16  C   UNL     1     -12.215  10.883  70.923  1.00  0.00    -0.485 A  
HETATM   17  C   UNL     1     -12.341  11.608  69.732  1.00  0.00    -0.197 A  
BRANCH  15  18
HETATM   18  C   UNL     1     -11.494   8.805  72.186  1.00  0.00    -0.421 C  
BRANCH  18  19
HETATM   19  C   UNL     1     -12.233   7.480  72.173  1.00  0.00    -0.248 C  
HETATM   20  N   UNL     1     -11.676   6.410  72.802  1.00  0.00    -0.499 N  
HETATM   21  O   UNL     1     -13.319   7.356  71.614  1.00  0.00    -0.362 OA 
HETATM   22  H2  UNL     1     -10.776   6.497  73.274  1.00  0.00     0.000 HD 
HETATM   23  H1  UNL     1     -12.173   5.519  72.793  1.00  0.00     0.000 HD 
ENDBRANCH  18  19
ENDBRANCH  15  18
ENDBRANCH  11  12
ENDBRANCH  10  11
ENDBRANCH   7  10
ENDBRANCH   6   7
ENDBRANCH   4   6
ENDBRANCH   2   4
TORSDOF 8
ENDMDL
MODEL       55
REMARK 921   NORMALIZED FREE ENERGY PREDICTED BY IDOCK:   -4.78 KCAL/MOL
REMARK 922        TOTAL FREE ENERGY PREDICTED BY IDOCK:   -7.59 KCAL/MOL
REMARK 923 INTER-LIGAND FREE ENERGY PREDICTED BY IDOCK:   -6.47 KCAL/MOL
REMARK 924 INTRA-LIGAND FREE ENERGY PREDICTED BY IDOCK:   -1.12 KCAL/MOL
REMARK 927      BINDING AFFINITY PREDICTED BY RF-SCORE:    0.00 PKD
ROOT
HETATM    1  C   UNL     1     -12.279  13.457  63.446  1.00  0.00    -0.419 C  
HETATM    2  C   UNL     1     -11.646  14.173  64.639  1.00  0.00    -0.406 C  
HETATM    3  C   UNL     1     -11.746  15.688  64.439  1.00  0.00    -0.218 C  
ENDROOT
BRANCH   2   4
HETATM    4  N   UNL     1     -12.335  13.737  65.857  1.00  0.00    -0.462 NA 
HETATM    5  H   UNL     1     -13.343  13.873  65.770  1.00  0.00     0.000 HD 
BRANCH   4   6
HETATM    6  C   UNL     1     -12.028  12.352  66.240  1.00  0.00    -0.298 C  
BRANCH   6   7
HETATM    7  C   UNL     1     -11.806  12.254  67.761  1.00  0.00    -0.273 C  
HETATM    8  H   UNL     1     -11.728  10.819  69.112  1.00  0.00     0.000 HD 
HETATM    9  O   UNL     1     -11.865  10.880  68.173  1.00  0.00    -0.564 OA 
BRANCH   7  10
HETATM   10  C   UNL     1     -10.455  12.861  68.163  1.00  0.00    -0.237 C  
BRANCH  10  11
HETATM   11  O   UNL     1     -10.670  14.148  68.761  1.00  0.00    -0.245 OA 
BRANCH  11  12
HETATM   12  C   UNL     1     -10.213  15.231  68.056  1.00  0.00    -0.230 A  
HETATM   13  C   UNL     1      -9.137  15.231  67.171  1.00  0.00    -0.226 A  
HETATM   14  C   UNL     1      -8.731  16.417  66.549  1.00  0.00    -0.324 A  
HETATM   15  C   UNL     1      -9.392  17.624  66.805  1.00  0.00    -0.286 A  
HETATM   16  C   UNL     1     -10.503  17.612  67.659  1.00  0.00    -0.372 A  
HETATM   17  C   UNL     1     -10.904  16.425  68.283  1.00  0.00    -0.347 A  
BRANCH  15  18
HETATM   18  C   UNL     1      -8.871  18.917  66.222  1.00  0.00    -0.260 C  
BRANCH  18  19
HETATM   19  C   UNL     1      -8.692  20.104  67.148  1.00  0.00    -0.344 C  
HETATM   20  N   UNL     1      -9.644  21.076  67.164  1.00  0.00    -0.661 N  
HETATM   21  O   UNL     1      -7.713  20.204  67.883  1.00  0.00    -0.295 OA 
HETATM   22  H2  UNL     1     -10.465  21.007  66.562  1.00  0.00     0.000 HD 
HETATM   23  H1  UNL     1      -9.524  21.875  67.788  1.00  0.00     0.000 HD 
ENDBRANCH  18  19
ENDBRANCH  15  18
ENDBRANCH  11  12
ENDBRANCH  10  11
ENDBRANCH   7  10
ENDBRANCH   6   7
ENDBRANCH   4   6
ENDBRANCH   2   4
TORSDOF 8
ENDMDL
MODEL       56
REMARK 921   NORMALIZED FREE ENERGY PREDICTED BY IDOCK:   -4.78 KCAL/MOL
REMARK 922        TOTAL FREE ENERGY PREDICTED BY IDOCK:   -7.59 KCAL/MOL
REMARK 923 INTER-LIGAND FREE ENERGY PREDICTED BY IDOCK:   -6.87 KCAL/MOL
REMARK 924 INTRA-LIGAND FREE ENERGY PREDICTED BY IDOCK:   -0.72 KCAL/MOL
REMARK 927      BINDING AFFINITY PREDICTED BY RF-SCORE:    0.00 PKD
ROOT
HETATM    1  C   UNL     1     -10.470  15.645  65.528  1.00  0.00    -0.426 C  
HETATM    2  C   UNL     1     -10.900  14.189  65.710  1.00  0.00    -0.297 C  
HETATM    3  C   UNL     1     -12.365  14.032  65.294  1.00  0.00    -0.480 C  
ENDROOT
BRANCH   2   4
HETATM    4  N   UNL     1     -10.011  13.343  64.908  1.00  0.00    -0.583 NA 
HETATM    5  H   UNL     1      -9.489  12.700  65.504  1.00  0.00     0.000 HD 
BRANCH   4   6
HETATM    6  C   UNL     1     -10.706  12.613  63.839  1.00  0.00    -0.431 C  
BRANCH   6   7
HETATM    7  C   UNL     1     -10.276  11.133  63.833  1.00  0.00    -0.362 C  
HETATM    8  H   UNL     1      -9.216   9.950  62.664  1.00  0.00     0.000 HD 
HETATM    9  O   UNL     1      -9.482  10.863  62.668  1.00  0.00    -0.299 OA 
BRANCH   7  10
HETATM   10  C   UNL     1      -9.482  10.784  65.098  1.00  0.00    -0.226 C  
BRANCH  10  11
HETATM   11  O   UNL     1     -10.050   9.618  65.712  1.00  0.00    -0.290 OA 
BRANCH  11  12
HETATM   12  C   UNL     1     -10.436   9.746  67.021  1.00  0.00    -0.227 A  
HETATM   13  C   UNL     1     -10.193   8.821  68.035  1.00  0.00    -0.264 A  
HETATM   14  C   UNL     1     -10.686   9.040  69.326  1.00  0.00    -0.189 A  
HETATM   15  C   UNL     1     -11.435  10.185  69.623  1.00  0.00    -0.256 A  
HETATM   16  C   UNL     1     -11.637  11.134  68.614  1.00  0.00    -0.383 A  
HETATM   17  C   UNL     1     -11.147  10.911  67.322  1.00  0.00    -0.350 A  
BRANCH  15  18
HETATM   18  C   UNL     1     -12.063  10.351  70.988  1.00  0.00    -0.488 C  
BRANCH  18  19
HETATM   19  C   UNL     1     -12.820   9.177  71.579  1.00  0.00    -0.347 C  
HETATM   20  N   UNL     1     -14.017   8.826  71.038  1.00  0.00    -0.587 N  
HETATM   21  O   UNL     1     -12.374   8.538  72.530  1.00  0.00    -0.388 OA 
HETATM   22  H2  UNL     1     -14.400   9.344  70.247  1.00  0.00     0.000 HD 
HETATM   23  H1  UNL     1     -14.526   8.036  71.436  1.00  0.00     0.000 HD 
ENDBRANCH  18  19
ENDBRANCH  15  18
ENDBRANCH  11  12
ENDBRANCH  10  11
ENDBRANCH   7  10
ENDBRANCH   6   7
ENDBRANCH   4   6
ENDBRANCH   2   4
TORSDOF 8
ENDMDL
MODEL       57
REMARK 921   NORMALIZED FREE ENERGY PREDICTED BY IDOCK:   -4.75 KCAL/MOL
REMARK 922        TOTAL FREE ENERGY PREDICTED BY IDOCK:   -7.55 KCAL/MOL
REMARK 923 INTER-LIGAND FREE ENERGY PREDICTED BY IDOCK:   -7.12 KCAL/MOL
REMARK 924 INTRA-LIGAND FREE ENERGY PREDICTED BY IDOCK:   -0.43 KCAL/MOL
REMARK 927      BINDING AFFINITY PREDICTED BY RF-SCORE:    0.00 PKD
ROOT
HETATM    1  C   UNL     1      -6.080  21.233  67.800  1.00  0.00    -0.402 C  
HETATM    2  C   UNL     1      -7.076  20.073  67.765  1.00  0.00    -0.281 C  
HETATM    3  C   UNL     1      -7.307  19.555  69.187  1.00  0.00    -0.364 C  
ENDROOT
BRANCH   2   4
HETATM    4  N   UNL     1      -8.318  20.549  67.149  1.00  0.00    -0.479 NA 
HETATM    5  H   UNL     1      -8.316  20.367  66.145  1.00  0.00     0.000 HD 
BRANCH   4   6
HETATM    6  C   UNL     1      -9.529  20.001  67.775  1.00  0.00    -0.367 C  
BRANCH   6   7
HETATM    7  C   UNL     1     -10.228  19.018  66.817  1.00  0.00    -0.396 C  
HETATM    8  H   UNL     1     -10.573  18.898  64.879  1.00  0.00     0.000 HD 
HETATM    9  O   UNL     1     -10.141  19.505  65.470  1.00  0.00    -0.378 OA 
BRANCH   7  10
HETATM   10  C   UNL     1      -9.603  17.620  66.908  1.00  0.00    -0.286 C  
BRANCH  10  11
HETATM   11  O   UNL     1     -10.612  16.628  66.669  1.00  0.00    -0.286 OA 
BRANCH  11  12
HETATM   12  C   UNL     1     -11.031  15.911  67.760  1.00  0.00    -0.315 A  
HETATM   13  C   UNL     1     -11.736  14.709  67.721  1.00  0.00    -0.386 A  
HETATM   14  C   UNL     1     -12.156  14.096  68.907  1.00  0.00    -0.339 A  
HETATM   15  C   UNL     1     -11.882  14.678  70.151  1.00  0.00    -0.365 A  
HETATM   16  C   UNL     1     -11.132  15.860  70.188  1.00  0.00    -0.369 A  
HETATM   17  C   UNL     1     -10.717  16.473  69.000  1.00  0.00    -0.332 A  
BRANCH  15  18
HETATM   18  C   UNL     1     -12.444  14.070  71.416  1.00  0.00    -0.438 C  
BRANCH  18  19
HETATM   19  C   UNL     1     -13.062  14.995  72.446  1.00  0.00    -0.372 C  
HETATM   20  N   UNL     1     -14.359  15.375  72.295  1.00  0.00    -0.551 N  
HETATM   21  O   UNL     1     -12.420  15.403  73.410  1.00  0.00    -0.408 OA 
HETATM   22  H2  UNL     1     -14.908  15.043  71.502  1.00  0.00     0.000 HD 
HETATM   23  H1  UNL     1     -14.775  15.998  72.988  1.00  0.00     0.000 HD 
ENDBRANCH  18  19
ENDBRANCH  15  18
ENDBRANCH  11  12
ENDBRANCH  10  11
ENDBRANCH   7  10
ENDBRANCH   6   7
ENDBRANCH   4   6
ENDBRANCH   2   4
TORSDOF 8
ENDMDL
MODEL       58
REMARK 921   NORMALIZED FREE ENERGY PREDICTED BY IDOCK:   -4.73 KCAL/MOL
REMARK 922        TOTAL FREE ENERGY PREDICTED BY IDOCK:   -7.51 KCAL/MOL
REMARK 923 INTER-LIGAND FREE ENERGY PREDICTED BY IDOCK:   -6.71 KCAL/MOL
REMARK 924 INTRA-LIGAND FREE ENERGY PREDICTED BY IDOCK:   -0.80 KCAL/MOL
REMARK 927      BINDING AFFINITY PREDICTED BY RF-SCORE:    0.00 PKD
ROOT
HETATM    1  C   UNL     1     -10.457   8.315  67.198  1.00  0.00    -0.386 C  
HETATM    2  C   UNL     1      -9.508   9.188  66.376  1.00  0.00    -0.227 C  
HETATM    3  C   UNL     1      -8.570   8.295  65.558  1.00  0.00    -0.183 C  
ENDROOT
BRANCH   2   4
HETATM    4  N   UNL     1     -10.313  10.063  65.518  1.00  0.00    -0.177 NA 
HETATM    5  H   UNL     1     -11.082  10.477  66.046  1.00  0.00     0.000 HD 
BRANCH   4   6
HETATM    6  C   UNL     1      -9.527  11.104  64.842  1.00  0.00    -0.219 C  
BRANCH   6   7
HETATM    7  C   UNL     1     -10.255  12.460  64.917  1.00  0.00    -0.278 C  
HETATM    8  H   UNL     1     -11.475  13.500  63.770  1.00  0.00     0.000 HD 
HETATM    9  O   UNL     1     -11.026  12.664  63.724  1.00  0.00    -0.398 OA 
BRANCH   7  10
HETATM   10  C   UNL     1     -11.169  12.527  66.148  1.00  0.00    -0.321 C  
BRANCH  10  11
HETATM   11  O   UNL     1     -10.371  12.477  67.339  1.00  0.00    -0.214 OA 
BRANCH  11  12
HETATM   12  C   UNL     1     -11.044  12.590  68.528  1.00  0.00    -0.262 A  
HETATM   13  C   UNL     1     -11.451  11.529  69.336  1.00  0.00    -0.376 A  
HETATM   14  C   UNL     1     -12.181  11.770  70.505  1.00  0.00    -0.438 A  
HETATM   15  C   UNL     1     -12.521  13.075  70.883  1.00  0.00    -0.396 A  
HETATM   16  C   UNL     1     -12.071  14.140  70.094  1.00  0.00    -0.411 A  
HETATM   17  C   UNL     1     -11.344  13.896  68.922  1.00  0.00    -0.319 A  
BRANCH  15  18
HETATM   18  C   UNL     1     -13.412  13.313  72.081  1.00  0.00    -0.655 C  
BRANCH  18  19
HETATM   19  C   UNL     1     -13.295  14.636  72.812  1.00  0.00    -0.499 C  
HETATM   20  N   UNL     1     -14.205  15.613  72.554  1.00  0.00    -0.515 N  
HETATM   21  O   UNL     1     -12.402  14.841  73.631  1.00  0.00    -0.430 OA 
HETATM   22  H2  UNL     1     -14.955  15.458  71.880  1.00  0.00     0.000 HD 
HETATM   23  H1  UNL     1     -14.127  16.504  73.046  1.00  0.00     0.000 HD 
ENDBRANCH  18  19
ENDBRANCH  15  18
ENDBRANCH  11  12
ENDBRANCH  10  11
ENDBRANCH   7  10
ENDBRANCH   6   7
ENDBRANCH   4   6
ENDBRANCH   2   4
TORSDOF 8
ENDMDL
MODEL       59
REMARK 921   NORMALIZED FREE ENERGY PREDICTED BY IDOCK:   -4.72 KCAL/MOL
REMARK 922        TOTAL FREE ENERGY PREDICTED BY IDOCK:   -7.50 KCAL/MOL
REMARK 923 INTER-LIGAND FREE ENERGY PREDICTED BY IDOCK:   -6.98 KCAL/MOL
REMARK 924 INTRA-LIGAND FREE ENERGY PREDICTED BY IDOCK:   -0.52 KCAL/MOL
REMARK 927      BINDING AFFINITY PREDICTED BY RF-SCORE:    0.00 PKD
ROOT
HETATM    1  C   UNL     1     -14.162   7.410  71.531  1.00  0.00    -0.571 C  
HETATM    2  C   UNL     1     -12.909   8.126  72.038  1.00  0.00    -0.318 C  
HETATM    3  C   UNL     1     -11.758   7.123  72.150  1.00  0.00    -0.322 C  
ENDROOT
BRANCH   2   4
HETATM    4  N   UNL     1     -12.595   9.217  71.111  1.00  0.00    -0.432 NA 
HETATM    5  H   UNL     1     -13.200  10.021  71.280  1.00  0.00     0.000 HD 
BRANCH   4   6
HETATM    6  C   UNL     1     -11.181   9.616  71.135  1.00  0.00    -0.384 C  
BRANCH   6   7
HETATM    7  C   UNL     1     -10.767  10.207  69.774  1.00  0.00    -0.279 C  
HETATM    8  H   UNL     1     -10.276   9.512  67.996  1.00  0.00     0.000 HD 
HETATM    9  O   UNL     1     -10.531   9.148  68.835  1.00  0.00    -0.218 OA 
BRANCH   7  10
HETATM   10  C   UNL     1     -11.846  11.154  69.232  1.00  0.00    -0.352 C  
BRANCH  10  11
HETATM   11  O   UNL     1     -11.897  11.051  67.802  1.00  0.00    -0.605 OA 
BRANCH  11  12
HETATM   12  C   UNL     1     -11.678  12.208  67.100  1.00  0.00    -0.302 A  
HETATM   13  C   UNL     1     -11.339  12.289  65.750  1.00  0.00    -0.400 A  
HETATM   14  C   UNL     1     -11.087  13.532  65.157  1.00  0.00    -0.326 A  
HETATM   15  C   UNL     1     -11.166  14.713  65.905  1.00  0.00    -0.336 A  
HETATM   16  C   UNL     1     -11.553  14.631  67.249  1.00  0.00    -0.404 A  
HETATM   17  C   UNL     1     -11.800  13.387  67.841  1.00  0.00    -0.392 A  
BRANCH  15  18
HETATM   18  C   UNL     1     -10.776  16.035  65.284  1.00  0.00    -0.417 C  
BRANCH  18  19
HETATM   19  C   UNL     1      -9.731  16.879  65.988  1.00  0.00    -0.233 C  
HETATM   20  N   UNL     1     -10.081  18.110  66.448  1.00  0.00    -0.373 N  
HETATM   21  O   UNL     1      -8.583  16.474  66.153  1.00  0.00    -0.314 OA 
HETATM   22  H2  UNL     1     -11.030  18.460  66.322  1.00  0.00     0.000 HD 
HETATM   23  H1  UNL     1      -9.377  18.678  66.921  1.00  0.00     0.000 HD 
ENDBRANCH  18  19
ENDBRANCH  15  18
ENDBRANCH  11  12
ENDBRANCH  10  11
ENDBRANCH   7  10
ENDBRANCH   6   7
ENDBRANCH   4   6
ENDBRANCH   2   4
TORSDOF 8
ENDMDL
MODEL       60
REMARK 921   NORMALIZED FREE ENERGY PREDICTED BY IDOCK:   -4.71 KCAL/MOL
REMARK 922        TOTAL FREE ENERGY PREDICTED BY IDOCK:   -7.49 KCAL/MOL
REMARK 923 INTER-LIGAND FREE ENERGY PREDICTED BY IDOCK:   -7.09 KCAL/MOL
REMARK 924 INTRA-LIGAND FREE ENERGY PREDICTED BY IDOCK:   -0.40 KCAL/MOL
REMARK 927      BINDING AFFINITY PREDICTED BY RF-SCORE:    0.00 PKD
ROOT
HETATM    1  C   UNL     1     -13.895  13.475  72.417  1.00  0.00    -0.687 C  
HETATM    2  C   UNL     1     -13.917  14.998  72.273  1.00  0.00    -0.509 C  
HETATM    3  C   UNL     1     -12.785  15.607  73.104  1.00  0.00    -0.599 C  
ENDROOT
BRANCH   2   4
HETATM    4  N   UNL     1     -13.788  15.327  70.850  1.00  0.00    -0.766 NA 
HETATM    5  H   UNL     1     -14.573  15.902  70.540  1.00  0.00     0.000 HD 
BRANCH   4   6
HETATM    6  C   UNL     1     -12.509  15.966  70.511  1.00  0.00    -0.203 C  
BRANCH   6   7
HETATM    7  C   UNL     1     -11.874  15.277  69.288  1.00  0.00    -0.329 C  
HETATM    8  H   UNL     1     -10.134  15.314  68.361  1.00  0.00     0.000 HD 
HETATM    9  O   UNL     1     -10.526  15.739  69.115  1.00  0.00    -0.213 OA 
BRANCH   7  10
HETATM   10  C   UNL     1     -11.887  13.751  69.445  1.00  0.00    -0.341 C  
BRANCH  10  11
HETATM   11  O   UNL     1     -11.982  13.139  68.151  1.00  0.00    -0.344 OA 
BRANCH  11  12
HETATM   12  C   UNL     1     -11.427  11.892  68.026  1.00  0.00    -0.323 A  
HETATM   13  C   UNL     1     -11.316  10.944  69.043  1.00  0.00    -0.348 A  
HETATM   14  C   UNL     1     -10.680   9.721  68.805  1.00  0.00    -0.243 A  
HETATM   15  C   UNL     1     -10.138   9.427  67.547  1.00  0.00    -0.268 A  
HETATM   16  C   UNL     1     -10.293  10.362  66.516  1.00  0.00    -0.287 A  
HETATM   17  C   UNL     1     -10.927  11.586  66.757  1.00  0.00    -0.347 A  
BRANCH  15  18
HETATM   18  C   UNL     1      -9.348   8.155  67.337  1.00  0.00    -0.171 C  
BRANCH  18  19
HETATM   19  C   UNL     1     -10.096   6.907  66.908  1.00  0.00    -0.218 C  
HETATM   20  N   UNL     1     -11.318   6.653  67.450  1.00  0.00    -0.763 N  
HETATM   21  O   UNL     1      -9.625   6.128  66.084  1.00  0.00    -0.131 OA 
HETATM   22  H2  UNL     1     -11.724   7.292  68.133  1.00  0.00     0.000 HD 
HETATM   23  H1  UNL     1     -11.820   5.814  67.161  1.00  0.00     0.000 HD 
ENDBRANCH  18  19
ENDBRANCH  15  18
ENDBRANCH  11  12
ENDBRANCH  10  11
ENDBRANCH   7  10
ENDBRANCH   6   7
ENDBRANCH   4   6
ENDBRANCH   2   4
TORSDOF 8
ENDMDL
MODEL       61
REMARK 921   NORMALIZED FREE ENERGY PREDICTED BY IDOCK:   -4.70 KCAL/MOL
REMARK 922        TOTAL FREE ENERGY PREDICTED BY IDOCK:   -7.48 KCAL/MOL
REMARK 923 INTER-LIGAND FREE ENERGY PREDICTED BY IDOCK:   -6.83 KCAL/MOL
REMARK 924 INTRA-LIGAND FREE ENERGY PREDICTED BY IDOCK:   -0.64 KCAL/MOL
REMARK 927      BINDING AFFINITY PREDICTED BY RF-SCORE:    0.00 PKD
ROOT
HETATM    1  C   UNL     1     -10.674  16.951  67.992  1.00  0.00    -0.364 C  
HETATM    2  C   UNL     1     -10.188  16.724  66.560  1.00  0.00    -0.316 C  
HETATM    3  C   UNL     1      -8.660  16.808  66.519  1.00  0.00    -0.312 C  
ENDROOT
BRANCH   2   4
HETATM    4  N   UNL     1     -10.676  15.417  66.109  1.00  0.00    -0.310 NA 
HETATM    5  H   UNL     1     -11.371  15.047  66.759  1.00  0.00     0.000 HD 
BRANCH   4   6
HETATM    6  C   UNL     1     -11.201  15.430  64.737  1.00  0.00    -0.395 C  
BRANCH   6   7
HETATM    7  C   UNL     1     -12.369  14.434  64.602  1.00  0.00    -0.418 C  
HETATM    8  H   UNL     1     -13.163  13.337  63.168  1.00  0.00     0.000 HD 
HETATM    9  O   UNL     1     -12.443  13.952  63.252  1.00  0.00    -0.817 OA 
BRANCH   7  10
HETATM   10  C   UNL     1     -12.204  13.254  65.569  1.00  0.00    -0.457 C  
BRANCH  10  11
HETATM   11  O   UNL     1     -10.894  12.691  65.416  1.00  0.00    -0.276 OA 
BRANCH  11  12
HETATM   12  C   UNL     1     -10.692  11.456  65.976  1.00  0.00    -0.263 A  
HETATM   13  C   UNL     1     -11.138  11.051  67.233  1.00  0.00    -0.359 A  
HETATM   14  C   UNL     1     -10.823   9.777  67.719  1.00  0.00    -0.306 A  
HETATM   15  C   UNL     1     -10.052   8.890  66.959  1.00  0.00    -0.331 A  
HETATM   16  C   UNL     1      -9.645   9.283  65.678  1.00  0.00    -0.324 A  
HETATM   17  C   UNL     1      -9.958  10.559  65.195  1.00  0.00    -0.375 A  
BRANCH  15  18
HETATM   18  C   UNL     1      -9.617   7.565  67.544  1.00  0.00    -0.175 C  
BRANCH  18  19
HETATM   19  C   UNL     1      -9.887   6.304  66.746  1.00  0.00    -0.164 C  
HETATM   20  N   UNL     1     -11.174   5.909  66.553  1.00  0.00    -0.741 N  
HETATM   21  O   UNL     1      -8.971   5.637  66.269  1.00  0.00    -0.131 OA 
HETATM   22  H2  UNL     1     -11.946   6.453  66.940  1.00  0.00     0.000 HD 
HETATM   23  H1  UNL     1     -11.355   5.061  66.017  1.00  0.00     0.000 HD 
ENDBRANCH  18  19
ENDBRANCH  15  18
ENDBRANCH  11  12
ENDBRANCH  10  11
ENDBRANCH   7  10
ENDBRANCH   6   7
ENDBRANCH   4   6
ENDBRANCH   2   4
TORSDOF 8
ENDMDL
MODEL       62
REMARK 921   NORMALIZED FREE ENERGY PREDICTED BY IDOCK:   -4.69 KCAL/MOL
REMARK 922        TOTAL FREE ENERGY PREDICTED BY IDOCK:   -7.46 KCAL/MOL
REMARK 923 INTER-LIGAND FREE ENERGY PREDICTED BY IDOCK:   -6.41 KCAL/MOL
REMARK 924 INTRA-LIGAND FREE ENERGY PREDICTED BY IDOCK:   -1.04 KCAL/MOL
REMARK 927      BINDING AFFINITY PREDICTED BY RF-SCORE:    0.00 PKD
ROOT
HETATM    1  C   UNL     1     -12.018  15.640  72.257  1.00  0.00    -0.562 C  
HETATM    2  C   UNL     1     -12.571  14.863  71.061  1.00  0.00    -0.336 C  
HETATM    3  C   UNL     1     -12.150  15.556  69.762  1.00  0.00    -0.372 C  
ENDROOT
BRANCH   2   4
HETATM    4  N   UNL     1     -12.070  13.488  71.132  1.00  0.00    -0.424 NA 
HETATM    5  H   UNL     1     -11.218  13.442  71.692  1.00  0.00     0.000 HD 
BRANCH   4   6
HETATM    6  C   UNL     1     -13.067  12.527  71.623  1.00  0.00    -0.315 C  
BRANCH   6   7
HETATM    7  C   UNL     1     -12.656  11.090  71.248  1.00  0.00    -0.412 C  
HETATM    8  H   UNL     1     -13.369   9.272  71.528  1.00  0.00     0.000 HD 
HETATM    9  O   UNL     1     -13.622  10.159  71.759  1.00  0.00    -0.309 OA 
BRANCH   7  10
HETATM   10  C   UNL     1     -12.532  10.930  69.727  1.00  0.00    -0.182 C  
BRANCH  10  11
HETATM   11  O   UNL     1     -11.147  10.822  69.370  1.00  0.00    -0.229 OA 
BRANCH  11  12
HETATM   12  C   UNL     1     -10.677  11.740  68.467  1.00  0.00    -0.220 A  
HETATM   13  C   UNL     1      -9.339  12.076  68.270  1.00  0.00    -0.197 A  
HETATM   14  C   UNL     1      -8.987  13.071  67.351  1.00  0.00    -0.204 A  
HETATM   15  C   UNL     1      -9.968  13.750  66.618  1.00  0.00    -0.279 A  
HETATM   16  C   UNL     1     -11.307  13.376  66.783  1.00  0.00    -0.353 A  
HETATM   17  C   UNL     1     -11.657  12.383  67.706  1.00  0.00    -0.413 A  
BRANCH  15  18
HETATM   18  C   UNL     1      -9.585  14.903  65.718  1.00  0.00    -0.311 C  
BRANCH  18  19
HETATM   19  C   UNL     1     -10.441  16.154  65.749  1.00  0.00    -0.367 C  
HETATM   20  N   UNL     1     -10.444  16.923  66.871  1.00  0.00    -0.300 N  
HETATM   21  O   UNL     1     -11.126  16.487  64.785  1.00  0.00    -0.624 OA 
HETATM   22  H2  UNL     1      -9.878  16.663  67.679  1.00  0.00     0.000 HD 
HETATM   23  H1  UNL     1     -11.020  17.765  66.891  1.00  0.00     0.000 HD 
ENDBRANCH  18  19
ENDBRANCH  15  18
ENDBRANCH  11  12
ENDBRANCH  10  11
ENDBRANCH   7  10
ENDBRANCH   6   7
ENDBRANCH   4   6
ENDBRANCH   2   4
TORSDOF 8
ENDMDL
MODEL       63
REMARK 921   NORMALIZED FREE ENERGY PREDICTED BY IDOCK:   -4.62 KCAL/MOL
REMARK 922        TOTAL FREE ENERGY PREDICTED BY IDOCK:   -7.35 KCAL/MOL
REMARK 923 INTER-LIGAND FREE ENERGY PREDICTED BY IDOCK:   -6.89 KCAL/MOL
REMARK 924 INTRA-LIGAND FREE ENERGY PREDICTED BY IDOCK:   -0.46 KCAL/MOL
REMARK 927      BINDING AFFINITY PREDICTED BY RF-SCORE:    0.00 PKD
ROOT
HETATM    1  C   UNL     1     -12.662  10.588  71.503  1.00  0.00    -0.558 C  
HETATM    2  C   UNL     1     -12.974  12.008  71.026  1.00  0.00    -0.084 C  
HETATM    3  C   UNL     1     -13.358  12.877  72.227  1.00  0.00    -0.597 C  
ENDROOT
BRANCH   2   4
HETATM    4  N   UNL     1     -11.795  12.530  70.329  1.00  0.00    -0.538 NA 
HETATM    5  H   UNL     1     -11.317  11.785  69.821  1.00  0.00     0.000 HD 
BRANCH   4   6
HETATM    6  C   UNL     1     -12.095  13.658  69.437  1.00  0.00    -0.314 C  
BRANCH   6   7
HETATM    7  C   UNL     1     -11.367  13.484  68.090  1.00  0.00    -0.286 C  
HETATM    8  H   UNL     1     -11.505  12.292  66.526  1.00  0.00     0.000 HD 
HETATM    9  O   UNL     1     -11.954  12.399  67.357  1.00  0.00    -0.498 OA 
BRANCH   7  10
HETATM   10  C   UNL     1     -11.432  14.771  67.258  1.00  0.00    -0.366 C  
BRANCH  10  11
HETATM   11  O   UNL     1     -11.541  15.902  68.135  1.00  0.00    -0.329 OA 
BRANCH  11  12
HETATM   12  C   UNL     1     -10.660  16.929  67.916  1.00  0.00    -0.361 A  
HETATM   13  C   UNL     1     -10.863  18.005  67.052  1.00  0.00    -0.134 A  
HETATM   14  C   UNL     1      -9.863  18.967  66.873  1.00  0.00    -0.385 A  
HETATM   15  C   UNL     1      -8.641  18.867  67.550  1.00  0.00    -0.296 A  
HETATM   16  C   UNL     1      -8.460  17.812  68.453  1.00  0.00    -0.295 A  
HETATM   17  C   UNL     1      -9.460  16.848  68.627  1.00  0.00    -0.268 A  
BRANCH  15  18
HETATM   18  C   UNL     1      -7.526  19.845  67.258  1.00  0.00    -0.297 C  
BRANCH  18  19
HETATM   19  C   UNL     1      -7.019  19.952  65.832  1.00  0.00    -0.288 C  
HETATM   20  N   UNL     1      -6.761  21.184  65.316  1.00  0.00    -0.500 N  
HETATM   21  O   UNL     1      -6.835  18.954  65.139  1.00  0.00    -0.496 OA 
HETATM   22  H2  UNL     1      -6.905  22.022  65.879  1.00  0.00     0.000 HD 
HETATM   23  H1  UNL     1      -6.420  21.255  64.358  1.00  0.00     0.000 HD 
ENDBRANCH  18  19
ENDBRANCH  15  18
ENDBRANCH  11  12
ENDBRANCH  10  11
ENDBRANCH   7  10
ENDBRANCH   6   7
ENDBRANCH   4   6
ENDBRANCH   2   4
TORSDOF 8
ENDMDL
MODEL       64
REMARK 921   NORMALIZED FREE ENERGY PREDICTED BY IDOCK:   -4.60 KCAL/MOL
REMARK 922        TOTAL FREE ENERGY PREDICTED BY IDOCK:   -7.33 KCAL/MOL
REMARK 923 INTER-LIGAND FREE ENERGY PREDICTED BY IDOCK:   -6.64 KCAL/MOL
REMARK 924 INTRA-LIGAND FREE ENERGY PREDICTED BY IDOCK:   -0.69 KCAL/MOL
REMARK 927      BINDING AFFINITY PREDICTED BY RF-SCORE:    0.00 PKD
ROOT
HETATM    1  C   UNL     1     -10.232  10.285  66.226  1.00  0.00    -0.287 C  
HETATM    2  C   UNL     1      -9.472  11.149  65.218  1.00  0.00    -0.226 C  
HETATM    3  C   UNL     1      -9.895  10.769  63.797  1.00  0.00    -0.396 C  
ENDROOT
BRANCH   2   4
HETATM    4  N   UNL     1      -9.754  12.557  65.514  1.00  0.00    -0.420 NA 
HETATM    5  H   UNL     1      -9.322  13.165  64.818  1.00  0.00     0.000 HD 
BRANCH   4   6
HETATM    6  C   UNL     1     -11.187  12.851  65.645  1.00  0.00    -0.295 C  
BRANCH   6   7
HETATM    7  C   UNL     1     -11.589  13.992  64.690  1.00  0.00    -0.392 C  
HETATM    8  H   UNL     1     -13.257  14.897  64.156  1.00  0.00     0.000 HD 
HETATM    9  O   UNL     1     -13.009  14.194  64.745  1.00  0.00    -0.674 OA 
BRANCH   7  10
HETATM   10  C   UNL     1     -10.863  15.294  65.049  1.00  0.00    -0.439 C  
BRANCH  10  11
HETATM   11  O   UNL     1     -10.688  15.367  66.472  1.00  0.00    -0.303 OA 
BRANCH  11  12
HETATM   12  C   UNL     1      -9.868  16.363  66.934  1.00  0.00    -0.261 A  
HETATM   13  C   UNL     1      -8.506  16.488  66.664  1.00  0.00    -0.299 A  
HETATM   14  C   UNL     1      -7.761  17.523  67.239  1.00  0.00    -0.221 A  
HETATM   15  C   UNL     1      -8.364  18.448  68.100  1.00  0.00    -0.301 A  
HETATM   16  C   UNL     1      -9.742  18.348  68.332  1.00  0.00    -0.379 A  
HETATM   17  C   UNL     1     -10.484  17.309  67.758  1.00  0.00    -0.371 A  
BRANCH  15  18
HETATM   18  C   UNL     1      -7.526  19.487  68.809  1.00  0.00    -0.387 C  
BRANCH  18  19
HETATM   19  C   UNL     1      -6.719  20.456  67.968  1.00  0.00    -0.301 C  
HETATM   20  N   UNL     1      -5.364  20.461  68.088  1.00  0.00    -0.209 N  
HETATM   21  O   UNL     1      -7.260  21.229  67.181  1.00  0.00    -0.475 OA 
HETATM   22  H2  UNL     1      -4.899  19.823  68.734  1.00  0.00     0.000 HD 
HETATM   23  H1  UNL     1      -4.821  21.113  67.522  1.00  0.00     0.000 HD 
ENDBRANCH  18  19
ENDBRANCH  15  18
ENDBRANCH  11  12
ENDBRANCH  10  11
ENDBRANCH   7  10
ENDBRANCH   6   7
ENDBRANCH   4   6
ENDBRANCH   2   4
TORSDOF 8
ENDMDL
MODEL       65
REMARK 921   NORMALIZED FREE ENERGY PREDICTED BY IDOCK:   -4.60 KCAL/MOL
REMARK 922        TOTAL FREE ENERGY PREDICTED BY IDOCK:   -7.32 KCAL/MOL
REMARK 923 INTER-LIGAND FREE ENERGY PREDICTED BY IDOCK:   -6.51 KCAL/MOL
REMARK 924 INTRA-LIGAND FREE ENERGY PREDICTED BY IDOCK:   -0.81 KCAL/MOL
REMARK 927      BINDING AFFINITY PREDICTED BY RF-SCORE:    0.00 PKD
ROOT
HETATM    1  C   UNL     1      -7.862  12.526  68.496  1.00  0.00    -0.108 C  
HETATM    2  C   UNL     1      -7.514  11.041  68.379  1.00  0.00    -0.100 C  
HETATM    3  C   UNL     1      -8.143  10.274  69.545  1.00  0.00    -0.170 C  
ENDROOT
BRANCH   2   4
HETATM    4  N   UNL     1      -7.997  10.555  67.083  1.00  0.00    -0.114 NA 
HETATM    5  H   UNL     1      -8.414   9.629  67.176  1.00  0.00     0.000 HD 
BRANCH   4   6
HETATM    6  C   UNL     1      -8.927  11.480  66.421  1.00  0.00    -0.197 C  
BRANCH   6   7
HETATM    7  C   UNL     1     -10.324  10.840  66.302  1.00  0.00    -0.244 C  
HETATM    8  H   UNL     1     -11.111   9.050  66.554  1.00  0.00     0.000 HD 
HETATM    9  O   UNL     1     -10.249   9.445  66.627  1.00  0.00    -0.252 OA 
BRANCH   7  10
HETATM   10  C   UNL     1     -11.332  11.538  67.225  1.00  0.00    -0.290 C  
BRANCH  10  11
HETATM   11  O   UNL     1     -11.437  10.808  68.455  1.00  0.00    -0.279 OA 
BRANCH  11  12
HETATM   12  C   UNL     1     -11.918  11.502  69.535  1.00  0.00    -0.335 A  
HETATM   13  C   UNL     1     -12.535  10.942  70.653  1.00  0.00    -0.460 A  
HETATM   14  C   UNL     1     -13.034  11.762  71.671  1.00  0.00    -0.467 A  
HETATM   15  C   UNL     1     -12.930  13.155  71.586  1.00  0.00    -0.429 A  
HETATM   16  C   UNL     1     -12.268  13.712  70.484  1.00  0.00    -0.438 A  
HETATM   17  C   UNL     1     -11.773  12.890  69.465  1.00  0.00    -0.387 A  
BRANCH  15  18
HETATM   18  C   UNL     1     -13.579  14.033  72.632  1.00  0.00    -0.623 C  
BRANCH  18  19
HETATM   19  C   UNL     1     -12.766  15.167  73.225  1.00  0.00    -0.512 C  
HETATM   20  N   UNL     1     -12.279  15.038  74.488  1.00  0.00    -0.655 N  
HETATM   21  O   UNL     1     -12.535  16.193  72.589  1.00  0.00    -0.451 OA 
HETATM   22  H2  UNL     1     -12.459  14.192  75.029  1.00  0.00     0.000 HD 
HETATM   23  H1  UNL     1     -11.732  15.802  74.887  1.00  0.00     0.000 HD 
ENDBRANCH  18  19
ENDBRANCH  15  18
ENDBRANCH  11  12
ENDBRANCH  10  11
ENDBRANCH   7  10
ENDBRANCH   6   7
ENDBRANCH   4   6
ENDBRANCH   2   4
TORSDOF 8
ENDMDL
MODEL       66
REMARK 921   NORMALIZED FREE ENERGY PREDICTED BY IDOCK:   -4.60 KCAL/MOL
REMARK 922        TOTAL FREE ENERGY PREDICTED BY IDOCK:   -7.32 KCAL/MOL
REMARK 923 INTER-LIGAND FREE ENERGY PREDICTED BY IDOCK:   -6.99 KCAL/MOL
REMARK 924 INTRA-LIGAND FREE ENERGY PREDICTED BY IDOCK:   -0.33 KCAL/MOL
REMARK 927      BINDING AFFINITY PREDICTED BY RF-SCORE:    0.00 PKD
ROOT
HETATM    1  C   UNL     1      -6.652  18.638  65.430  1.00  0.00    -0.270 C  
HETATM    2  C   UNL     1      -7.796  18.354  66.404  1.00  0.00    -0.263 C  
HETATM    3  C   UNL     1      -8.588  19.641  66.652  1.00  0.00    -0.380 C  
ENDROOT
BRANCH   2   4
HETATM    4  N   UNL     1      -8.636  17.298  65.832  1.00  0.00    -0.538 NA 
HETATM    5  H   UNL     1      -8.231  16.378  66.009  1.00  0.00     0.000 HD 
BRANCH   4   6
HETATM    6  C   UNL     1     -10.032  17.348  66.290  1.00  0.00    -0.297 C  
BRANCH   6   7
HETATM    7  C   UNL     1     -10.885  16.322  65.520  1.00  0.00    -0.245 C  
HETATM    8  H   UNL     1     -11.702  16.186  63.730  1.00  0.00     0.000 HD 
HETATM    9  O   UNL     1     -11.175  16.819  64.205  1.00  0.00    -1.163 OA 
BRANCH   7  10
HETATM   10  C   UNL     1     -10.167  14.970  65.420  1.00  0.00    -0.381 C  
BRANCH  10  11
HETATM   11  O   UNL     1     -11.070  13.987  64.893  1.00  0.00    -0.340 OA 
BRANCH  11  12
HETATM   12  C   UNL     1     -10.858  12.692  65.289  1.00  0.00    -0.288 A  
HETATM   13  C   UNL     1     -11.059  12.191  66.574  1.00  0.00    -0.352 A  
HETATM   14  C   UNL     1     -10.755  10.857  66.869  1.00  0.00    -0.318 A  
HETATM   15  C   UNL     1     -10.241  10.004  65.885  1.00  0.00    -0.275 A  
HETATM   16  C   UNL     1     -10.086  10.498  64.584  1.00  0.00    -0.408 A  
HETATM   17  C   UNL     1     -10.386  11.834  64.292  1.00  0.00    -0.359 A  
BRANCH  15  18
HETATM   18  C   UNL     1      -9.805   8.602  66.245  1.00  0.00    -0.320 C  
BRANCH  18  19
HETATM   19  C   UNL     1      -9.956   8.149  67.685  1.00  0.00    -0.185 C  
HETATM   20  N   UNL     1     -11.028   7.386  68.026  1.00  0.00    -0.473 N  
HETATM   21  O   UNL     1      -9.131   8.453  68.543  1.00  0.00    -0.136 OA 
HETATM   22  H2  UNL     1     -11.720   7.122  67.325  1.00  0.00     0.000 HD 
HETATM   23  H1  UNL     1     -11.129   7.081  68.995  1.00  0.00     0.000 HD 
ENDBRANCH  18  19
ENDBRANCH  15  18
ENDBRANCH  11  12
ENDBRANCH  10  11
ENDBRANCH   7  10
ENDBRANCH   6   7
ENDBRANCH   4   6
ENDBRANCH   2   4
TORSDOF 8
ENDMDL
MODEL       67
REMARK 921   NORMALIZED FREE ENERGY PREDICTED BY IDOCK:   -4.59 KCAL/MOL
REMARK 922        TOTAL FREE ENERGY PREDICTED BY IDOCK:   -7.31 KCAL/MOL
REMARK 923 INTER-LIGAND FREE ENERGY PREDICTED BY IDOCK:   -6.62 KCAL/MOL
REMARK 924 INTRA-LIGAND FREE ENERGY PREDICTED BY IDOCK:   -0.69 KCAL/MOL
REMARK 927      BINDING AFFINITY PREDICTED BY RF-SCORE:    0.00 PKD
ROOT
HETATM    1  C   UNL     1      -7.603   5.578  70.857  1.00  0.00    -0.090 C  
HETATM    2  C   UNL     1      -8.977   5.690  70.194  1.00  0.00    -0.138 C  
HETATM    3  C   UNL     1      -9.828   4.475  70.572  1.00  0.00    -0.297 C  
ENDROOT
BRANCH   2   4
HETATM    4  N   UNL     1      -9.596   6.946  70.625  1.00  0.00    -0.169 NA 
HETATM    5  H   UNL     1      -9.047   7.746  70.312  1.00  0.00     0.000 HD 
BRANCH   4   6
HETATM    6  C   UNL     1     -10.998   7.081  70.205  1.00  0.00    -0.271 C  
BRANCH   6   7
HETATM    7  C   UNL     1     -11.634   8.325  70.855  1.00  0.00    -0.262 C  
HETATM    8  H   UNL     1     -11.533   9.247  72.595  1.00  0.00     0.000 HD 
HETATM    9  O   UNL     1     -11.141   8.480  72.194  1.00  0.00    -0.321 OA 
BRANCH   7  10
HETATM   10  C   UNL     1     -11.335   9.589  70.039  1.00  0.00    -0.166 C  
BRANCH  10  11
HETATM   11  O   UNL     1     -10.405   9.273  68.993  1.00  0.00    -0.203 OA 
BRANCH  11  12
HETATM   12  C   UNL     1     -10.520   9.999  67.836  1.00  0.00    -0.231 A  
HETATM   13  C   UNL     1      -9.966   9.659  66.603  1.00  0.00    -0.301 A  
HETATM   14  C   UNL     1     -10.107  10.512  65.503  1.00  0.00    -0.349 A  
HETATM   15  C   UNL     1     -10.802  11.723  65.620  1.00  0.00    -0.342 A  
HETATM   16  C   UNL     1     -11.397  12.039  66.847  1.00  0.00    -0.400 A  
HETATM   17  C   UNL     1     -11.250  11.185  67.947  1.00  0.00    -0.365 A  
BRANCH  15  18
HETATM   18  C   UNL     1     -10.845  12.690  64.458  1.00  0.00    -0.365 C  
BRANCH  18  19
HETATM   19  C   UNL     1     -12.167  12.900  63.747  1.00  0.00    -0.476 C  
HETATM   20  N   UNL     1     -12.483  14.145  63.299  1.00  0.00    -1.098 N  
HETATM   21  O   UNL     1     -12.953  11.974  63.564  1.00  0.00    -0.774 OA 
HETATM   22  H2  UNL     1     -11.840  14.925  63.439  1.00  0.00     0.000 HD 
HETATM   23  H1  UNL     1     -13.373  14.286  62.820  1.00  0.00     0.000 HD 
ENDBRANCH  18  19
ENDBRANCH  15  18
ENDBRANCH  11  12
ENDBRANCH  10  11
ENDBRANCH   7  10
ENDBRANCH   6   7
ENDBRANCH   4   6
ENDBRANCH   2   4
TORSDOF 8
ENDMDL
MODEL       68
REMARK 921   NORMALIZED FREE ENERGY PREDICTED BY IDOCK:   -4.58 KCAL/MOL
REMARK 922        TOTAL FREE ENERGY PREDICTED BY IDOCK:   -7.29 KCAL/MOL
REMARK 923 INTER-LIGAND FREE ENERGY PREDICTED BY IDOCK:   -6.88 KCAL/MOL
REMARK 924 INTRA-LIGAND FREE ENERGY PREDICTED BY IDOCK:   -0.41 KCAL/MOL
REMARK 927      BINDING AFFINITY PREDICTED BY RF-SCORE:    0.00 PKD
ROOT
HETATM    1  C   UNL     1      -6.482  18.860  65.648  1.00  0.00    -0.301 C  
HETATM    2  C   UNL     1      -7.606  18.557  66.640  1.00  0.00    -0.238 C  
HETATM    3  C   UNL     1      -8.293  19.862  67.048  1.00  0.00    -0.364 C  
ENDROOT
BRANCH   2   4
HETATM    4  N   UNL     1      -8.541  17.622  66.006  1.00  0.00    -0.529 NA 
HETATM    5  H   UNL     1      -8.205  16.663  66.090  1.00  0.00     0.000 HD 
BRANCH   4   6
HETATM    6  C   UNL     1      -9.916  17.738  66.511  1.00  0.00    -0.346 C  
BRANCH   6   7
HETATM    7  C   UNL     1     -10.833  16.721  65.804  1.00  0.00    -0.087 C  
HETATM    8  H   UNL     1     -11.636  16.510  64.016  1.00  0.00     0.000 HD 
HETATM    9  O   UNL     1     -11.070  17.138  64.452  1.00  0.00    -1.100 OA 
BRANCH   7  10
HETATM   10  C   UNL     1     -10.213  15.317  65.817  1.00  0.00    -0.349 C  
BRANCH  10  11
HETATM   11  O   UNL     1     -11.256  14.335  65.732  1.00  0.00    -0.307 OA 
BRANCH  11  12
HETATM   12  C   UNL     1     -11.448  13.554  66.842  1.00  0.00    -0.344 A  
HETATM   13  C   UNL     1     -11.450  14.002  68.162  1.00  0.00    -0.341 A  
HETATM   14  C   UNL     1     -11.605  13.095  69.217  1.00  0.00    -0.370 A  
HETATM   15  C   UNL     1     -11.754  11.725  68.969  1.00  0.00    -0.390 A  
HETATM   16  C   UNL     1     -11.799  11.285  67.641  1.00  0.00    -0.102 A  
HETATM   17  C   UNL     1     -11.639  12.193  66.587  1.00  0.00    -0.416 A  
BRANCH  15  18
HETATM   18  C   UNL     1     -11.799  10.745  70.119  1.00  0.00    -0.427 C  
BRANCH  18  19
HETATM   19  C   UNL     1     -10.732   9.670  70.190  1.00  0.00    -0.275 C  
HETATM   20  N   UNL     1     -11.111   8.364  70.168  1.00  0.00    -0.357 N  
HETATM   21  O   UNL     1      -9.539   9.953  70.262  1.00  0.00    -0.239 OA 
HETATM   22  H2  UNL     1     -12.097   8.111  70.106  1.00  0.00     0.000 HD 
HETATM   23  H1  UNL     1     -10.392   7.641  70.216  1.00  0.00     0.000 HD 
ENDBRANCH  18  19
ENDBRANCH  15  18
ENDBRANCH  11  12
ENDBRANCH  10  11
ENDBRANCH   7  10
ENDBRANCH   6   7
ENDBRANCH   4   6
ENDBRANCH   2   4
TORSDOF 8
ENDMDL
MODEL       69
REMARK 921   NORMALIZED FREE ENERGY PREDICTED BY IDOCK:   -4.54 KCAL/MOL
REMARK 922        TOTAL FREE ENERGY PREDICTED BY IDOCK:   -7.23 KCAL/MOL
REMARK 923 INTER-LIGAND FREE ENERGY PREDICTED BY IDOCK:   -6.83 KCAL/MOL
REMARK 924 INTRA-LIGAND FREE ENERGY PREDICTED BY IDOCK:   -0.40 KCAL/MOL
REMARK 927      BINDING AFFINITY PREDICTED BY RF-SCORE:    0.00 PKD
ROOT
HETATM    1  C   UNL     1     -10.053   6.156  74.067  1.00  0.00    -0.282 C  
HETATM    2  C   UNL     1     -10.591   6.712  72.748  1.00  0.00    -0.232 C  
HETATM    3  C   UNL     1     -10.713   5.578  71.727  1.00  0.00    -0.289 C  
ENDROOT
BRANCH   2   4
HETATM    4  N   UNL     1     -11.883   7.353  73.010  1.00  0.00    -0.548 NA 
HETATM    5  H   UNL     1     -11.752   8.260  73.458  1.00  0.00     0.000 HD 
BRANCH   4   6
HETATM    6  C   UNL     1     -12.726   7.480  71.813  1.00  0.00    -0.331 C  
BRANCH   6   7
HETATM    7  C   UNL     1     -13.382   8.873  71.765  1.00  0.00    -0.386 C  
HETATM    8  H   UNL     1     -14.566   9.945  72.922  1.00  0.00     0.000 HD 
HETATM    9  O   UNL     1     -14.161   9.085  72.951  1.00  0.00    -0.528 OA 
BRANCH   7  10
HETATM   10  C   UNL     1     -12.324   9.976  71.631  1.00  0.00    -0.394 C  
BRANCH  10  11
HETATM   11  O   UNL     1     -12.956  11.260  71.746  1.00  0.00    -0.453 OA 
BRANCH  11  12
HETATM   12  C   UNL     1     -12.486  12.245  70.917  1.00  0.00    -0.276 A  
HETATM   13  C   UNL     1     -12.667  13.616  71.097  1.00  0.00    -0.432 A  
HETATM   14  C   UNL     1     -12.184  14.525  70.150  1.00  0.00    -0.399 A  
HETATM   15  C   UNL     1     -11.516  14.078  69.003  1.00  0.00    -0.337 A  
HETATM   16  C   UNL     1     -11.294  12.704  68.848  1.00  0.00    -0.345 A  
HETATM   17  C   UNL     1     -11.783  11.797  69.796  1.00  0.00    -0.408 A  
BRANCH  15  18
HETATM   18  C   UNL     1     -11.105  15.061  67.930  1.00  0.00    -0.310 C  
BRANCH  18  19
HETATM   19  C   UNL     1     -10.438  16.354  68.357  1.00  0.00    -0.298 C  
HETATM   20  N   UNL     1     -10.862  17.526  67.810  1.00  0.00    -0.326 N  
HETATM   21  O   UNL     1      -9.529  16.366  69.184  1.00  0.00    -0.258 OA 
HETATM   22  H2  UNL     1     -11.618  17.534  67.125  1.00  0.00     0.000 HD 
HETATM   23  H1  UNL     1     -10.413  18.395  68.098  1.00  0.00     0.000 HD 
ENDBRANCH  18  19
ENDBRANCH  15  18
ENDBRANCH  11  12
ENDBRANCH  10  11
ENDBRANCH   7  10
ENDBRANCH   6   7
ENDBRANCH   4   6
ENDBRANCH   2   4
TORSDOF 8
ENDMDL
MODEL       70
REMARK 921   NORMALIZED FREE ENERGY PREDICTED BY IDOCK:   -4.53 KCAL/MOL
REMARK 922        TOTAL FREE ENERGY PREDICTED BY IDOCK:   -7.22 KCAL/MOL
REMARK 923 INTER-LIGAND FREE ENERGY PREDICTED BY IDOCK:   -6.61 KCAL/MOL
REMARK 924 INTRA-LIGAND FREE ENERGY PREDICTED BY IDOCK:   -0.61 KCAL/MOL
REMARK 927      BINDING AFFINITY PREDICTED BY RF-SCORE:    0.00 PKD
ROOT
HETATM    1  C   UNL     1     -10.909  10.112  70.386  1.00  0.00    -0.365 C  
HETATM    2  C   UNL     1     -12.188  10.950  70.409  1.00  0.00    -0.365 C  
HETATM    3  C   UNL     1     -12.994  10.618  71.667  1.00  0.00    -0.582 C  
ENDROOT
BRANCH   2   4
HETATM    4  N   UNL     1     -11.812  12.367  70.361  1.00  0.00    -0.541 NA 
HETATM    5  H   UNL     1     -11.849  12.717  69.403  1.00  0.00     0.000 HD 
BRANCH   4   6
HETATM    6  C   UNL     1     -12.610  13.215  71.257  1.00  0.00    -0.290 C  
BRANCH   6   7
HETATM    7  C   UNL     1     -12.662  14.659  70.722  1.00  0.00    -0.359 C  
HETATM    8  H   UNL     1     -11.817  16.385  71.161  1.00  0.00     0.000 HD 
HETATM    9  O   UNL     1     -11.784  15.494  71.490  1.00  0.00    -0.332 OA 
BRANCH   7  10
HETATM   10  C   UNL     1     -12.270  14.713  69.240  1.00  0.00    -0.212 C  
BRANCH  10  11
HETATM   11  O   UNL     1     -10.863  14.972  69.127  1.00  0.00    -0.232 OA 
BRANCH  11  12
HETATM   12  C   UNL     1     -10.503  16.053  68.365  1.00  0.00    -0.263 A  
HETATM   13  C   UNL     1     -10.323  16.051  66.983  1.00  0.00    -0.292 A  
HETATM   14  C   UNL     1      -9.900  17.209  66.322  1.00  0.00    -0.306 A  
HETATM   15  C   UNL     1      -9.645  18.388  67.033  1.00  0.00    -0.301 A  
HETATM   16  C   UNL     1      -9.872  18.400  68.415  1.00  0.00    -0.396 A  
HETATM   17  C   UNL     1     -10.291  17.239  69.074  1.00  0.00    -0.330 A  
BRANCH  15  18
HETATM   18  C   UNL     1      -9.075  19.596  66.325  1.00  0.00    -0.429 C  
BRANCH  18  19
HETATM   19  C   UNL     1      -7.574  19.811  66.365  1.00  0.00    -0.295 C  
HETATM   20  N   UNL     1      -7.090  21.081  66.318  1.00  0.00    -0.524 N  
HETATM   21  O   UNL     1      -6.792  18.867  66.442  1.00  0.00    -0.196 OA 
HETATM   22  H2  UNL     1      -7.726  21.876  66.256  1.00  0.00     0.000 HD 
HETATM   23  H1  UNL     1      -6.080  21.225  66.345  1.00  0.00     0.000 HD 
ENDBRANCH  18  19
ENDBRANCH  15  18
ENDBRANCH  11  12
ENDBRANCH  10  11
ENDBRANCH   7  10
ENDBRANCH   6   7
ENDBRANCH   4   6
ENDBRANCH   2   4
TORSDOF 8
ENDMDL
MODEL       71
REMARK 921   NORMALIZED FREE ENERGY PREDICTED BY IDOCK:   -4.52 KCAL/MOL
REMARK 922        TOTAL FREE ENERGY PREDICTED BY IDOCK:   -7.21 KCAL/MOL
REMARK 923 INTER-LIGAND FREE ENERGY PREDICTED BY IDOCK:   -6.78 KCAL/MOL
REMARK 924 INTRA-LIGAND FREE ENERGY PREDICTED BY IDOCK:   -0.43 KCAL/MOL
REMARK 927      BINDING AFFINITY PREDICTED BY RF-SCORE:    0.00 PKD
ROOT
HETATM    1  C   UNL     1      -8.818   7.696  74.248  1.00  0.00    -0.234 C  
HETATM    2  C   UNL     1      -9.610   7.144  73.062  1.00  0.00    -0.163 C  
HETATM    3  C   UNL     1      -9.321   5.648  72.906  1.00  0.00    -0.144 C  
ENDROOT
BRANCH   2   4
HETATM    4  N   UNL     1     -11.034   7.403  73.297  1.00  0.00    -0.526 NA 
HETATM    5  H   UNL     1     -11.191   8.388  73.511  1.00  0.00     0.000 HD 
BRANCH   4   6
HETATM    6  C   UNL     1     -11.898   6.966  72.192  1.00  0.00    -0.281 C  
BRANCH   6   7
HETATM    7  C   UNL     1     -12.610   8.176  71.558  1.00  0.00    -0.304 C  
HETATM    8  H   UNL     1     -13.616   9.747  72.195  1.00  0.00     0.000 HD 
HETATM    9  O   UNL     1     -13.177   9.001  72.586  1.00  0.00    -0.443 OA 
BRANCH   7  10
HETATM   10  C   UNL     1     -11.640   9.001  70.702  1.00  0.00    -0.224 C  
BRANCH  10  11
HETATM   11  O   UNL     1     -11.703  10.378  71.103  1.00  0.00    -0.352 OA 
BRANCH  11  12
HETATM   12  C   UNL     1     -11.783  11.302  70.093  1.00  0.00    -0.343 A  
HETATM   13  C   UNL     1     -11.596  11.044  68.736  1.00  0.00    -0.386 A  
HETATM   14  C   UNL     1     -11.652  12.085  67.803  1.00  0.00    -0.400 A  
HETATM   15  C   UNL     1     -11.891  13.403  68.212  1.00  0.00    -0.393 A  
HETATM   16  C   UNL     1     -12.126  13.651  69.571  1.00  0.00    -0.368 A  
HETATM   17  C   UNL     1     -12.065  12.608  70.502  1.00  0.00    -0.360 A  
BRANCH  15  18
HETATM   18  C   UNL     1     -11.829  14.534  67.211  1.00  0.00    -0.419 C  
BRANCH  18  19
HETATM   19  C   UNL     1     -11.709  14.186  65.740  1.00  0.00    -0.359 C  
HETATM   20  N   UNL     1     -12.843  13.979  65.018  1.00  0.00    -0.732 N  
HETATM   21  O   UNL     1     -10.615  14.092  65.189  1.00  0.00    -0.348 OA 
HETATM   22  H2  UNL     1     -13.759  14.056  65.459  1.00  0.00     0.000 HD 
HETATM   23  H1  UNL     1     -12.762  13.745  64.028  1.00  0.00     0.000 HD 
ENDBRANCH  18  19
ENDBRANCH  15  18
ENDBRANCH  11  12
ENDBRANCH  10  11
ENDBRANCH   7  10
ENDBRANCH   6   7
ENDBRANCH   4   6
ENDBRANCH   2   4
TORSDOF 8
ENDMDL
MODEL       72
REMARK 921   NORMALIZED FREE ENERGY PREDICTED BY IDOCK:   -4.51 KCAL/MOL
REMARK 922        TOTAL FREE ENERGY PREDICTED BY IDOCK:   -7.19 KCAL/MOL
REMARK 923 INTER-LIGAND FREE ENERGY PREDICTED BY IDOCK:   -6.73 KCAL/MOL
REMARK 924 INTRA-LIGAND FREE ENERGY PREDICTED BY IDOCK:   -0.46 KCAL/MOL
REMARK 927      BINDING AFFINITY PREDICTED BY RF-SCORE:    0.00 PKD
ROOT
HETATM    1  C   UNL     1      -6.239  21.068  68.014  1.00  0.00    -0.386 C  
HETATM    2  C   UNL     1      -6.217  19.755  68.798  1.00  0.00    -0.267 C  
HETATM    3  C   UNL     1      -6.195  20.057  70.299  1.00  0.00    -0.386 C  
ENDROOT
BRANCH   2   4
HETATM    4  N   UNL     1      -7.395  18.971  68.417  1.00  0.00    -0.282 NA 
HETATM    5  H   UNL     1      -7.690  18.365  69.183  1.00  0.00     0.000 HD 
BRANCH   4   6
HETATM    6  C   UNL     1      -8.517  19.793  67.942  1.00  0.00    -0.307 C  
BRANCH   6   7
HETATM    7  C   UNL     1      -9.084  19.218  66.630  1.00  0.00    -0.338 C  
HETATM    8  H   UNL     1      -8.706  19.394  64.703  1.00  0.00     0.000 HD 
HETATM    9  O   UNL     1      -8.357  19.749  65.512  1.00  0.00    -0.315 OA 
BRANCH   7  10
HETATM   10  C   UNL     1      -9.011  17.686  66.621  1.00  0.00    -0.265 C  
BRANCH  10  11
HETATM   11  O   UNL     1      -9.959  17.168  65.675  1.00  0.00    -0.558 OA 
BRANCH  11  12
HETATM   12  C   UNL     1     -10.105  15.806  65.644  1.00  0.00    -0.371 A  
HETATM   13  C   UNL     1     -11.014  15.103  64.855  1.00  0.00    -0.434 A  
HETATM   14  C   UNL     1     -11.106  13.710  64.950  1.00  0.00    -0.356 A  
HETATM   15  C   UNL     1     -10.294  12.997  65.841  1.00  0.00    -0.296 A  
HETATM   16  C   UNL     1      -9.349  13.702  66.598  1.00  0.00    -0.265 A  
HETATM   17  C   UNL     1      -9.263  15.096  66.503  1.00  0.00    -0.318 A  
BRANCH  15  18
HETATM   18  C   UNL     1     -10.486  11.508  66.022  1.00  0.00    -0.298 C  
BRANCH  18  19
HETATM   19  C   UNL     1     -11.256  11.025  67.236  1.00  0.00    -0.258 C  
HETATM   20  N   UNL     1     -11.081   9.744  67.659  1.00  0.00    -0.455 N  
HETATM   21  O   UNL     1     -12.027  11.764  67.844  1.00  0.00    -0.575 OA 
HETATM   22  H2  UNL     1     -10.442   9.119  67.167  1.00  0.00     0.000 HD 
HETATM   23  H1  UNL     1     -11.599   9.419  68.476  1.00  0.00     0.000 HD 
ENDBRANCH  18  19
ENDBRANCH  15  18
ENDBRANCH  11  12
ENDBRANCH  10  11
ENDBRANCH   7  10
ENDBRANCH   6   7
ENDBRANCH   4   6
ENDBRANCH   2   4
TORSDOF 8
ENDMDL
MODEL       73
REMARK 921   NORMALIZED FREE ENERGY PREDICTED BY IDOCK:   -4.51 KCAL/MOL
REMARK 922        TOTAL FREE ENERGY PREDICTED BY IDOCK:   -7.18 KCAL/MOL
REMARK 923 INTER-LIGAND FREE ENERGY PREDICTED BY IDOCK:   -6.35 KCAL/MOL
REMARK 924 INTRA-LIGAND FREE ENERGY PREDICTED BY IDOCK:   -0.83 KCAL/MOL
REMARK 927      BINDING AFFINITY PREDICTED BY RF-SCORE:    0.00 PKD
ROOT
HETATM    1  C   UNL     1     -11.263  10.531  69.848  1.00  0.00    -0.374 C  
HETATM    2  C   UNL     1     -12.450  11.259  70.482  1.00  0.00    -0.310 C  
HETATM    3  C   UNL     1     -12.891  10.515  71.745  1.00  0.00    -0.559 C  
ENDROOT
BRANCH   2   4
HETATM    4  N   UNL     1     -12.044  12.637  70.773  1.00  0.00    -0.484 NA 
HETATM    5  H   UNL     1     -11.843  13.144  69.911  1.00  0.00     0.000 HD 
BRANCH   4   6
HETATM    6  C   UNL     1     -13.015  13.372  71.595  1.00  0.00    -0.355 C  
BRANCH   6   7
HETATM    7  C   UNL     1     -13.266  14.772  71.004  1.00  0.00    -0.380 C  
HETATM    8  H   UNL     1     -14.188  16.423  71.563  1.00  0.00     0.000 HD 
HETATM    9  O   UNL     1     -14.033  15.559  71.927  1.00  0.00    -0.483 OA 
BRANCH   7  10
HETATM   10  C   UNL     1     -11.944  15.482  70.687  1.00  0.00    -0.378 C  
BRANCH  10  11
HETATM   11  O   UNL     1     -11.887  15.781  69.284  1.00  0.00    -0.365 OA 
BRANCH  11  12
HETATM   12  C   UNL     1     -11.286  14.842  68.486  1.00  0.00    -0.298 A  
HETATM   13  C   UNL     1      -9.955  14.437  68.567  1.00  0.00    -0.237 A  
HETATM   14  C   UNL     1      -9.442  13.505  67.657  1.00  0.00    -0.222 A  
HETATM   15  C   UNL     1     -10.251  12.968  66.648  1.00  0.00    -0.257 A  
HETATM   16  C   UNL     1     -11.600  13.342  66.600  1.00  0.00    -0.408 A  
HETATM   17  C   UNL     1     -12.109  14.277  67.508  1.00  0.00    -0.347 A  
BRANCH  15  18
HETATM   18  C   UNL     1      -9.655  12.055  65.600  1.00  0.00    -0.205 C  
BRANCH  18  19
HETATM   19  C   UNL     1      -8.773  10.911  66.060  1.00  0.00    -0.186 C  
HETATM   20  N   UNL     1      -7.436  10.973  65.819  1.00  0.00    -0.360 N  
HETATM   21  O   UNL     1      -9.238   9.937  66.647  1.00  0.00    -0.148 OA 
HETATM   22  H2  UNL     1      -7.033  11.776  65.336  1.00  0.00     0.000 HD 
HETATM   23  H1  UNL     1      -6.842  10.203  66.128  1.00  0.00     0.000 HD 
ENDBRANCH  18  19
ENDBRANCH  15  18
ENDBRANCH  11  12
ENDBRANCH  10  11
ENDBRANCH   7  10
ENDBRANCH   6   7
ENDBRANCH   4   6
ENDBRANCH   2   4
TORSDOF 8
ENDMDL
MODEL       74
REMARK 921   NORMALIZED FREE ENERGY PREDICTED BY IDOCK:   -4.49 KCAL/MOL
REMARK 922        TOTAL FREE ENERGY PREDICTED BY IDOCK:   -7.16 KCAL/MOL
REMARK 923 INTER-LIGAND FREE ENERGY PREDICTED BY IDOCK:   -6.23 KCAL/MOL
REMARK 924 INTRA-LIGAND FREE ENERGY PREDICTED BY IDOCK:   -0.93 KCAL/MOL
REMARK 927      BINDING AFFINITY PREDICTED BY RF-SCORE:    0.00 PKD
ROOT
HETATM    1  C   UNL     1      -8.738  14.839  67.998  1.00  0.00    -0.168 C  
HETATM    2  C   UNL     1      -9.341  15.878  68.945  1.00  0.00    -0.233 C  
HETATM    3  C   UNL     1     -10.427  16.670  68.211  1.00  0.00    -0.321 C  
ENDROOT
BRANCH   2   4
HETATM    4  N   UNL     1      -9.874  15.178  70.117  1.00  0.00    -0.483 NA 
HETATM    5  H   UNL     1      -9.143  15.027  70.811  1.00  0.00     0.000 HD 
BRANCH   4   6
HETATM    6  C   UNL     1     -11.034  15.848  70.721  1.00  0.00    -0.241 C  
BRANCH   6   7
HETATM    7  C   UNL     1     -11.858  14.847  71.554  1.00  0.00    -0.361 C  
HETATM    8  H   UNL     1     -13.174  14.937  73.019  1.00  0.00     0.000 HD 
HETATM    9  O   UNL     1     -12.666  15.554  72.505  1.00  0.00    -0.345 OA 
BRANCH   7  10
HETATM   10  C   UNL     1     -12.748  13.980  70.654  1.00  0.00    -0.303 C  
BRANCH  10  11
HETATM   11  O   UNL     1     -12.139  12.693  70.477  1.00  0.00    -0.363 OA 
BRANCH  11  12
HETATM   12  C   UNL     1     -11.859  12.323  69.188  1.00  0.00    -0.301 A  
HETATM   13  C   UNL     1     -11.419  11.065  68.778  1.00  0.00    -0.372 A  
HETATM   14  C   UNL     1     -11.114  10.825  67.434  1.00  0.00    -0.363 A  
HETATM   15  C   UNL     1     -11.238  11.839  66.478  1.00  0.00    -0.380 A  
HETATM   16  C   UNL     1     -11.726  13.088  66.884  1.00  0.00    -0.441 A  
HETATM   17  C   UNL     1     -12.026  13.327  68.230  1.00  0.00    -0.338 A  
BRANCH  15  18
HETATM   18  C   UNL     1     -10.792  11.602  65.053  1.00  0.00    -0.346 C  
BRANCH  18  19
HETATM   19  C   UNL     1      -9.609  10.683  64.814  1.00  0.00    -0.280 C  
HETATM   20  N   UNL     1      -9.738   9.661  63.925  1.00  0.00    -0.417 N  
HETATM   21  O   UNL     1      -8.542  10.844  65.400  1.00  0.00    -0.176 OA 
HETATM   22  H2  UNL     1     -10.617   9.515  63.428  1.00  0.00     0.000 HD 
HETATM   23  H1  UNL     1      -8.943   9.043  63.764  1.00  0.00     0.000 HD 
ENDBRANCH  18  19
ENDBRANCH  15  18
ENDBRANCH  11  12
ENDBRANCH  10  11
ENDBRANCH   7  10
ENDBRANCH   6   7
ENDBRANCH   4   6
ENDBRANCH   2   4
TORSDOF 8
ENDMDL
MODEL       75
REMARK 921   NORMALIZED FREE ENERGY PREDICTED BY IDOCK:   -4.48 KCAL/MOL
REMARK 922        TOTAL FREE ENERGY PREDICTED BY IDOCK:   -7.14 KCAL/MOL
REMARK 923 INTER-LIGAND FREE ENERGY PREDICTED BY IDOCK:   -6.47 KCAL/MOL
REMARK 924 INTRA-LIGAND FREE ENERGY PREDICTED BY IDOCK:   -0.68 KCAL/MOL
REMARK 927      BINDING AFFINITY PREDICTED BY RF-SCORE:    0.00 PKD
ROOT
HETATM    1  C   UNL     1      -8.425   5.632  71.860  1.00  0.00    -0.127 C  
HETATM    2  C   UNL     1      -8.160   6.969  71.166  1.00  0.00    -0.105 C  
HETATM    3  C   UNL     1      -6.797   6.923  70.470  1.00  0.00    -0.058 C  
ENDROOT
BRANCH   2   4
HETATM    4  N   UNL     1      -9.249   7.220  70.218  1.00  0.00    -0.155 NA 
HETATM    5  H   UNL     1      -9.301   8.211  69.981  1.00  0.00     0.000 HD 
BRANCH   4   6
HETATM    6  C   UNL     1      -9.168   6.398  69.002  1.00  0.00    -0.129 C  
BRANCH   6   7
HETATM    7  C   UNL     1     -10.558   6.264  68.352  1.00  0.00    -0.260 C  
HETATM    8  H   UNL     1     -12.436   6.315  68.952  1.00  0.00     0.000 HD 
HETATM    9  O   UNL     1     -11.578   6.398  69.353  1.00  0.00    -0.382 OA 
BRANCH   7  10
HETATM   10  C   UNL     1     -10.760   7.320  67.257  1.00  0.00    -0.321 C  
BRANCH  10  11
HETATM   11  O   UNL     1      -9.898   8.439  67.509  1.00  0.00    -0.159 OA 
BRANCH  11  12
HETATM   12  C   UNL     1     -10.062   9.529  66.695  1.00  0.00    -0.252 A  
HETATM   13  C   UNL     1     -10.666  10.733  67.057  1.00  0.00    -0.320 A  
HETATM   14  C   UNL     1     -10.823  11.757  66.117  1.00  0.00    -0.336 A  
HETATM   15  C   UNL     1     -10.385  11.593  64.797  1.00  0.00    -0.331 A  
HETATM   16  C   UNL     1      -9.737  10.401  64.449  1.00  0.00    -0.396 A  
HETATM   17  C   UNL     1      -9.584   9.376  65.390  1.00  0.00    -0.296 A  
BRANCH  15  18
HETATM   18  C   UNL     1     -10.668  12.659  63.763  1.00  0.00    -0.454 C  
BRANCH  18  19
HETATM   19  C   UNL     1     -12.114  13.003  63.462  1.00  0.00    -0.542 C  
HETATM   20  N   UNL     1     -12.456  14.306  63.277  1.00  0.00    -1.068 N  
HETATM   21  O   UNL     1     -12.978  12.133  63.380  1.00  0.00    -0.776 OA 
HETATM   22  H2  UNL     1     -11.750  15.040  63.338  1.00  0.00     0.000 HD 
HETATM   23  H1  UNL     1     -13.429  14.537  63.075  1.00  0.00     0.000 HD 
ENDBRANCH  18  19
ENDBRANCH  15  18
ENDBRANCH  11  12
ENDBRANCH  10  11
ENDBRANCH   7  10
ENDBRANCH   6   7
ENDBRANCH   4   6
ENDBRANCH   2   4
TORSDOF 8
ENDMDL
MODEL       76
REMARK 921   NORMALIZED FREE ENERGY PREDICTED BY IDOCK:   -4.46 KCAL/MOL
REMARK 922        TOTAL FREE ENERGY PREDICTED BY IDOCK:   -7.11 KCAL/MOL
REMARK 923 INTER-LIGAND FREE ENERGY PREDICTED BY IDOCK:   -6.17 KCAL/MOL
REMARK 924 INTRA-LIGAND FREE ENERGY PREDICTED BY IDOCK:   -0.94 KCAL/MOL
REMARK 927      BINDING AFFINITY PREDICTED BY RF-SCORE:    0.00 PKD
ROOT
HETATM    1  C   UNL     1     -11.009  15.233  67.775  1.00  0.00    -0.312 C  
HETATM    2  C   UNL     1     -11.171  15.181  66.255  1.00  0.00    -0.273 C  
HETATM    3  C   UNL     1      -9.799  15.003  65.600  1.00  0.00    -0.380 C  
ENDROOT
BRANCH   2   4
HETATM    4  N   UNL     1     -12.080  14.078  65.927  1.00  0.00    -0.405 NA 
HETATM    5  H   UNL     1     -13.036  14.303  66.204  1.00  0.00     0.000 HD 
BRANCH   4   6
HETATM    6  C   UNL     1     -12.028  13.679  64.514  1.00  0.00    -0.418 C  
BRANCH   6   7
HETATM    7  C   UNL     1     -12.302  12.169  64.373  1.00  0.00    -0.330 C  
HETATM    8  H   UNL     1     -13.278  10.996  63.125  1.00  0.00     0.000 HD 
HETATM    9  O   UNL     1     -13.109  11.927  63.212  1.00  0.00    -0.674 OA 
BRANCH   7  10
HETATM   10  C   UNL     1     -10.992  11.377  64.273  1.00  0.00    -0.321 C  
BRANCH  10  11
HETATM   11  O   UNL     1     -10.161  11.685  65.402  1.00  0.00    -0.239 OA 
BRANCH  11  12
HETATM   12  C   UNL     1     -10.370  10.941  66.533  1.00  0.00    -0.247 A  
HETATM   13  C   UNL     1     -10.693  11.446  67.792  1.00  0.00    -0.254 A  
HETATM   14  C   UNL     1     -10.831  10.586  68.887  1.00  0.00    -0.275 A  
HETATM   15  C   UNL     1     -10.643   9.206  68.743  1.00  0.00    -0.208 A  
HETATM   16  C   UNL     1     -10.365   8.697  67.468  1.00  0.00    -0.336 A  
HETATM   17  C   UNL     1     -10.224   9.560  66.375  1.00  0.00    -0.302 A  
BRANCH  15  18
HETATM   18  C   UNL     1     -10.676   8.303  69.955  1.00  0.00    -0.234 C  
BRANCH  18  19
HETATM   19  C   UNL     1     -10.630   8.942  71.329  1.00  0.00    -0.281 C  
HETATM   20  N   UNL     1     -11.796   9.318  71.920  1.00  0.00    -0.370 N  
HETATM   21  O   UNL     1      -9.567   9.122  71.919  1.00  0.00    -0.310 OA 
HETATM   22  H2  UNL     1     -12.687   9.172  71.445  1.00  0.00     0.000 HD 
HETATM   23  H1  UNL     1     -11.765   9.747  72.845  1.00  0.00     0.000 HD 
ENDBRANCH  18  19
ENDBRANCH  15  18
ENDBRANCH  11  12
ENDBRANCH  10  11
ENDBRANCH   7  10
ENDBRANCH   6   7
ENDBRANCH   4   6
ENDBRANCH   2   4
TORSDOF 8
ENDMDL
MODEL       77
REMARK 921   NORMALIZED FREE ENERGY PREDICTED BY IDOCK:   -4.43 KCAL/MOL
REMARK 922        TOTAL FREE ENERGY PREDICTED BY IDOCK:   -7.07 KCAL/MOL
REMARK 923 INTER-LIGAND FREE ENERGY PREDICTED BY IDOCK:   -6.45 KCAL/MOL
REMARK 924 INTRA-LIGAND FREE ENERGY PREDICTED BY IDOCK:   -0.62 KCAL/MOL
REMARK 927      BINDING AFFINITY PREDICTED BY RF-SCORE:    0.00 PKD
ROOT
HETATM    1  C   UNL     1     -11.223   6.166  71.651  1.00  0.00    -0.342 C  
HETATM    2  C   UNL     1     -12.018   7.334  71.066  1.00  0.00    -0.327 C  
HETATM    3  C   UNL     1     -12.034   8.494  72.065  1.00  0.00    -0.427 C  
ENDROOT
BRANCH   2   4
HETATM    4  N   UNL     1     -11.402   7.719  69.792  1.00  0.00    -0.453 NA 
HETATM    5  H   UNL     1     -11.418   8.732  69.674  1.00  0.00     0.000 HD 
BRANCH   4   6
HETATM    6  C   UNL     1     -10.040   7.195  69.619  1.00  0.00    -0.192 C  
BRANCH   6   7
HETATM    7  C   UNL     1      -9.667   7.155  68.125  1.00  0.00    -0.139 C  
HETATM    8  H   UNL     1      -9.643   5.807  66.686  1.00  0.00     0.000 HD 
HETATM    9  O   UNL     1      -9.873   5.832  67.608  1.00  0.00    -0.114 OA 
BRANCH   7  10
HETATM   10  C   UNL     1     -10.497   8.165  67.321  1.00  0.00    -0.309 C  
BRANCH  10  11
HETATM   11  O   UNL     1      -9.966   9.483  67.518  1.00  0.00    -0.166 OA 
BRANCH  11  12
HETATM   12  C   UNL     1     -10.550  10.489  66.793  1.00  0.00    -0.222 A  
HETATM   13  C   UNL     1     -10.474  10.645  65.409  1.00  0.00    -0.254 A  
HETATM   14  C   UNL     1     -11.070  11.747  64.787  1.00  0.00    -0.356 A  
HETATM   15  C   UNL     1     -11.748  12.715  65.538  1.00  0.00    -0.446 A  
HETATM   16  C   UNL     1     -11.863  12.531  66.922  1.00  0.00    -0.404 A  
HETATM   17  C   UNL     1     -11.262  11.429  67.542  1.00  0.00    -0.356 A  
BRANCH  15  18
HETATM   18  C   UNL     1     -12.283  13.961  64.870  1.00  0.00    -0.445 C  
BRANCH  18  19
HETATM   19  C   UNL     1     -11.369  15.166  64.757  1.00  0.00    -0.395 C  
HETATM   20  N   UNL     1     -11.727  16.189  63.935  1.00  0.00    -0.767 N  
HETATM   21  O   UNL     1     -10.321  15.238  65.393  1.00  0.00    -0.340 OA 
HETATM   22  H2  UNL     1     -12.596  16.146  63.403  1.00  0.00     0.000 HD 
HETATM   23  H1  UNL     1     -11.112  16.999  63.860  1.00  0.00     0.000 HD 
ENDBRANCH  18  19
ENDBRANCH  15  18
ENDBRANCH  11  12
ENDBRANCH  10  11
ENDBRANCH   7  10
ENDBRANCH   6   7
ENDBRANCH   4   6
ENDBRANCH   2   4
TORSDOF 8
ENDMDL
MODEL       78
REMARK 921   NORMALIZED FREE ENERGY PREDICTED BY IDOCK:   -4.42 KCAL/MOL
REMARK 922        TOTAL FREE ENERGY PREDICTED BY IDOCK:   -7.05 KCAL/MOL
REMARK 923 INTER-LIGAND FREE ENERGY PREDICTED BY IDOCK:   -6.44 KCAL/MOL
REMARK 924 INTRA-LIGAND FREE ENERGY PREDICTED BY IDOCK:   -0.61 KCAL/MOL
REMARK 927      BINDING AFFINITY PREDICTED BY RF-SCORE:    0.00 PKD
ROOT
HETATM    1  C   UNL     1      -9.430  18.899  68.992  1.00  0.00    -0.291 C  
HETATM    2  C   UNL     1     -10.284  19.779  68.078  1.00  0.00    -0.451 C  
HETATM    3  C   UNL     1      -9.384  20.764  67.328  1.00  0.00    -0.418 C  
ENDROOT
BRANCH   2   4
HETATM    4  N   UNL     1     -11.025  18.908  67.160  1.00  0.00    -0.336 NA 
HETATM    5  H   UNL     1     -11.023  19.294  66.216  1.00  0.00     0.000 HD 
BRANCH   4   6
HETATM    6  C   UNL     1     -10.545  17.519  67.157  1.00  0.00    -0.264 C  
BRANCH   6   7
HETATM    7  C   UNL     1     -10.112  17.106  65.737  1.00  0.00    -0.172 C  
HETATM    8  H   UNL     1      -8.444  16.539  64.851  1.00  0.00     0.000 HD 
HETATM    9  O   UNL     1      -8.711  16.794  65.727  1.00  0.00    -0.496 OA 
BRANCH   7  10
HETATM   10  C   UNL     1     -10.919  15.898  65.243  1.00  0.00    -0.324 C  
BRANCH  10  11
HETATM   11  O   UNL     1     -10.053  14.760  65.130  1.00  0.00    -0.372 OA 
BRANCH  11  12
HETATM   12  C   UNL     1     -10.300  13.719  65.988  1.00  0.00    -0.308 A  
HETATM   13  C   UNL     1     -11.318  12.777  65.853  1.00  0.00    -0.363 A  
HETATM   14  C   UNL     1     -11.502  11.789  66.827  1.00  0.00    -0.352 A  
HETATM   15  C   UNL     1     -10.675  11.731  67.955  1.00  0.00    -0.241 A  
HETATM   16  C   UNL     1      -9.624  12.650  68.063  1.00  0.00    -0.213 A  
HETATM   17  C   UNL     1      -9.444  13.640  67.090  1.00  0.00    -0.244 A  
BRANCH  15  18
HETATM   18  C   UNL     1     -10.959  10.736  69.057  1.00  0.00    -0.289 C  
BRANCH  18  19
HETATM   19  C   UNL     1     -12.076  11.046  70.035  1.00  0.00    -0.364 C  
HETATM   20  N   UNL     1     -12.937  10.053  70.387  1.00  0.00    -0.585 N  
HETATM   21  O   UNL     1     -12.216  12.167  70.516  1.00  0.00    -0.356 OA 
HETATM   22  H2  UNL     1     -12.832   9.115  69.999  1.00  0.00     0.000 HD 
HETATM   23  H1  UNL     1     -13.688  10.261  71.045  1.00  0.00     0.000 HD 
ENDBRANCH  18  19
ENDBRANCH  15  18
ENDBRANCH  11  12
ENDBRANCH  10  11
ENDBRANCH   7  10
ENDBRANCH   6   7
ENDBRANCH   4   6
ENDBRANCH   2   4
TORSDOF 8
ENDMDL
MODEL       79
REMARK 921   NORMALIZED FREE ENERGY PREDICTED BY IDOCK:   -4.41 KCAL/MOL
REMARK 922        TOTAL FREE ENERGY PREDICTED BY IDOCK:   -7.05 KCAL/MOL
REMARK 923 INTER-LIGAND FREE ENERGY PREDICTED BY IDOCK:   -6.33 KCAL/MOL
REMARK 924 INTRA-LIGAND FREE ENERGY PREDICTED BY IDOCK:   -0.71 KCAL/MOL
REMARK 927      BINDING AFFINITY PREDICTED BY RF-SCORE:    0.00 PKD
ROOT
HETATM    1  C   UNL     1     -11.167   7.394  72.523  1.00  0.00    -0.363 C  
HETATM    2  C   UNL     1     -12.120   7.950  71.464  1.00  0.00    -0.306 C  
HETATM    3  C   UNL     1     -12.961   9.076  72.073  1.00  0.00    -0.470 C  
ENDROOT
BRANCH   2   4
HETATM    4  N   UNL     1     -11.323   8.419  70.327  1.00  0.00    -0.427 NA 
HETATM    5  H   UNL     1     -10.548   9.002  70.644  1.00  0.00     0.000 HD 
BRANCH   4   6
HETATM    6  C   UNL     1     -10.837   7.332  69.466  1.00  0.00    -0.209 C  
BRANCH   6   7
HETATM    7  C   UNL     1     -10.208   7.906  68.182  1.00  0.00    -0.205 C  
HETATM    8  H   UNL     1     -10.580   7.843  66.247  1.00  0.00     0.000 HD 
HETATM    9  O   UNL     1     -10.968   7.489  67.039  1.00  0.00    -0.306 OA 
BRANCH   7  10
HETATM   10  C   UNL     1     -10.144   9.438  68.236  1.00  0.00    -0.183 C  
BRANCH  10  11
HETATM   11  O   UNL     1     -11.441   9.980  67.949  1.00  0.00    -0.210 OA 
BRANCH  11  12
HETATM   12  C   UNL     1     -11.597  11.326  68.156  1.00  0.00    -0.289 A  
HETATM   13  C   UNL     1     -11.492  12.318  67.182  1.00  0.00    -0.419 A  
HETATM   14  C   UNL     1     -11.620  13.667  67.528  1.00  0.00    -0.384 A  
HETATM   15  C   UNL     1     -11.851  14.048  68.855  1.00  0.00    -0.390 A  
HETATM   16  C   UNL     1     -12.004  13.048  69.823  1.00  0.00    -0.377 A  
HETATM   17  C   UNL     1     -11.870  11.698  69.475  1.00  0.00    -0.414 A  
BRANCH  15  18
HETATM   18  C   UNL     1     -11.868  15.512  69.236  1.00  0.00    -0.372 C  
BRANCH  18  19
HETATM   19  C   UNL     1     -10.544  16.199  69.507  1.00  0.00    -0.306 C  
HETATM   20  N   UNL     1      -9.502  15.461  69.976  1.00  0.00    -0.372 N  
HETATM   21  O   UNL     1     -10.393  17.403  69.309  1.00  0.00    -0.334 OA 
HETATM   22  H2  UNL     1      -9.610  14.461  70.142  1.00  0.00     0.000 HD 
HETATM   23  H1  UNL     1      -8.612  15.924  70.158  1.00  0.00     0.000 HD 
ENDBRANCH  18  19
ENDBRANCH  15  18
ENDBRANCH  11  12
ENDBRANCH  10  11
ENDBRANCH   7  10
ENDBRANCH   6   7
ENDBRANCH   4   6
ENDBRANCH   2   4
TORSDOF 8
ENDMDL
MODEL       80
REMARK 921   NORMALIZED FREE ENERGY PREDICTED BY IDOCK:   -4.41 KCAL/MOL
REMARK 922        TOTAL FREE ENERGY PREDICTED BY IDOCK:   -7.04 KCAL/MOL
REMARK 923 INTER-LIGAND FREE ENERGY PREDICTED BY IDOCK:   -6.41 KCAL/MOL
REMARK 924 INTRA-LIGAND FREE ENERGY PREDICTED BY IDOCK:   -0.63 KCAL/MOL
REMARK 927      BINDING AFFINITY PREDICTED BY RF-SCORE:    0.00 PKD
ROOT
HETATM    1  C   UNL     1      -9.377   4.402  69.720  1.00  0.00    -0.224 C  
HETATM    2  C   UNL     1     -10.428   5.400  70.207  1.00  0.00    -0.285 C  
HETATM    3  C   UNL     1     -10.632   5.233  71.715  1.00  0.00    -0.268 C  
ENDROOT
BRANCH   2   4
HETATM    4  N   UNL     1      -9.974   6.751  69.864  1.00  0.00    -0.171 NA 
HETATM    5  H   UNL     1     -10.582   7.168  69.158  1.00  0.00     0.000 HD 
BRANCH   4   6
HETATM    6  C   UNL     1      -9.845   7.638  71.028  1.00  0.00    -0.174 C  
BRANCH   6   7
HETATM    7  C   UNL     1      -9.375   9.038  70.586  1.00  0.00    -0.234 C  
HETATM    8  H   UNL     1      -8.027   9.777  69.351  1.00  0.00     0.000 HD 
HETATM    9  O   UNL     1      -8.317   8.914  69.624  1.00  0.00    -0.115 OA 
BRANCH   7  10
HETATM   10  C   UNL     1     -10.533   9.845  69.986  1.00  0.00    -0.284 C  
BRANCH  10  11
HETATM   11  O   UNL     1     -10.742   9.441  68.625  1.00  0.00    -0.213 OA 
BRANCH  11  12
HETATM   12  C   UNL     1     -10.799  10.446  67.694  1.00  0.00    -0.306 A  
HETATM   13  C   UNL     1     -11.657  11.544  67.733  1.00  0.00    -0.338 A  
HETATM   14  C   UNL     1     -11.658  12.479  66.692  1.00  0.00    -0.442 A  
HETATM   15  C   UNL     1     -10.806  12.328  65.591  1.00  0.00    -0.321 A  
HETATM   16  C   UNL     1      -9.913  11.249  65.578  1.00  0.00    -0.293 A  
HETATM   17  C   UNL     1      -9.917  10.313  66.619  1.00  0.00    -0.270 A  
BRANCH  15  18
HETATM   18  C   UNL     1     -10.902  13.277  64.419  1.00  0.00    -0.422 C  
BRANCH  18  19
HETATM   19  C   UNL     1     -11.946  13.001  63.354  1.00  0.00    -0.520 C  
HETATM   20  N   UNL     1     -12.178  11.715  62.977  1.00  0.00    -0.951 N  
HETATM   21  O   UNL     1     -12.585  13.910  62.830  1.00  0.00    -0.580 OA 
HETATM   22  H2  UNL     1     -11.658  10.948  63.404  1.00  0.00     0.000 HD 
HETATM   23  H1  UNL     1     -12.880  11.530  62.260  1.00  0.00     0.000 HD 
ENDBRANCH  18  19
ENDBRANCH  15  18
ENDBRANCH  11  12
ENDBRANCH  10  11
ENDBRANCH   7  10
ENDBRANCH   6   7
ENDBRANCH   4   6
ENDBRANCH   2   4
TORSDOF 8
ENDMDL
MODEL       81
REMARK 921   NORMALIZED FREE ENERGY PREDICTED BY IDOCK:   -4.40 KCAL/MOL
REMARK 922        TOTAL FREE ENERGY PREDICTED BY IDOCK:   -7.03 KCAL/MOL
REMARK 923 INTER-LIGAND FREE ENERGY PREDICTED BY IDOCK:   -6.60 KCAL/MOL
REMARK 924 INTRA-LIGAND FREE ENERGY PREDICTED BY IDOCK:   -0.43 KCAL/MOL
REMARK 927      BINDING AFFINITY PREDICTED BY RF-SCORE:    0.00 PKD
ROOT
HETATM    1  C   UNL     1     -10.780  19.170  67.243  1.00  0.00    -0.585 C  
HETATM    2  C   UNL     1      -9.794  18.272  67.991  1.00  0.00    -0.330 C  
HETATM    3  C   UNL     1      -8.601  19.106  68.465  1.00  0.00    -0.398 C  
ENDROOT
BRANCH   2   4
HETATM    4  N   UNL     1     -10.501  17.644  69.111  1.00  0.00    -0.405 NA 
HETATM    5  H   UNL     1     -11.107  18.317  69.579  1.00  0.00     0.000 HD 
BRANCH   4   6
HETATM    6  C   UNL     1     -11.255  16.443  68.727  1.00  0.00    -0.313 C  
BRANCH   6   7
HETATM    7  C   UNL     1     -11.234  15.409  69.870  1.00  0.00    -0.299 C  
HETATM    8  H   UNL     1     -11.287  15.445  71.840  1.00  0.00     0.000 HD 
HETATM    9  O   UNL     1     -11.300  16.082  71.135  1.00  0.00    -0.387 OA 
BRANCH   7  10
HETATM   10  C   UNL     1     -12.402  14.422  69.742  1.00  0.00    -0.285 C  
BRANCH  10  11
HETATM   11  O   UNL     1     -12.075  13.419  68.769  1.00  0.00    -0.337 OA 
BRANCH  11  12
HETATM   12  C   UNL     1     -11.680  12.202  69.259  1.00  0.00    -0.328 A  
HETATM   13  C   UNL     1     -10.783  11.329  68.645  1.00  0.00    -0.241 A  
HETATM   14  C   UNL     1     -10.499  10.086  69.219  1.00  0.00    -0.245 A  
HETATM   15  C   UNL     1     -11.110   9.691  70.416  1.00  0.00    -0.346 A  
HETATM   16  C   UNL     1     -11.974  10.590  71.055  1.00  0.00    -0.466 A  
HETATM   17  C   UNL     1     -12.261  11.831  70.475  1.00  0.00    -0.438 A  
BRANCH  15  18
HETATM   18  C   UNL     1     -10.887   8.300  70.962  1.00  0.00    -0.269 C  
BRANCH  18  19
HETATM   19  C   UNL     1     -10.464   8.156  72.411  1.00  0.00    -0.319 C  
HETATM   20  N   UNL     1      -9.184   8.462  72.757  1.00  0.00    -0.263 N  
HETATM   21  O   UNL     1     -11.250   7.774  73.275  1.00  0.00    -0.350 OA 
HETATM   22  H2  UNL     1      -8.520   8.784  72.053  1.00  0.00     0.000 HD 
HETATM   23  H1  UNL     1      -8.900   8.365  73.732  1.00  0.00     0.000 HD 
ENDBRANCH  18  19
ENDBRANCH  15  18
ENDBRANCH  11  12
ENDBRANCH  10  11
ENDBRANCH   7  10
ENDBRANCH   6   7
ENDBRANCH   4   6
ENDBRANCH   2   4
TORSDOF 8
ENDMDL
MODEL       82
REMARK 921   NORMALIZED FREE ENERGY PREDICTED BY IDOCK:   -4.40 KCAL/MOL
REMARK 922        TOTAL FREE ENERGY PREDICTED BY IDOCK:   -7.03 KCAL/MOL
REMARK 923 INTER-LIGAND FREE ENERGY PREDICTED BY IDOCK:   -6.80 KCAL/MOL
REMARK 924 INTRA-LIGAND FREE ENERGY PREDICTED BY IDOCK:   -0.22 KCAL/MOL
REMARK 927      BINDING AFFINITY PREDICTED BY RF-SCORE:    0.00 PKD
ROOT
HETATM    1  C   UNL     1     -10.524  16.636  65.627  1.00  0.00    -0.313 C  
HETATM    2  C   UNL     1     -10.088  16.272  67.047  1.00  0.00    -0.270 C  
HETATM    3  C   UNL     1     -10.296  17.475  67.970  1.00  0.00    -0.368 C  
ENDROOT
BRANCH   2   4
HETATM    4  N   UNL     1     -10.864  15.107  67.483  1.00  0.00    -0.293 NA 
HETATM    5  H   UNL     1     -11.835  15.366  67.662  1.00  0.00     0.000 HD 
BRANCH   4   6
HETATM    6  C   UNL     1     -10.792  13.974  66.551  1.00  0.00    -0.300 C  
BRANCH   6   7
HETATM    7  C   UNL     1     -11.949  12.991  66.812  1.00  0.00    -0.369 C  
HETATM    8  H   UNL     1     -13.089  11.796  65.735  1.00  0.00     0.000 HD 
HETATM    9  O   UNL     1     -12.375  12.402  65.575  1.00  0.00    -0.621 OA 
BRANCH   7  10
HETATM   10  C   UNL     1     -11.530  11.892  67.796  1.00  0.00    -0.319 C  
BRANCH  10  11
HETATM   11  O   UNL     1     -12.135  12.138  69.074  1.00  0.00    -0.267 OA 
BRANCH  11  12
HETATM   12  C   UNL     1     -12.102  11.104  69.973  1.00  0.00    -0.359 A  
HETATM   13  C   UNL     1     -12.908  10.982  71.104  1.00  0.00    -0.491 A  
HETATM   14  C   UNL     1     -12.744   9.902  71.978  1.00  0.00    -0.456 A  
HETATM   15  C   UNL     1     -11.766   8.929  71.739  1.00  0.00    -0.432 A  
HETATM   16  C   UNL     1     -10.990   9.029  70.577  1.00  0.00    -0.295 A  
HETATM   17  C   UNL     1     -11.154  10.112  69.707  1.00  0.00    -0.328 A  
BRANCH  15  18
HETATM   18  C   UNL     1     -11.518   7.834  72.752  1.00  0.00    -0.415 C  
BRANCH  18  19
HETATM   19  C   UNL     1     -11.488   6.398  72.267  1.00  0.00    -0.298 C  
HETATM   20  N   UNL     1     -12.428   5.529  72.725  1.00  0.00    -0.382 N  
HETATM   21  O   UNL     1     -10.639   6.007  71.469  1.00  0.00    -0.226 OA 
HETATM   22  H2  UNL     1     -13.142   5.838  73.385  1.00  0.00     0.000 HD 
HETATM   23  H1  UNL     1     -12.408   4.562  72.398  1.00  0.00     0.000 HD 
ENDBRANCH  18  19
ENDBRANCH  15  18
ENDBRANCH  11  12
ENDBRANCH  10  11
ENDBRANCH   7  10
ENDBRANCH   6   7
ENDBRANCH   4   6
ENDBRANCH   2   4
TORSDOF 8
ENDMDL
MODEL       83
REMARK 921   NORMALIZED FREE ENERGY PREDICTED BY IDOCK:   -4.39 KCAL/MOL
REMARK 922        TOTAL FREE ENERGY PREDICTED BY IDOCK:   -7.02 KCAL/MOL
REMARK 923 INTER-LIGAND FREE ENERGY PREDICTED BY IDOCK:   -6.26 KCAL/MOL
REMARK 924 INTRA-LIGAND FREE ENERGY PREDICTED BY IDOCK:   -0.76 KCAL/MOL
REMARK 927      BINDING AFFINITY PREDICTED BY RF-SCORE:    0.00 PKD
ROOT
HETATM    1  C   UNL     1      -8.627  15.964  66.353  1.00  0.00    -0.364 C  
HETATM    2  C   UNL     1      -8.498  15.027  67.555  1.00  0.00    -0.174 C  
HETATM    3  C   UNL     1      -8.820  15.796  68.840  1.00  0.00    -0.220 C  
ENDROOT
BRANCH   2   4
HETATM    4  N   UNL     1      -9.407  13.894  67.355  1.00  0.00    -0.219 NA 
HETATM    5  H   UNL     1      -9.901  13.671  68.219  1.00  0.00     0.000 HD 
BRANCH   4   6
HETATM    6  C   UNL     1     -10.354  14.091  66.249  1.00  0.00    -0.293 C  
BRANCH   6   7
HETATM    7  C   UNL     1     -11.803  14.053  66.772  1.00  0.00    -0.424 C  
HETATM    8  H   UNL     1     -13.552  13.425  66.112  1.00  0.00     0.000 HD 
HETATM    9  O   UNL     1     -12.658  13.448  65.790  1.00  0.00    -0.446 OA 
BRANCH   7  10
HETATM   10  C   UNL     1     -11.893  13.276  68.092  1.00  0.00    -0.353 C  
BRANCH  10  11
HETATM   11  O   UNL     1     -11.874  11.868  67.820  1.00  0.00    -0.518 OA 
BRANCH  11  12
HETATM   12  C   UNL     1     -11.525  11.050  68.863  1.00  0.00    -0.296 A  
HETATM   13  C   UNL     1     -10.517  10.088  68.841  1.00  0.00    -0.229 A  
HETATM   14  C   UNL     1     -10.289   9.275  69.958  1.00  0.00    -0.245 A  
HETATM   15  C   UNL     1     -11.070   9.408  71.113  1.00  0.00    -0.432 A  
HETATM   16  C   UNL     1     -12.050  10.408  71.148  1.00  0.00    -0.487 A  
HETATM   17  C   UNL     1     -12.278  11.217  70.029  1.00  0.00    -0.402 A  
BRANCH  15  18
HETATM   18  C   UNL     1     -10.894   8.446  72.265  1.00  0.00    -0.422 C  
BRANCH  18  19
HETATM   19  C   UNL     1      -9.507   7.895  72.537  1.00  0.00    -0.201 C  
HETATM   20  N   UNL     1      -9.245   6.594  72.240  1.00  0.00    -0.138 N  
HETATM   21  O   UNL     1      -8.620   8.598  73.015  1.00  0.00    -0.395 OA 
HETATM   22  H2  UNL     1      -9.970   5.998  71.840  1.00  0.00     0.000 HD 
HETATM   23  H1  UNL     1      -8.312   6.224  72.423  1.00  0.00     0.000 HD 
ENDBRANCH  18  19
ENDBRANCH  15  18
ENDBRANCH  11  12
ENDBRANCH  10  11
ENDBRANCH   7  10
ENDBRANCH   6   7
ENDBRANCH   4   6
ENDBRANCH   2   4
TORSDOF 8
ENDMDL
MODEL       84
REMARK 921   NORMALIZED FREE ENERGY PREDICTED BY IDOCK:   -4.38 KCAL/MOL
REMARK 922        TOTAL FREE ENERGY PREDICTED BY IDOCK:   -6.99 KCAL/MOL
REMARK 923 INTER-LIGAND FREE ENERGY PREDICTED BY IDOCK:   -6.19 KCAL/MOL
REMARK 924 INTRA-LIGAND FREE ENERGY PREDICTED BY IDOCK:   -0.80 KCAL/MOL
REMARK 927      BINDING AFFINITY PREDICTED BY RF-SCORE:    0.00 PKD
ROOT
HETATM    1  C   UNL     1     -10.376  10.887  64.192  1.00  0.00    -0.432 C  
HETATM    2  C   UNL     1     -10.922  12.102  63.441  1.00  0.00    -0.412 C  
HETATM    3  C   UNL     1     -12.451  12.100  63.508  1.00  0.00    -0.666 C  
ENDROOT
BRANCH   2   4
HETATM    4  N   UNL     1     -10.350  13.310  64.042  1.00  0.00    -0.690 NA 
HETATM    5  H   UNL     1      -9.629  13.707  63.439  1.00  0.00     0.000 HD 
BRANCH   4   6
HETATM    6  C   UNL     1     -11.356  14.324  64.387  1.00  0.00    -0.273 C  
BRANCH   6   7
HETATM    7  C   UNL     1     -11.212  14.740  65.864  1.00  0.00    -0.340 C  
HETATM    8  H   UNL     1     -12.326  14.676  67.489  1.00  0.00     0.000 HD 
HETATM    9  O   UNL     1     -12.415  14.419  66.578  1.00  0.00    -0.376 OA 
BRANCH   7  10
HETATM   10  C   UNL     1     -10.013  14.044  66.520  1.00  0.00    -0.284 C  
BRANCH  10  11
HETATM   11  O   UNL     1     -10.345  13.693  67.871  1.00  0.00    -0.239 OA 
BRANCH  11  12
HETATM   12  C   UNL     1     -10.358  12.355  68.167  1.00  0.00    -0.226 A  
HETATM   13  C   UNL     1     -11.317  11.702  68.939  1.00  0.00    -0.328 A  
HETATM   14  C   UNL     1     -11.192  10.336  69.217  1.00  0.00    -0.281 A  
HETATM   15  C   UNL     1     -10.103   9.602  68.732  1.00  0.00    -0.193 A  
HETATM   16  C   UNL     1      -9.166  10.251  67.918  1.00  0.00    -0.143 A  
HETATM   17  C   UNL     1      -9.291  11.618  67.645  1.00  0.00    -0.178 A  
BRANCH  15  18
HETATM   18  C   UNL     1      -9.916   8.158  69.138  1.00  0.00    -0.192 C  
BRANCH  18  19
HETATM   19  C   UNL     1     -10.706   7.095  68.399  1.00  0.00    -0.147 C  
HETATM   20  N   UNL     1     -11.281   7.412  67.208  1.00  0.00    -0.493 N  
HETATM   21  O   UNL     1     -10.833   5.959  68.850  1.00  0.00    -0.296 OA 
HETATM   22  H2  UNL     1     -11.183   8.349  66.818  1.00  0.00     0.000 HD 
HETATM   23  H1  UNL     1     -11.813   6.696  66.711  1.00  0.00     0.000 HD 
ENDBRANCH  18  19
ENDBRANCH  15  18
ENDBRANCH  11  12
ENDBRANCH  10  11
ENDBRANCH   7  10
ENDBRANCH   6   7
ENDBRANCH   4   6
ENDBRANCH   2   4
TORSDOF 8
ENDMDL
MODEL       85
REMARK 921   NORMALIZED FREE ENERGY PREDICTED BY IDOCK:   -4.36 KCAL/MOL
REMARK 922        TOTAL FREE ENERGY PREDICTED BY IDOCK:   -6.97 KCAL/MOL
REMARK 923 INTER-LIGAND FREE ENERGY PREDICTED BY IDOCK:   -6.49 KCAL/MOL
REMARK 924 INTRA-LIGAND FREE ENERGY PREDICTED BY IDOCK:   -0.49 KCAL/MOL
REMARK 927      BINDING AFFINITY PREDICTED BY RF-SCORE:    0.00 PKD
ROOT
HETATM    1  C   UNL     1      -7.524  19.536  66.171  1.00  0.00    -0.303 C  
HETATM    2  C   UNL     1      -6.782  18.738  67.244  1.00  0.00    -0.202 C  
HETATM    3  C   UNL     1      -5.626  19.575  67.797  1.00  0.00    -0.197 C  
ENDROOT
BRANCH   2   4
HETATM    4  N   UNL     1      -7.740  18.372  68.292  1.00  0.00    -0.283 NA 
HETATM    5  H   UNL     1      -7.257  18.147  69.161  1.00  0.00     0.000 HD 
BRANCH   4   6
HETATM    6  C   UNL     1      -8.774  19.391  68.520  1.00  0.00    -0.367 C  
BRANCH   6   7
HETATM    7  C   UNL     1     -10.170  18.739  68.555  1.00  0.00    -0.344 C  
HETATM    8  H   UNL     1     -11.793  18.759  67.435  1.00  0.00     0.000 HD 
HETATM    9  O   UNL     1     -10.932  19.161  67.414  1.00  0.00    -0.475 OA 
BRANCH   7  10
HETATM   10  C   UNL     1     -10.064  17.208  68.575  1.00  0.00    -0.329 C  
BRANCH  10  11
HETATM   11  O   UNL     1     -11.366  16.637  68.376  1.00  0.00    -0.321 OA 
BRANCH  11  12
HETATM   12  C   UNL     1     -11.467  15.280  68.542  1.00  0.00    -0.342 A  
HETATM   13  C   UNL     1     -11.318  14.324  67.539  1.00  0.00    -0.346 A  
HETATM   14  C   UNL     1     -11.498  12.966  67.823  1.00  0.00    -0.369 A  
HETATM   15  C   UNL     1     -11.835  12.542  69.114  1.00  0.00    -0.348 A  
HETATM   16  C   UNL     1     -11.937  13.500  70.129  1.00  0.00    -0.399 A  
HETATM   17  C   UNL     1     -11.761  14.859  69.842  1.00  0.00    -0.347 A  
BRANCH  15  18
HETATM   18  C   UNL     1     -12.144  11.086  69.380  1.00  0.00    -0.389 C  
BRANCH  18  19
HETATM   19  C   UNL     1     -11.340  10.363  70.444  1.00  0.00    -0.337 C  
HETATM   20  N   UNL     1     -10.002  10.201  70.262  1.00  0.00    -0.410 N  
HETATM   21  O   UNL     1     -11.870   9.927  71.463  1.00  0.00    -0.381 OA 
HETATM   22  H2  UNL     1      -9.546  10.560  69.423  1.00  0.00     0.000 HD 
HETATM   23  H1  UNL     1      -9.462   9.715  70.978  1.00  0.00     0.000 HD 
ENDBRANCH  18  19
ENDBRANCH  15  18
ENDBRANCH  11  12
ENDBRANCH  10  11
ENDBRANCH   7  10
ENDBRANCH   6   7
ENDBRANCH   4   6
ENDBRANCH   2   4
TORSDOF 8
ENDMDL
MODEL       86
REMARK 921   NORMALIZED FREE ENERGY PREDICTED BY IDOCK:   -4.36 KCAL/MOL
REMARK 922        TOTAL FREE ENERGY PREDICTED BY IDOCK:   -6.96 KCAL/MOL
REMARK 923 INTER-LIGAND FREE ENERGY PREDICTED BY IDOCK:   -6.52 KCAL/MOL
REMARK 924 INTRA-LIGAND FREE ENERGY PREDICTED BY IDOCK:   -0.45 KCAL/MOL
REMARK 927      BINDING AFFINITY PREDICTED BY RF-SCORE:    0.00 PKD
ROOT
HETATM    1  C   UNL     1     -10.361  19.546  67.708  1.00  0.00    -0.575 C  
HETATM    2  C   UNL     1      -9.147  18.617  67.755  1.00  0.00    -0.285 C  
HETATM    3  C   UNL     1      -8.031  19.275  68.570  1.00  0.00    -0.396 C  
ENDROOT
BRANCH   2   4
HETATM    4  N   UNL     1      -9.567  17.339  68.337  1.00  0.00    -0.274 NA 
HETATM    5  H   UNL     1      -9.615  17.403  69.354  1.00  0.00     0.000 HD 
BRANCH   4   6
HETATM    6  C   UNL     1     -10.833  16.834  67.789  1.00  0.00    -0.285 C  
BRANCH   6   7
HETATM    7  C   UNL     1     -10.661  15.387  67.289  1.00  0.00    -0.307 C  
HETATM    8  H   UNL     1      -9.340  13.940  67.505  1.00  0.00     0.000 HD 
HETATM    9  O   UNL     1      -9.446  14.832  67.814  1.00  0.00    -0.200 OA 
BRANCH   7  10
HETATM   10  C   UNL     1     -11.854  14.515  67.701  1.00  0.00    -0.364 C  
BRANCH  10  11
HETATM   11  O   UNL     1     -12.547  14.068  66.527  1.00  0.00    -0.393 OA 
BRANCH  11  12
HETATM   12  C   UNL     1     -11.839  13.266  65.670  1.00  0.00    -0.380 A  
HETATM   13  C   UNL     1     -11.698  13.466  64.297  1.00  0.00    -0.455 A  
HETATM   14  C   UNL     1     -10.991  12.545  63.516  1.00  0.00    -0.472 A  
HETATM   15  C   UNL     1     -10.417  11.406  64.094  1.00  0.00    -0.421 A  
HETATM   16  C   UNL     1     -10.520  11.233  65.480  1.00  0.00    -0.323 A  
HETATM   17  C   UNL     1     -11.232  12.154  66.259  1.00  0.00    -0.382 A  
BRANCH  15  18
HETATM   18  C   UNL     1      -9.760  10.359  63.224  1.00  0.00    -0.308 C  
BRANCH  18  19
HETATM   19  C   UNL     1      -8.437   9.773  63.678  1.00  0.00    -0.184 C  
HETATM   20  N   UNL     1      -7.337  10.573  63.704  1.00  0.00    -0.342 N  
HETATM   21  O   UNL     1      -8.340   8.599  64.024  1.00  0.00    -0.168 OA 
HETATM   22  H2  UNL     1      -7.401  11.551  63.422  1.00  0.00     0.000 HD 
HETATM   23  H1  UNL     1      -6.447  10.178  64.009  1.00  0.00     0.000 HD 
ENDBRANCH  18  19
ENDBRANCH  15  18
ENDBRANCH  11  12
ENDBRANCH  10  11
ENDBRANCH   7  10
ENDBRANCH   6   7
ENDBRANCH   4   6
ENDBRANCH   2   4
TORSDOF 8
ENDMDL
MODEL       87
REMARK 921   NORMALIZED FREE ENERGY PREDICTED BY IDOCK:   -4.34 KCAL/MOL
REMARK 922        TOTAL FREE ENERGY PREDICTED BY IDOCK:   -6.94 KCAL/MOL
REMARK 923 INTER-LIGAND FREE ENERGY PREDICTED BY IDOCK:   -5.83 KCAL/MOL
REMARK 924 INTRA-LIGAND FREE ENERGY PREDICTED BY IDOCK:   -1.11 KCAL/MOL
REMARK 927      BINDING AFFINITY PREDICTED BY RF-SCORE:    0.00 PKD
ROOT
HETATM    1  C   UNL     1     -10.911   7.209  67.347  1.00  0.00    -0.346 C  
HETATM    2  C   UNL     1     -10.423   6.033  68.194  1.00  0.00    -0.236 C  
HETATM    3  C   UNL     1      -8.921   6.179  68.455  1.00  0.00    -0.115 C  
ENDROOT
BRANCH   2   4
HETATM    4  N   UNL     1     -11.194   6.012  69.441  1.00  0.00    -0.388 NA 
HETATM    5  H   UNL     1     -12.031   5.439  69.338  1.00  0.00     0.000 HD 
BRANCH   4   6
HETATM    6  C   UNL     1     -10.409   5.583  70.607  1.00  0.00    -0.262 C  
BRANCH   6   7
HETATM    7  C   UNL     1     -10.978   6.208  71.895  1.00  0.00    -0.263 C  
HETATM    8  H   UNL     1     -10.338   6.559  73.726  1.00  0.00     0.000 HD 
HETATM    9  O   UNL     1      -9.987   6.173  72.932  1.00  0.00    -0.170 OA 
BRANCH   7  10
HETATM   10  C   UNL     1     -11.430   7.655  71.653  1.00  0.00    -0.260 C  
BRANCH  10  11
HETATM   11  O   UNL     1     -10.325   8.423  71.155  1.00  0.00    -0.200 OA 
BRANCH  11  12
HETATM   12  C   UNL     1     -10.640   9.517  70.392  1.00  0.00    -0.276 A  
HETATM   13  C   UNL     1      -9.837  10.074  69.398  1.00  0.00    -0.240 A  
HETATM   14  C   UNL     1     -10.246  11.229  68.721  1.00  0.00    -0.215 A  
HETATM   15  C   UNL     1     -11.463  11.848  69.031  1.00  0.00    -0.355 A  
HETATM   16  C   UNL     1     -12.288  11.259  69.997  1.00  0.00    -0.330 A  
HETATM   17  C   UNL     1     -11.875  10.107  70.675  1.00  0.00    -0.431 A  
BRANCH  15  18
HETATM   18  C   UNL     1     -11.837  13.160  68.378  1.00  0.00    -0.386 C  
BRANCH  18  19
HETATM   19  C   UNL     1     -11.757  13.260  66.867  1.00  0.00    -0.388 C  
HETATM   20  N   UNL     1     -11.302  14.413  66.307  1.00  0.00    -0.343 N  
HETATM   21  O   UNL     1     -12.089  12.325  66.143  1.00  0.00    -0.625 OA 
HETATM   22  H2  UNL     1     -11.019  15.197  66.894  1.00  0.00     0.000 HD 
HETATM   23  H1  UNL     1     -11.248  14.480  65.291  1.00  0.00     0.000 HD 
ENDBRANCH  18  19
ENDBRANCH  15  18
ENDBRANCH  11  12
ENDBRANCH  10  11
ENDBRANCH   7  10
ENDBRANCH   6   7
ENDBRANCH   4   6
ENDBRANCH   2   4
TORSDOF 8
ENDMDL
MODEL       88
REMARK 921   NORMALIZED FREE ENERGY PREDICTED BY IDOCK:   -4.34 KCAL/MOL
REMARK 922        TOTAL FREE ENERGY PREDICTED BY IDOCK:   -6.94 KCAL/MOL
REMARK 923 INTER-LIGAND FREE ENERGY PREDICTED BY IDOCK:   -6.53 KCAL/MOL
REMARK 924 INTRA-LIGAND FREE ENERGY PREDICTED BY IDOCK:   -0.41 KCAL/MOL
REMARK 927      BINDING AFFINITY PREDICTED BY RF-SCORE:    0.00 PKD
ROOT
HETATM    1  C   UNL     1     -10.869   6.358  67.248  1.00  0.00    -0.463 C  
HETATM    2  C   UNL     1      -9.981   7.579  67.489  1.00  0.00    -0.174 C  
HETATM    3  C   UNL     1      -9.022   7.755  66.309  1.00  0.00    -0.209 C  
ENDROOT
BRANCH   2   4
HETATM    4  N   UNL     1     -10.845   8.749  67.670  1.00  0.00    -0.489 NA 
HETATM    5  H   UNL     1     -10.913   9.000  68.656  1.00  0.00     0.000 HD 
BRANCH   4   6
HETATM    6  C   UNL     1     -10.437   9.908  66.865  1.00  0.00    -0.215 C  
BRANCH   6   7
HETATM    7  C   UNL     1     -10.820  11.219  67.579  1.00  0.00    -0.245 C  
HETATM    8  H   UNL     1      -9.898  12.598  68.644  1.00  0.00     0.000 HD 
HETATM    9  O   UNL     1      -9.661  11.790  68.203  1.00  0.00    -0.180 OA 
BRANCH   7  10
HETATM   10  C   UNL     1     -11.433  12.224  66.595  1.00  0.00    -0.373 C  
BRANCH  10  11
HETATM   11  O   UNL     1     -11.905  13.371  67.317  1.00  0.00    -0.352 OA 
BRANCH  11  12
HETATM   12  C   UNL     1     -11.316  14.570  67.008  1.00  0.00    -0.349 A  
HETATM   13  C   UNL     1     -10.803  14.927  65.762  1.00  0.00    -0.343 A  
HETATM   14  C   UNL     1     -10.176  16.165  65.583  1.00  0.00    -0.390 A  
HETATM   15  C   UNL     1     -10.045  17.064  66.649  1.00  0.00    -0.308 A  
HETATM   16  C   UNL     1     -10.603  16.721  67.887  1.00  0.00    -0.350 A  
HETATM   17  C   UNL     1     -11.227  15.480  68.064  1.00  0.00    -0.332 A  
BRANCH  15  18
HETATM   18  C   UNL     1      -9.260  18.344  66.473  1.00  0.00    -0.300 C  
BRANCH  18  19
HETATM   19  C   UNL     1     -10.026  19.649  66.374  1.00  0.00    -0.455 C  
HETATM   20  N   UNL     1      -9.778  20.629  67.285  1.00  0.00    -0.560 N  
HETATM   21  O   UNL     1     -10.858  19.840  65.491  1.00  0.00    -0.445 OA 
HETATM   22  H2  UNL     1      -9.087  20.487  68.022  1.00  0.00     0.000 HD 
HETATM   23  H1  UNL     1     -10.293  21.507  67.218  1.00  0.00     0.000 HD 
ENDBRANCH  18  19
ENDBRANCH  15  18
ENDBRANCH  11  12
ENDBRANCH  10  11
ENDBRANCH   7  10
ENDBRANCH   6   7
ENDBRANCH   4   6
ENDBRANCH   2   4
TORSDOF 8
ENDMDL
MODEL       89
REMARK 921   NORMALIZED FREE ENERGY PREDICTED BY IDOCK:   -4.34 KCAL/MOL
REMARK 922        TOTAL FREE ENERGY PREDICTED BY IDOCK:   -6.94 KCAL/MOL
REMARK 923 INTER-LIGAND FREE ENERGY PREDICTED BY IDOCK:   -6.45 KCAL/MOL
REMARK 924 INTRA-LIGAND FREE ENERGY PREDICTED BY IDOCK:   -0.48 KCAL/MOL
REMARK 927      BINDING AFFINITY PREDICTED BY RF-SCORE:    0.00 PKD
ROOT
HETATM    1  C   UNL     1     -10.805   3.495  63.447  1.00  0.00    -0.193 C  
HETATM    2  C   UNL     1     -10.107   3.880  64.752  1.00  0.00    -0.198 C  
HETATM    3  C   UNL     1      -8.819   4.645  64.438  1.00  0.00    -0.152 C  
ENDROOT
BRANCH   2   4
HETATM    4  N   UNL     1     -11.037   4.683  65.552  1.00  0.00    -0.942 NA 
HETATM    5  H   UNL     1     -11.901   4.168  65.727  1.00  0.00     0.000 HD 
BRANCH   4   6
HETATM    6  C   UNL     1     -10.457   5.168  66.812  1.00  0.00    -0.251 C  
BRANCH   6   7
HETATM    7  C   UNL     1     -11.153   6.468  67.257  1.00  0.00    -0.350 C  
HETATM    8  H   UNL     1     -11.763   7.263  68.955  1.00  0.00     0.000 HD 
HETATM    9  O   UNL     1     -11.334   6.461  68.681  1.00  0.00    -0.313 OA 
BRANCH   7  10
HETATM   10  C   UNL     1     -10.339   7.700  66.841  1.00  0.00    -0.318 C  
BRANCH  10  11
HETATM   11  O   UNL     1     -10.325   8.649  67.917  1.00  0.00    -0.215 OA 
BRANCH  11  12
HETATM   12  C   UNL     1     -10.724   9.924  67.611  1.00  0.00    -0.281 A  
HETATM   13  C   UNL     1     -11.416  10.786  68.460  1.00  0.00    -0.362 A  
HETATM   14  C   UNL     1     -11.818  12.050  68.012  1.00  0.00    -0.338 A  
HETATM   15  C   UNL     1     -11.539  12.470  66.706  1.00  0.00    -0.446 A  
HETATM   16  C   UNL     1     -10.803  11.619  65.871  1.00  0.00    -0.339 A  
HETATM   17  C   UNL     1     -10.406  10.354  66.320  1.00  0.00    -0.270 A  
BRANCH  15  18
HETATM   18  C   UNL     1     -12.082  13.786  66.197  1.00  0.00    -0.477 C  
BRANCH  18  19
HETATM   19  C   UNL     1     -11.095  14.873  65.819  1.00  0.00    -0.342 C  
HETATM   20  N   UNL     1     -10.110  15.202  66.698  1.00  0.00    -0.257 N  
HETATM   21  O   UNL     1     -11.163  15.456  64.740  1.00  0.00    -0.413 OA 
HETATM   22  H2  UNL     1     -10.037  14.726  67.596  1.00  0.00     0.000 HD 
HETATM   23  H1  UNL     1      -9.446  15.934  66.443  1.00  0.00     0.000 HD 
ENDBRANCH  18  19
ENDBRANCH  15  18
ENDBRANCH  11  12
ENDBRANCH  10  11
ENDBRANCH   7  10
ENDBRANCH   6   7
ENDBRANCH   4   6
ENDBRANCH   2   4
TORSDOF 8
ENDMDL
MODEL       90
REMARK 921   NORMALIZED FREE ENERGY PREDICTED BY IDOCK:   -4.34 KCAL/MOL
REMARK 922        TOTAL FREE ENERGY PREDICTED BY IDOCK:   -6.93 KCAL/MOL
REMARK 923 INTER-LIGAND FREE ENERGY PREDICTED BY IDOCK:   -6.58 KCAL/MOL
REMARK 924 INTRA-LIGAND FREE ENERGY PREDICTED BY IDOCK:   -0.35 KCAL/MOL
REMARK 927      BINDING AFFINITY PREDICTED BY RF-SCORE:    0.00 PKD
ROOT
HETATM    1  C   UNL     1      -6.272  21.120  67.926  1.00  0.00    -0.387 C  
HETATM    2  C   UNL     1      -7.082  19.863  67.606  1.00  0.00    -0.262 C  
HETATM    3  C   UNL     1      -7.611  19.251  68.906  1.00  0.00    -0.384 C  
ENDROOT
BRANCH   2   4
HETATM    4  N   UNL     1      -8.169  20.235  66.695  1.00  0.00    -0.473 NA 
HETATM    5  H   UNL     1      -8.257  19.555  65.940  1.00  0.00     0.000 HD 
BRANCH   4   6
HETATM    6  C   UNL     1      -9.459  20.429  67.372  1.00  0.00    -0.424 C  
BRANCH   6   7
HETATM    7  C   UNL     1     -10.533  19.517  66.750  1.00  0.00    -0.481 C  
HETATM    8  H   UNL     1     -11.622  19.493  65.106  1.00  0.00     0.000 HD 
HETATM    9  O   UNL     1     -10.959  20.056  65.490  1.00  0.00    -0.307 OA 
BRANCH   7  10
HETATM   10  C   UNL     1     -10.001  18.091  66.554  1.00  0.00    -0.371 C  
BRANCH  10  11
HETATM   11  O   UNL     1     -10.489  17.250  67.610  1.00  0.00    -0.343 OA 
BRANCH  11  12
HETATM   12  C   UNL     1     -10.649  15.923  67.307  1.00  0.00    -0.314 A  
HETATM   13  C   UNL     1     -10.010  15.243  66.271  1.00  0.00    -0.304 A  
HETATM   14  C   UNL     1     -10.296  13.895  66.027  1.00  0.00    -0.310 A  
HETATM   15  C   UNL     1     -11.230  13.206  66.812  1.00  0.00    -0.330 A  
HETATM   16  C   UNL     1     -11.834  13.880  67.881  1.00  0.00    -0.413 A  
HETATM   17  C   UNL     1     -11.549  15.230  68.120  1.00  0.00    -0.344 A  
BRANCH  15  18
HETATM   18  C   UNL     1     -11.618  11.787  66.463  1.00  0.00    -0.256 C  
BRANCH  18  19
HETATM   19  C   UNL     1     -10.673  10.667  66.852  1.00  0.00    -0.237 C  
HETATM   20  N   UNL     1     -11.019   9.839  67.874  1.00  0.00    -0.466 N  
HETATM   21  O   UNL     1      -9.609  10.491  66.263  1.00  0.00    -0.175 OA 
HETATM   22  H2  UNL     1     -11.900   9.969  68.371  1.00  0.00     0.000 HD 
HETATM   23  H1  UNL     1     -10.383   9.085  68.135  1.00  0.00     0.000 HD 
ENDBRANCH  18  19
ENDBRANCH  15  18
ENDBRANCH  11  12
ENDBRANCH  10  11
ENDBRANCH   7  10
ENDBRANCH   6   7
ENDBRANCH   4   6
ENDBRANCH   2   4
TORSDOF 8
ENDMDL
MODEL       91
REMARK 921   NORMALIZED FREE ENERGY PREDICTED BY IDOCK:   -4.33 KCAL/MOL
REMARK 922        TOTAL FREE ENERGY PREDICTED BY IDOCK:   -6.93 KCAL/MOL
REMARK 923 INTER-LIGAND FREE ENERGY PREDICTED BY IDOCK:   -6.46 KCAL/MOL
REMARK 924 INTRA-LIGAND FREE ENERGY PREDICTED BY IDOCK:   -0.47 KCAL/MOL
REMARK 927      BINDING AFFINITY PREDICTED BY RF-SCORE:    0.00 PKD
ROOT
HETATM    1  C   UNL     1     -11.393  11.160  67.985  1.00  0.00    -0.380 C  
HETATM    2  C   UNL     1     -10.016  11.727  68.334  1.00  0.00    -0.202 C  
HETATM    3  C   UNL     1      -9.068  11.535  67.147  1.00  0.00    -0.167 C  
ENDROOT
BRANCH   2   4
HETATM    4  N   UNL     1     -10.174  13.141  68.684  1.00  0.00    -0.368 NA 
HETATM    5  H   UNL     1     -10.084  13.731  67.856  1.00  0.00     0.000 HD 
BRANCH   4   6
HETATM    6  C   UNL     1     -11.427  13.431  69.395  1.00  0.00    -0.274 C  
BRANCH   6   7
HETATM    7  C   UNL     1     -11.892  14.870  69.097  1.00  0.00    -0.307 C  
HETATM    8  H   UNL     1     -12.703  16.356  70.107  1.00  0.00     0.000 HD 
HETATM    9  O   UNL     1     -12.416  15.469  70.291  1.00  0.00    -0.399 OA 
BRANCH   7  10
HETATM   10  C   UNL     1     -10.738  15.720  68.549  1.00  0.00    -0.274 C  
BRANCH  10  11
HETATM   11  O   UNL     1     -11.263  16.932  67.988  1.00  0.00    -0.271 OA 
BRANCH  11  12
HETATM   12  C   UNL     1     -10.378  17.968  67.840  1.00  0.00    -0.392 A  
HETATM   13  C   UNL     1     -10.654  19.196  67.240  1.00  0.00    -0.573 A  
HETATM   14  C   UNL     1      -9.648  20.158  67.100  1.00  0.00    -0.554 A  
HETATM   15  C   UNL     1      -8.347  19.907  67.554  1.00  0.00    -0.366 A  
HETATM   16  C   UNL     1      -8.085  18.691  68.198  1.00  0.00    -0.318 A  
HETATM   17  C   UNL     1      -9.092  17.729  68.333  1.00  0.00    -0.278 A  
BRANCH  15  18
HETATM   18  C   UNL     1      -7.243  20.905  67.290  1.00  0.00    -0.408 C  
BRANCH  18  19
HETATM   19  C   UNL     1      -6.330  20.670  66.102  1.00  0.00    -0.242 C  
HETATM   20  N   UNL     1      -6.826  20.840  64.847  1.00  0.00    -0.521 N  
HETATM   21  O   UNL     1      -5.157  20.334  66.249  1.00  0.00    -0.163 OA 
HETATM   22  H2  UNL     1      -7.796  21.121  64.707  1.00  0.00     0.000 HD 
HETATM   23  H1  UNL     1      -6.211  20.681  64.048  1.00  0.00     0.000 HD 
ENDBRANCH  18  19
ENDBRANCH  15  18
ENDBRANCH  11  12
ENDBRANCH  10  11
ENDBRANCH   7  10
ENDBRANCH   6   7
ENDBRANCH   4   6
ENDBRANCH   2   4
TORSDOF 8
ENDMDL
MODEL       92
REMARK 921   NORMALIZED FREE ENERGY PREDICTED BY IDOCK:   -4.32 KCAL/MOL
REMARK 922        TOTAL FREE ENERGY PREDICTED BY IDOCK:   -6.91 KCAL/MOL
REMARK 923 INTER-LIGAND FREE ENERGY PREDICTED BY IDOCK:   -6.09 KCAL/MOL
REMARK 924 INTRA-LIGAND FREE ENERGY PREDICTED BY IDOCK:   -0.82 KCAL/MOL
REMARK 927      BINDING AFFINITY PREDICTED BY RF-SCORE:    0.00 PKD
ROOT
HETATM    1  C   UNL     1      -9.831  16.266  65.943  1.00  0.00    -0.365 C  
HETATM    2  C   UNL     1      -9.186  14.971  66.440  1.00  0.00    -0.295 C  
HETATM    3  C   UNL     1      -9.450  14.811  67.939  1.00  0.00    -0.201 C  
ENDROOT
BRANCH   2   4
HETATM    4  N   UNL     1      -9.739  13.855  65.666  1.00  0.00    -0.510 NA 
HETATM    5  H   UNL     1      -9.940  13.060  66.272  1.00  0.00     0.000 HD 
BRANCH   4   6
HETATM    6  C   UNL     1     -10.922  14.220  64.876  1.00  0.00    -0.404 C  
BRANCH   6   7
HETATM    7  C   UNL     1     -12.111  13.309  65.239  1.00  0.00    -0.418 C  
HETATM    8  H   UNL     1     -13.546  12.366  64.270  1.00  0.00     0.000 HD 
HETATM    9  O   UNL     1     -12.813  12.928  64.047  1.00  0.00    -0.668 OA 
BRANCH   7  10
HETATM   10  C   UNL     1     -11.637  12.057  65.988  1.00  0.00    -0.305 C  
BRANCH  10  11
HETATM   11  O   UNL     1     -11.982  12.172  67.376  1.00  0.00    -0.563 OA 
BRANCH  11  12
HETATM   12  C   UNL     1     -11.546  11.165  68.198  1.00  0.00    -0.280 A  
HETATM   13  C   UNL     1     -11.366  11.260  69.577  1.00  0.00    -0.362 A  
HETATM   14  C   UNL     1     -10.863  10.173  70.301  1.00  0.00    -0.370 A  
HETATM   15  C   UNL     1     -10.527   8.976  69.658  1.00  0.00    -0.227 A  
HETATM   16  C   UNL     1     -10.755   8.868  68.280  1.00  0.00    -0.135 A  
HETATM   17  C   UNL     1     -11.254   9.958  67.557  1.00  0.00     0.010 A  
BRANCH  15  18
HETATM   18  C   UNL     1      -9.874   7.853  70.432  1.00  0.00    -0.183 C  
BRANCH  18  19
HETATM   19  C   UNL     1     -10.676   6.592  70.685  1.00  0.00    -0.248 C  
HETATM   20  N   UNL     1     -11.925   6.701  71.212  1.00  0.00    -0.352 N  
HETATM   21  O   UNL     1     -10.225   5.480  70.422  1.00  0.00    -0.212 OA 
HETATM   22  H2  UNL     1     -12.316   7.617  71.433  1.00  0.00     0.000 HD 
HETATM   23  H1  UNL     1     -12.465   5.852  71.382  1.00  0.00     0.000 HD 
ENDBRANCH  18  19
ENDBRANCH  15  18
ENDBRANCH  11  12
ENDBRANCH  10  11
ENDBRANCH   7  10
ENDBRANCH   6   7
ENDBRANCH   4   6
ENDBRANCH   2   4
TORSDOF 8
ENDMDL
MODEL       93
REMARK 921   NORMALIZED FREE ENERGY PREDICTED BY IDOCK:   -4.31 KCAL/MOL
REMARK 922        TOTAL FREE ENERGY PREDICTED BY IDOCK:   -6.90 KCAL/MOL
REMARK 923 INTER-LIGAND FREE ENERGY PREDICTED BY IDOCK:   -6.31 KCAL/MOL
REMARK 924 INTRA-LIGAND FREE ENERGY PREDICTED BY IDOCK:   -0.59 KCAL/MOL
REMARK 927      BINDING AFFINITY PREDICTED BY RF-SCORE:    0.00 PKD
ROOT
HETATM    1  C   UNL     1     -13.479   6.977  71.395  1.00  0.00    -0.323 C  
HETATM    2  C   UNL     1     -12.969   8.325  71.906  1.00  0.00    -0.347 C  
HETATM    3  C   UNL     1     -14.151   9.166  72.397  1.00  0.00    -0.434 C  
ENDROOT
BRANCH   2   4
HETATM    4  N   UNL     1     -11.995   8.076  72.972  1.00  0.00    -0.633 NA 
HETATM    5  H   UNL     1     -12.399   7.487  73.700  1.00  0.00     0.000 HD 
BRANCH   4   6
HETATM    6  C   UNL     1     -10.729   7.510  72.488  1.00  0.00    -0.285 C  
BRANCH   6   7
HETATM    7  C   UNL     1      -9.759   8.637  72.083  1.00  0.00    -0.313 C  
HETATM    8  H   UNL     1      -8.080   9.406  72.776  1.00  0.00     0.000 HD 
HETATM    9  O   UNL     1      -8.679   8.711  73.026  1.00  0.00    -0.380 OA 
BRANCH   7  10
HETATM   10  C   UNL     1      -9.204   8.407  70.671  1.00  0.00    -0.156 C  
BRANCH  10  11
HETATM   11  O   UNL     1     -10.292   8.196  69.759  1.00  0.00    -0.207 OA 
BRANCH  11  12
HETATM   12  C   UNL     1     -10.512   9.185  68.836  1.00  0.00    -0.218 A  
HETATM   13  C   UNL     1     -10.029   9.200  67.528  1.00  0.00    -0.258 A  
HETATM   14  C   UNL     1     -10.278  10.295  66.693  1.00  0.00    -0.294 A  
HETATM   15  C   UNL     1     -11.010  11.396  67.154  1.00  0.00    -0.340 A  
HETATM   16  C   UNL     1     -11.534  11.357  68.452  1.00  0.00    -0.367 A  
HETATM   17  C   UNL     1     -11.280  10.262  69.287  1.00  0.00    -0.281 A  
BRANCH  15  18
HETATM   18  C   UNL     1     -11.169  12.622  66.284  1.00  0.00    -0.354 C  
BRANCH  18  19
HETATM   19  C   UNL     1     -11.146  13.984  66.950  1.00  0.00    -0.304 C  
HETATM   20  N   UNL     1     -12.308  14.501  67.431  1.00  0.00    -0.575 N  
HETATM   21  O   UNL     1     -10.104  14.624  67.066  1.00  0.00    -0.245 OA 
HETATM   22  H2  UNL     1     -13.181  13.981  67.345  1.00  0.00     0.000 HD 
HETATM   23  H1  UNL     1     -12.292  15.418  67.879  1.00  0.00     0.000 HD 
ENDBRANCH  18  19
ENDBRANCH  15  18
ENDBRANCH  11  12
ENDBRANCH  10  11
ENDBRANCH   7  10
ENDBRANCH   6   7
ENDBRANCH   4   6
ENDBRANCH   2   4
TORSDOF 8
ENDMDL
MODEL       94
REMARK 921   NORMALIZED FREE ENERGY PREDICTED BY IDOCK:   -4.30 KCAL/MOL
REMARK 922        TOTAL FREE ENERGY PREDICTED BY IDOCK:   -6.88 KCAL/MOL
REMARK 923 INTER-LIGAND FREE ENERGY PREDICTED BY IDOCK:   -6.47 KCAL/MOL
REMARK 924 INTRA-LIGAND FREE ENERGY PREDICTED BY IDOCK:   -0.41 KCAL/MOL
REMARK 927      BINDING AFFINITY PREDICTED BY RF-SCORE:    0.00 PKD
ROOT
HETATM    1  C   UNL     1      -9.577   7.289  73.851  1.00  0.00    -0.322 C  
HETATM    2  C   UNL     1     -10.107   7.679  72.470  1.00  0.00    -0.229 C  
HETATM    3  C   UNL     1     -11.629   7.828  72.529  1.00  0.00    -0.422 C  
ENDROOT
BRANCH   2   4
HETATM    4  N   UNL     1      -9.452   8.925  72.061  1.00  0.00    -0.347 NA 
HETATM    5  H   UNL     1      -8.441   8.860  72.184  1.00  0.00     0.000 HD 
BRANCH   4   6
HETATM    6  C   UNL     1      -9.784   9.338  70.691  1.00  0.00    -0.272 C  
BRANCH   6   7
HETATM    7  C   UNL     1      -8.537   9.906  69.985  1.00  0.00    -0.167 C  
HETATM    8  H   UNL     1      -6.628  10.146  70.415  1.00  0.00     0.000 HD 
HETATM    9  O   UNL     1      -7.397   9.796  70.850  1.00  0.00    -0.321 OA 
BRANCH   7  10
HETATM   10  C   UNL     1      -8.265   9.169  68.667  1.00  0.00    -0.114 C  
BRANCH  10  11
HETATM   11  O   UNL     1      -9.512   8.840  68.038  1.00  0.00    -0.141 OA 
BRANCH  11  12
HETATM   12  C   UNL     1      -9.863   9.597  66.950  1.00  0.00    -0.200 A  
HETATM   13  C   UNL     1      -9.403   9.411  65.647  1.00  0.00    -0.309 A  
HETATM   14  C   UNL     1      -9.794  10.285  64.627  1.00  0.00    -0.396 A  
HETATM   15  C   UNL     1     -10.647  11.363  64.894  1.00  0.00    -0.368 A  
HETATM   16  C   UNL     1     -11.145  11.519  66.194  1.00  0.00    -0.302 A  
HETATM   17  C   UNL     1     -10.749  10.645  67.213  1.00  0.00    -0.338 A  
BRANCH  15  18
HETATM   18  C   UNL     1     -10.965  12.368  63.810  1.00  0.00    -0.501 C  
BRANCH  18  19
HETATM   19  C   UNL     1     -11.295  13.790  64.223  1.00  0.00    -0.326 C  
HETATM   20  N   UNL     1     -12.526  14.290  63.936  1.00  0.00    -0.969 N  
HETATM   21  O   UNL     1     -10.477  14.494  64.811  1.00  0.00    -0.423 OA 
HETATM   22  H2  UNL     1     -13.218  13.718  63.451  1.00  0.00     0.000 HD 
HETATM   23  H1  UNL     1     -12.747  15.247  64.213  1.00  0.00     0.000 HD 
ENDBRANCH  18  19
ENDBRANCH  15  18
ENDBRANCH  11  12
ENDBRANCH  10  11
ENDBRANCH   7  10
ENDBRANCH   6   7
ENDBRANCH   4   6
ENDBRANCH   2   4
TORSDOF 8
ENDMDL
MODEL       95
REMARK 921   NORMALIZED FREE ENERGY PREDICTED BY IDOCK:   -4.29 KCAL/MOL
REMARK 922        TOTAL FREE ENERGY PREDICTED BY IDOCK:   -6.87 KCAL/MOL
REMARK 923 INTER-LIGAND FREE ENERGY PREDICTED BY IDOCK:   -6.00 KCAL/MOL
REMARK 924 INTRA-LIGAND FREE ENERGY PREDICTED BY IDOCK:   -0.88 KCAL/MOL
REMARK 927      BINDING AFFINITY PREDICTED BY RF-SCORE:    0.00 PKD
ROOT
HETATM    1  C   UNL     1      -7.862  12.301  68.230  1.00  0.00    -0.153 C  
HETATM    2  C   UNL     1      -7.797  10.773  68.235  1.00  0.00    -0.115 C  
HETATM    3  C   UNL     1      -8.778  10.223  69.274  1.00  0.00    -0.182 C  
ENDROOT
BRANCH   2   4
HETATM    4  N   UNL     1      -8.107  10.295  66.884  1.00  0.00    -0.118 NA 
HETATM    5  H   UNL     1      -8.667   9.443  66.922  1.00  0.00     0.000 HD 
BRANCH   4   6
HETATM    6  C   UNL     1      -8.757  11.307  66.040  1.00  0.00    -0.164 C  
BRANCH   6   7
HETATM    7  C   UNL     1     -10.052  10.741  65.426  1.00  0.00    -0.285 C  
HETATM    8  H   UNL     1     -11.496   9.522  65.989  1.00  0.00     0.000 HD 
HETATM    9  O   UNL     1     -10.697   9.871  66.368  1.00  0.00    -0.099 OA 
BRANCH   7  10
HETATM   10  C   UNL     1     -11.008  11.869  65.017  1.00  0.00    -0.312 C  
BRANCH  10  11
HETATM   11  O   UNL     1     -12.052  11.987  65.994  1.00  0.00    -0.561 OA 
BRANCH  11  12
HETATM   12  C   UNL     1     -11.837  12.884  67.008  1.00  0.00    -0.374 A  
HETATM   13  C   UNL     1     -11.732  12.571  68.363  1.00  0.00    -0.375 A  
HETATM   14  C   UNL     1     -11.565  13.584  69.313  1.00  0.00    -0.369 A  
HETATM   15  C   UNL     1     -11.506  14.928  68.925  1.00  0.00    -0.320 A  
HETATM   16  C   UNL     1     -11.565  15.235  67.560  1.00  0.00    -0.223 A  
HETATM   17  C   UNL     1     -11.736  14.220  66.612  1.00  0.00    -0.417 A  
BRANCH  15  18
HETATM   18  C   UNL     1     -11.446  16.020  69.969  1.00  0.00    -0.334 C  
BRANCH  18  19
HETATM   19  C   UNL     1     -12.307  15.877  71.209  1.00  0.00    -0.408 C  
HETATM   20  N   UNL     1     -13.649  15.706  71.063  1.00  0.00    -0.749 N  
HETATM   21  O   UNL     1     -11.820  15.907  72.337  1.00  0.00    -0.436 OA 
HETATM   22  H2  UNL     1     -14.069  15.675  70.134  1.00  0.00     0.000 HD 
HETATM   23  H1  UNL     1     -14.228  15.610  71.898  1.00  0.00     0.000 HD 
ENDBRANCH  18  19
ENDBRANCH  15  18
ENDBRANCH  11  12
ENDBRANCH  10  11
ENDBRANCH   7  10
ENDBRANCH   6   7
ENDBRANCH   4   6
ENDBRANCH   2   4
TORSDOF 8
ENDMDL
MODEL       96
REMARK 921   NORMALIZED FREE ENERGY PREDICTED BY IDOCK:   -4.29 KCAL/MOL
REMARK 922        TOTAL FREE ENERGY PREDICTED BY IDOCK:   -6.87 KCAL/MOL
REMARK 923 INTER-LIGAND FREE ENERGY PREDICTED BY IDOCK:   -6.05 KCAL/MOL
REMARK 924 INTRA-LIGAND FREE ENERGY PREDICTED BY IDOCK:   -0.82 KCAL/MOL
REMARK 927      BINDING AFFINITY PREDICTED BY RF-SCORE:    0.00 PKD
ROOT
HETATM    1  C   UNL     1     -12.529  12.301  63.382  1.00  0.00    -0.592 C  
HETATM    2  C   UNL     1     -11.697  13.316  64.168  1.00  0.00    -0.420 C  
HETATM    3  C   UNL     1     -12.418  13.667  65.472  1.00  0.00    -0.544 C  
ENDROOT
BRANCH   2   4
HETATM    4  N   UNL     1     -10.374  12.735  64.414  1.00  0.00    -0.441 NA 
HETATM    5  H   UNL     1     -10.010  13.035  65.319  1.00  0.00     0.000 HD 
BRANCH   4   6
HETATM    6  C   UNL     1     -10.349  11.270  64.305  1.00  0.00    -0.340 C  
BRANCH   6   7
HETATM    7  C   UNL     1     -10.055  10.634  65.677  1.00  0.00    -0.272 C  
HETATM    8  H   UNL     1      -9.548   8.855  66.358  1.00  0.00     0.000 HD 
HETATM    9  O   UNL     1      -9.729   9.247  65.511  1.00  0.00    -0.277 OA 
BRANCH   7  10
HETATM   10  C   UNL     1      -8.904  11.360  66.386  1.00  0.00    -0.192 C  
BRANCH  10  11
HETATM   11  O   UNL     1      -9.186  11.443  67.791  1.00  0.00    -0.152 OA 
BRANCH  11  12
HETATM   12  C   UNL     1      -9.612  12.660  68.255  1.00  0.00    -0.208 A  
HETATM   13  C   UNL     1     -10.920  12.981  68.616  1.00  0.00    -0.297 A  
HETATM   14  C   UNL     1     -11.243  14.279  69.026  1.00  0.00    -0.294 A  
HETATM   15  C   UNL     1     -10.265  15.279  69.078  1.00  0.00    -0.239 A  
HETATM   16  C   UNL     1      -8.944  14.942  68.760  1.00  0.00    -0.188 A  
HETATM   17  C   UNL     1      -8.624  13.644  68.346  1.00  0.00    -0.151 A  
BRANCH  15  18
HETATM   18  C   UNL     1     -10.650  16.704  69.407  1.00  0.00    -0.333 C  
BRANCH  18  19
HETATM   19  C   UNL     1     -10.365  17.782  68.379  1.00  0.00    -0.376 C  
HETATM   20  N   UNL     1      -9.832  18.963  68.793  1.00  0.00    -0.397 N  
HETATM   21  O   UNL     1     -10.600  17.609  67.185  1.00  0.00    -0.339 OA 
HETATM   22  H2  UNL     1      -9.627  19.121  69.780  1.00  0.00     0.000 HD 
HETATM   23  H1  UNL     1      -9.640  19.687  68.101  1.00  0.00     0.000 HD 
ENDBRANCH  18  19
ENDBRANCH  15  18
ENDBRANCH  11  12
ENDBRANCH  10  11
ENDBRANCH   7  10
ENDBRANCH   6   7
ENDBRANCH   4   6
ENDBRANCH   2   4
TORSDOF 8
ENDMDL
MODEL       97
REMARK 921   NORMALIZED FREE ENERGY PREDICTED BY IDOCK:   -4.29 KCAL/MOL
REMARK 922        TOTAL FREE ENERGY PREDICTED BY IDOCK:   -6.87 KCAL/MOL
REMARK 923 INTER-LIGAND FREE ENERGY PREDICTED BY IDOCK:   -6.20 KCAL/MOL
REMARK 924 INTRA-LIGAND FREE ENERGY PREDICTED BY IDOCK:   -0.67 KCAL/MOL
REMARK 927      BINDING AFFINITY PREDICTED BY RF-SCORE:    0.00 PKD
ROOT
HETATM    1  C   UNL     1     -10.472   7.243  67.215  1.00  0.00    -0.380 C  
HETATM    2  C   UNL     1      -9.367   7.930  66.411  1.00  0.00    -0.189 C  
HETATM    3  C   UNL     1      -8.562   6.878  65.644  1.00  0.00    -0.119 C  
ENDROOT
BRANCH   2   4
HETATM    4  N   UNL     1      -9.992   8.904  65.510  1.00  0.00    -0.326 NA 
HETATM    5  H   UNL     1     -10.619   9.522  66.024  1.00  0.00     0.000 HD 
BRANCH   4   6
HETATM    6  C   UNL     1      -9.022   9.681  64.726  1.00  0.00    -0.225 C  
BRANCH   6   7
HETATM    7  C   UNL     1      -9.560  11.101  64.464  1.00  0.00    -0.250 C  
HETATM    8  H   UNL     1     -10.446  12.050  62.980  1.00  0.00     0.000 HD 
HETATM    9  O   UNL     1     -10.113  11.174  63.142  1.00  0.00    -0.336 OA 
BRANCH   7  10
HETATM   10  C   UNL     1     -10.626  11.487  65.498  1.00  0.00    -0.281 C  
BRANCH  10  11
HETATM   11  O   UNL     1      -9.987  12.033  66.661  1.00  0.00    -0.197 OA 
BRANCH  11  12
HETATM   12  C   UNL     1     -10.310  11.454  67.861  1.00  0.00    -0.182 A  
HETATM   13  C   UNL     1      -9.424  10.792  68.710  1.00  0.00    -0.187 A  
HETATM   14  C   UNL     1      -9.885  10.193  69.887  1.00  0.00    -0.223 A  
HETATM   15  C   UNL     1     -11.241  10.243  70.234  1.00  0.00    -0.395 A  
HETATM   16  C   UNL     1     -12.120  10.949  69.403  1.00  0.00    -0.362 A  
HETATM   17  C   UNL     1     -11.657  11.543  68.223  1.00  0.00    -0.378 A  
BRANCH  15  18
HETATM   18  C   UNL     1     -11.745   9.491  71.445  1.00  0.00    -0.465 C  
BRANCH  18  19
HETATM   19  C   UNL     1     -13.016   9.975  72.114  1.00  0.00    -0.366 C  
HETATM   20  N   UNL     1     -13.829   9.068  72.718  1.00  0.00    -0.886 N  
HETATM   21  O   UNL     1     -13.324  11.165  72.125  1.00  0.00    -0.452 OA 
HETATM   22  H2  UNL     1     -13.587   8.077  72.721  1.00  0.00     0.000 HD 
HETATM   23  H1  UNL     1     -14.685   9.394  73.168  1.00  0.00     0.000 HD 
ENDBRANCH  18  19
ENDBRANCH  15  18
ENDBRANCH  11  12
ENDBRANCH  10  11
ENDBRANCH   7  10
ENDBRANCH   6   7
ENDBRANCH   4   6
ENDBRANCH   2   4
TORSDOF 8
ENDMDL
MODEL       98
REMARK 921   NORMALIZED FREE ENERGY PREDICTED BY IDOCK:   -4.27 KCAL/MOL
REMARK 922        TOTAL FREE ENERGY PREDICTED BY IDOCK:   -6.84 KCAL/MOL
REMARK 923 INTER-LIGAND FREE ENERGY PREDICTED BY IDOCK:   -6.53 KCAL/MOL
REMARK 924 INTRA-LIGAND FREE ENERGY PREDICTED BY IDOCK:   -0.31 KCAL/MOL
REMARK 927      BINDING AFFINITY PREDICTED BY RF-SCORE:    0.00 PKD
ROOT
HETATM    1  C   UNL     1     -10.768   5.788  69.869  1.00  0.00    -0.412 C  
HETATM    2  C   UNL     1     -10.551   6.846  68.787  1.00  0.00    -0.220 C  
HETATM    3  C   UNL     1     -11.097   6.332  67.452  1.00  0.00    -0.384 C  
ENDROOT
BRANCH   2   4
HETATM    4  N   UNL     1     -11.218   8.081  69.210  1.00  0.00    -0.418 NA 
HETATM    5  H   UNL     1     -11.807   7.913  70.025  1.00  0.00     0.000 HD 
BRANCH   4   6
HETATM    6  C   UNL     1     -10.289   9.192  69.460  1.00  0.00    -0.215 C  
BRANCH   6   7
HETATM    7  C   UNL     1     -10.517  10.322  68.438  1.00  0.00    -0.200 C  
HETATM    8  H   UNL     1     -10.793  10.463  66.491  1.00  0.00     0.000 HD 
HETATM    9  O   UNL     1     -10.652   9.766  67.122  1.00  0.00    -0.252 OA 
BRANCH   7  10
HETATM   10  C   UNL     1     -11.765  11.141  68.790  1.00  0.00    -0.326 C  
BRANCH  10  11
HETATM   11  O   UNL     1     -12.075  12.028  67.706  1.00  0.00    -0.537 OA 
BRANCH  11  12
HETATM   12  C   UNL     1     -11.645  13.323  67.836  1.00  0.00    -0.334 A  
HETATM   13  C   UNL     1     -12.035  14.213  68.836  1.00  0.00    -0.376 A  
HETATM   14  C   UNL     1     -11.567  15.532  68.833  1.00  0.00    -0.384 A  
HETATM   15  C   UNL     1     -10.704  15.983  67.827  1.00  0.00    -0.323 A  
HETATM   16  C   UNL     1     -10.276  15.074  66.851  1.00  0.00    -0.258 A  
HETATM   17  C   UNL     1     -10.751  13.757  66.854  1.00  0.00    -0.280 A  
BRANCH  15  18
HETATM   18  C   UNL     1     -10.301  17.439  67.767  1.00  0.00    -0.358 C  
BRANCH  18  19
HETATM   19  C   UNL     1      -9.823  17.999  66.441  1.00  0.00    -0.340 C  
HETATM   20  N   UNL     1      -8.585  18.558  66.370  1.00  0.00    -0.280 N  
HETATM   21  O   UNL     1     -10.526  17.955  65.434  1.00  0.00    -0.635 OA 
HETATM   22  H2  UNL     1      -7.987  18.599  67.195  1.00  0.00     0.000 HD 
HETATM   23  H1  UNL     1      -8.264  18.934  65.478  1.00  0.00     0.000 HD 
ENDBRANCH  18  19
ENDBRANCH  15  18
ENDBRANCH  11  12
ENDBRANCH  10  11
ENDBRANCH   7  10
ENDBRANCH   6   7
ENDBRANCH   4   6
ENDBRANCH   2   4
TORSDOF 8
ENDMDL
MODEL       99
REMARK 921   NORMALIZED FREE ENERGY PREDICTED BY IDOCK:   -4.25 KCAL/MOL
REMARK 922        TOTAL FREE ENERGY PREDICTED BY IDOCK:   -6.81 KCAL/MOL
REMARK 923 INTER-LIGAND FREE ENERGY PREDICTED BY IDOCK:   -5.90 KCAL/MOL
REMARK 924 INTRA-LIGAND FREE ENERGY PREDICTED BY IDOCK:   -0.91 KCAL/MOL
REMARK 927      BINDING AFFINITY PREDICTED BY RF-SCORE:    0.00 PKD
ROOT
HETATM    1  C   UNL     1     -11.040  11.073  67.243  1.00  0.00    -0.359 C  
HETATM    2  C   UNL     1      -9.987  11.462  68.282  1.00  0.00    -0.198 C  
HETATM    3  C   UNL     1      -9.085  12.558  67.709  1.00  0.00    -0.191 C  
ENDROOT
BRANCH   2   4
HETATM    4  N   UNL     1     -10.679  11.905  69.496  1.00  0.00    -0.439 NA 
HETATM    5  H   UNL     1     -11.103  12.822  69.357  1.00  0.00     0.000 HD 
BRANCH   4   6
HETATM    6  C   UNL     1     -11.675  10.941  69.986  1.00  0.00    -0.345 C  
BRANCH   6   7
HETATM    7  C   UNL     1     -12.744  11.659  70.832  1.00  0.00    -0.258 C  
HETATM    8  H   UNL     1     -13.659  11.353  72.551  1.00  0.00     0.000 HD 
HETATM    9  O   UNL     1     -13.000  10.910  72.029  1.00  0.00    -0.457 OA 
BRANCH   7  10
HETATM   10  C   UNL     1     -12.299  13.083  71.192  1.00  0.00    -0.175 C  
BRANCH  10  11
HETATM   11  O   UNL     1     -13.012  14.026  70.378  1.00  0.00    -0.252 OA 
BRANCH  11  12
HETATM   12  C   UNL     1     -12.249  14.881  69.627  1.00  0.00    -0.261 A  
HETATM   13  C   UNL     1     -12.120  14.851  68.239  1.00  0.00    -0.146 A  
HETATM   14  C   UNL     1     -11.266  15.748  67.588  1.00  0.00    -0.246 A  
HETATM   15  C   UNL     1     -10.521  16.685  68.314  1.00  0.00    -0.321 A  
HETATM   16  C   UNL     1     -10.689  16.744  69.703  1.00  0.00    -0.229 A  
HETATM   17  C   UNL     1     -11.541  15.843  70.353  1.00  0.00    -0.387 A  
BRANCH  15  18
HETATM   18  C   UNL     1      -9.513  17.566  67.611  1.00  0.00    -0.256 C  
BRANCH  18  19
HETATM   19  C   UNL     1     -10.019  18.560  66.584  1.00  0.00    -0.372 C  
HETATM   20  N   UNL     1     -10.067  19.879  66.912  1.00  0.00    -0.419 N  
HETATM   21  O   UNL     1     -10.380  18.200  65.466  1.00  0.00    -0.589 OA 
HETATM   22  H2  UNL     1      -9.767  20.195  67.834  1.00  0.00     0.000 HD 
HETATM   23  H1  UNL     1     -10.407  20.547  66.220  1.00  0.00     0.000 HD 
ENDBRANCH  18  19
ENDBRANCH  15  18
ENDBRANCH  11  12
ENDBRANCH  10  11
ENDBRANCH   7  10
ENDBRANCH   6   7
ENDBRANCH   4   6
ENDBRANCH   2   4
TORSDOF 8
ENDMDL
MODEL      100
REMARK 921   NORMALIZED FREE ENERGY PREDICTED BY IDOCK:   -4.24 KCAL/MOL
REMARK 922        TOTAL FREE ENERGY PREDICTED BY IDOCK:   -6.80 KCAL/MOL
REMARK 923 INTER-LIGAND FREE ENERGY PREDICTED BY IDOCK:   -5.97 KCAL/MOL
REMARK 924 INTRA-LIGAND FREE ENERGY PREDICTED BY IDOCK:   -0.83 KCAL/MOL
REMARK 927      BINDING AFFINITY PREDICTED BY RF-SCORE:    0.00 PKD
ROOT
HETATM    1  C   UNL     1     -13.134  10.268  71.487  1.00  0.00    -0.534 C  
HETATM    2  C   UNL     1     -12.971   8.785  71.826  1.00  0.00    -0.361 C  
HETATM    3  C   UNL     1     -14.350   8.126  71.914  1.00  0.00    -0.566 C  
ENDROOT
BRANCH   2   4
HETATM    4  N   UNL     1     -12.134   8.165  70.794  1.00  0.00    -0.491 NA 
HETATM    5  H   UNL     1     -12.000   8.801  70.007  1.00  0.00     0.000 HD 
BRANCH   4   6
HETATM    6  C   UNL     1     -10.842   7.684  71.300  1.00  0.00    -0.231 C  
BRANCH   6   7
HETATM    7  C   UNL     1     -10.002   8.862  71.831  1.00  0.00    -0.314 C  
HETATM    8  H   UNL     1      -8.601   9.130  73.192  1.00  0.00     0.000 HD 
HETATM    9  O   UNL     1      -9.118   8.403  72.864  1.00  0.00    -0.254 OA 
BRANCH   7  10
HETATM   10  C   UNL     1      -9.193   9.516  70.704  1.00  0.00    -0.180 C  
BRANCH  10  11
HETATM   11  O   UNL     1      -9.822   9.243  69.444  1.00  0.00    -0.165 OA 
BRANCH  11  12
HETATM   12  C   UNL     1     -10.217  10.333  68.712  1.00  0.00    -0.192 A  
HETATM   13  C   UNL     1      -9.998  11.666  69.054  1.00  0.00    -0.002 A  
HETATM   14  C   UNL     1     -10.498  12.695  68.249  1.00  0.00    -0.249 A  
HETATM   15  C   UNL     1     -11.229  12.409  67.090  1.00  0.00    -0.353 A  
HETATM   16  C   UNL     1     -11.406  11.068  66.723  1.00  0.00    -0.052 A  
HETATM   17  C   UNL     1     -10.909  10.041  67.533  1.00  0.00    -0.326 A  
BRANCH  15  18
HETATM   18  C   UNL     1     -11.865  13.526  66.295  1.00  0.00    -0.431 C  
BRANCH  18  19
HETATM   19  C   UNL     1     -11.395  13.753  64.871  1.00  0.00    -0.347 C  
HETATM   20  N   UNL     1     -10.404  14.655  64.640  1.00  0.00    -0.508 N  
HETATM   21  O   UNL     1     -11.887  13.139  63.927  1.00  0.00    -0.418 OA 
HETATM   22  H2  UNL     1      -9.983  15.171  65.413  1.00  0.00     0.000 HD 
HETATM   23  H1  UNL     1     -10.088  14.807  63.682  1.00  0.00     0.000 HD 
ENDBRANCH  18  19
ENDBRANCH  15  18
ENDBRANCH  11  12
ENDBRANCH  10  11
ENDBRANCH   7  10
ENDBRANCH   6   7
ENDBRANCH   4   6
ENDBRANCH   2   4
TORSDOF 8
ENDMDL
MODEL      101
REMARK 921   NORMALIZED FREE ENERGY PREDICTED BY IDOCK:   -4.23 KCAL/MOL
REMARK 922        TOTAL FREE ENERGY PREDICTED BY IDOCK:   -6.78 KCAL/MOL
REMARK 923 INTER-LIGAND FREE ENERGY PREDICTED BY IDOCK:   -6.22 KCAL/MOL
REMARK 924 INTRA-LIGAND FREE ENERGY PREDICTED BY IDOCK:   -0.56 KCAL/MOL
REMARK 927      BINDING AFFINITY PREDICTED BY RF-SCORE:    0.00 PKD
ROOT
HETATM    1  C   UNL     1     -10.771   6.585  66.976  1.00  0.00    -0.434 C  
HETATM    2  C   UNL     1      -9.956   7.846  67.270  1.00  0.00    -0.215 C  
HETATM    3  C   UNL     1      -9.240   8.300  65.995  1.00  0.00    -0.226 C  
ENDROOT
BRANCH   2   4
HETATM    4  N   UNL     1     -10.867   8.875  67.780  1.00  0.00    -0.489 NA 
HETATM    5  H   UNL     1     -11.786   8.478  67.979  1.00  0.00     0.000 HD 
BRANCH   4   6
HETATM    6  C   UNL     1     -10.344   9.589  68.954  1.00  0.00    -0.208 C  
BRANCH   6   7
HETATM    7  C   UNL     1     -11.495   9.978  69.901  1.00  0.00    -0.215 C  
HETATM    8  H   UNL     1     -11.813   9.991  71.846  1.00  0.00     0.000 HD 
HETATM    9  O   UNL     1     -11.103   9.750  71.262  1.00  0.00    -0.355 OA 
BRANCH   7  10
HETATM   10  C   UNL     1     -11.893  11.448  69.711  1.00  0.00    -0.364 C  
BRANCH  10  11
HETATM   11  O   UNL     1     -12.103  11.709  68.315  1.00  0.00    -0.552 OA 
BRANCH  11  12
HETATM   12  C   UNL     1     -11.556  12.865  67.823  1.00  0.00    -0.343 A  
HETATM   13  C   UNL     1     -11.856  13.449  66.594  1.00  0.00    -0.443 A  
HETATM   14  C   UNL     1     -11.189  14.607  66.177  1.00  0.00    -0.341 A  
HETATM   15  C   UNL     1     -10.207  15.196  66.982  1.00  0.00    -0.262 A  
HETATM   16  C   UNL     1      -9.941  14.634  68.237  1.00  0.00    -0.222 A  
HETATM   17  C   UNL     1     -10.607  13.474  68.649  1.00  0.00    -0.259 A  
BRANCH  15  18
HETATM   18  C   UNL     1      -9.410  16.375  66.469  1.00  0.00    -0.300 C  
BRANCH  18  19
HETATM   19  C   UNL     1      -9.778  17.761  66.963  1.00  0.00    -0.290 C  
HETATM   20  N   UNL     1     -10.655  17.881  67.995  1.00  0.00    -0.381 N  
HETATM   21  O   UNL     1      -9.299  18.772  66.455  1.00  0.00    -0.319 OA 
HETATM   22  H2  UNL     1     -11.059  17.052  68.430  1.00  0.00     0.000 HD 
HETATM   23  H1  UNL     1     -10.902  18.813  68.327  1.00  0.00     0.000 HD 
ENDBRANCH  18  19
ENDBRANCH  15  18
ENDBRANCH  11  12
ENDBRANCH  10  11
ENDBRANCH   7  10
ENDBRANCH   6   7
ENDBRANCH   4   6
ENDBRANCH   2   4
TORSDOF 8
ENDMDL
MODEL      102
REMARK 921   NORMALIZED FREE ENERGY PREDICTED BY IDOCK:   -4.22 KCAL/MOL
REMARK 922        TOTAL FREE ENERGY PREDICTED BY IDOCK:   -6.76 KCAL/MOL
REMARK 923 INTER-LIGAND FREE ENERGY PREDICTED BY IDOCK:   -6.28 KCAL/MOL
REMARK 924 INTRA-LIGAND FREE ENERGY PREDICTED BY IDOCK:   -0.48 KCAL/MOL
REMARK 927      BINDING AFFINITY PREDICTED BY RF-SCORE:    0.00 PKD
ROOT
HETATM    1  C   UNL     1     -12.414  13.752  65.637  1.00  0.00    -0.541 C  
HETATM    2  C   UNL     1     -11.027  14.395  65.592  1.00  0.00    -0.314 C  
HETATM    3  C   UNL     1     -11.068  15.638  64.700  1.00  0.00    -0.387 C  
ENDROOT
BRANCH   2   4
HETATM    4  N   UNL     1     -10.626  14.721  66.964  1.00  0.00    -0.285 NA 
HETATM    5  H   UNL     1     -10.004  15.529  66.977  1.00  0.00     0.000 HD 
BRANCH   4   6
HETATM    6  C   UNL     1     -11.763  14.926  67.873  1.00  0.00    -0.321 C  
BRANCH   6   7
HETATM    7  C   UNL     1     -11.522  14.193  69.206  1.00  0.00    -0.292 C  
HETATM    8  H   UNL     1     -12.443  14.027  70.942  1.00  0.00     0.000 HD 
HETATM    9  O   UNL     1     -12.592  14.479  70.119  1.00  0.00    -0.341 OA 
BRANCH   7  10
HETATM   10  C   UNL     1     -11.411  12.678  68.991  1.00  0.00    -0.303 C  
BRANCH  10  11
HETATM   11  O   UNL     1     -12.408  12.009  69.778  1.00  0.00    -0.172 OA 
BRANCH  11  12
HETATM   12  C   UNL     1     -12.000  10.888  70.453  1.00  0.00    -0.362 A  
HETATM   13  C   UNL     1     -10.742  10.295  70.360  1.00  0.00    -0.270 A  
HETATM   14  C   UNL     1     -10.461   9.117  71.061  1.00  0.00    -0.368 A  
HETATM   15  C   UNL     1     -11.436   8.510  71.862  1.00  0.00    -0.405 A  
HETATM   16  C   UNL     1     -12.683   9.134  71.991  1.00  0.00    -0.473 A  
HETATM   17  C   UNL     1     -12.963  10.310  71.285  1.00  0.00    -0.517 A  
BRANCH  15  18
HETATM   18  C   UNL     1     -11.159   7.175  72.518  1.00  0.00    -0.317 C  
BRANCH  18  19
HETATM   19  C   UNL     1     -10.286   6.179  71.780  1.00  0.00    -0.210 C  
HETATM   20  N   UNL     1      -9.051   5.894  72.273  1.00  0.00    -0.142 N  
HETATM   21  O   UNL     1     -10.671   5.624  70.754  1.00  0.00    -0.260 OA 
HETATM   22  H2  UNL     1      -8.718   6.344  73.126  1.00  0.00     0.000 HD 
HETATM   23  H1  UNL     1      -8.464   5.224  71.777  1.00  0.00     0.000 HD 
ENDBRANCH  18  19
ENDBRANCH  15  18
ENDBRANCH  11  12
ENDBRANCH  10  11
ENDBRANCH   7  10
ENDBRANCH   6   7
ENDBRANCH   4   6
ENDBRANCH   2   4
TORSDOF 8
ENDMDL
MODEL      103
REMARK 921   NORMALIZED FREE ENERGY PREDICTED BY IDOCK:   -4.20 KCAL/MOL
REMARK 922        TOTAL FREE ENERGY PREDICTED BY IDOCK:   -6.74 KCAL/MOL
REMARK 923 INTER-LIGAND FREE ENERGY PREDICTED BY IDOCK:   -6.23 KCAL/MOL
REMARK 924 INTRA-LIGAND FREE ENERGY PREDICTED BY IDOCK:   -0.52 KCAL/MOL
REMARK 927      BINDING AFFINITY PREDICTED BY RF-SCORE:    0.00 PKD
ROOT
HETATM    1  C   UNL     1      -5.742  19.033  67.024  1.00  0.00    -0.158 C  
HETATM    2  C   UNL     1      -6.630  18.648  68.208  1.00  0.00    -0.222 C  
HETATM    3  C   UNL     1      -6.902  19.885  69.067  1.00  0.00    -0.343 C  
ENDROOT
BRANCH   2   4
HETATM    4  N   UNL     1      -7.868  18.063  67.684  1.00  0.00    -0.218 NA 
HETATM    5  H   UNL     1      -7.707  17.628  66.776  1.00  0.00     0.000 HD 
BRANCH   4   6
HETATM    6  C   UNL     1      -8.505  17.116  68.610  1.00  0.00    -0.258 C  
BRANCH   6   7
HETATM    7  C   UNL     1     -10.021  17.383  68.690  1.00  0.00    -0.340 C  
HETATM    8  H   UNL     1     -11.195  18.954  68.892  1.00  0.00     0.000 HD 
HETATM    9  O   UNL     1     -10.260  18.790  68.843  1.00  0.00    -0.360 OA 
BRANCH   7  10
HETATM   10  C   UNL     1     -10.740  16.864  67.438  1.00  0.00    -0.241 C  
BRANCH  10  11
HETATM   11  O   UNL     1     -11.528  15.715  67.782  1.00  0.00    -0.307 OA 
BRANCH  11  12
HETATM   12  C   UNL     1     -11.368  14.608  66.990  1.00  0.00    -0.355 A  
HETATM   13  C   UNL     1     -12.371  13.985  66.249  1.00  0.00    -0.482 A  
HETATM   14  C   UNL     1     -12.095  12.824  65.518  1.00  0.00    -0.517 A  
HETATM   15  C   UNL     1     -10.811  12.264  65.520  1.00  0.00    -0.319 A  
HETATM   16  C   UNL     1      -9.795  12.920  66.226  1.00  0.00    -0.273 A  
HETATM   17  C   UNL     1     -10.075  14.078  66.960  1.00  0.00    -0.255 A  
BRANCH  15  18
HETATM   18  C   UNL     1     -10.555  10.946  64.825  1.00  0.00    -0.316 C  
BRANCH  18  19
HETATM   19  C   UNL     1      -9.941  10.972  63.438  1.00  0.00    -0.380 C  
HETATM   20  N   UNL     1      -9.581   9.797  62.856  1.00  0.00    -0.547 N  
HETATM   21  O   UNL     1      -9.768  12.026  62.832  1.00  0.00    -0.334 OA 
HETATM   22  H2  UNL     1      -9.721   8.912  63.344  1.00  0.00     0.000 HD 
HETATM   23  H1  UNL     1      -9.168   9.814  61.923  1.00  0.00     0.000 HD 
ENDBRANCH  18  19
ENDBRANCH  15  18
ENDBRANCH  11  12
ENDBRANCH  10  11
ENDBRANCH   7  10
ENDBRANCH   6   7
ENDBRANCH   4   6
ENDBRANCH   2   4
TORSDOF 8
ENDMDL
MODEL      104
REMARK 921   NORMALIZED FREE ENERGY PREDICTED BY IDOCK:   -4.19 KCAL/MOL
REMARK 922        TOTAL FREE ENERGY PREDICTED BY IDOCK:   -6.73 KCAL/MOL
REMARK 923 INTER-LIGAND FREE ENERGY PREDICTED BY IDOCK:   -6.28 KCAL/MOL
REMARK 924 INTRA-LIGAND FREE ENERGY PREDICTED BY IDOCK:   -0.44 KCAL/MOL
REMARK 927      BINDING AFFINITY PREDICTED BY RF-SCORE:    0.00 PKD
ROOT
HETATM    1  C   UNL     1     -10.574   7.240  73.325  1.00  0.00    -0.428 C  
HETATM    2  C   UNL     1     -10.507   8.212  72.146  1.00  0.00    -0.284 C  
HETATM    3  C   UNL     1     -10.316   7.426  70.846  1.00  0.00    -0.206 C  
ENDROOT
BRANCH   2   4
HETATM    4  N   UNL     1     -11.741   9.003  72.129  1.00  0.00    -0.341 NA 
HETATM    5  H   UNL     1     -11.614   9.881  72.634  1.00  0.00     0.000 HD 
BRANCH   4   6
HETATM    6  C   UNL     1     -12.260   9.250  70.777  1.00  0.00    -0.134 C  
BRANCH   6   7
HETATM    7  C   UNL     1     -12.903  10.648  70.697  1.00  0.00    -0.320 C  
HETATM    8  H   UNL     1     -13.668  11.952  71.962  1.00  0.00     0.000 HD 
HETATM    9  O   UNL     1     -13.272  11.090  72.012  1.00  0.00    -0.499 OA 
BRANCH   7  10
HETATM   10  C   UNL     1     -11.945  11.660  70.055  1.00  0.00    -0.351 C  
BRANCH  10  11
HETATM   11  O   UNL     1     -12.101  12.936  70.694  1.00  0.00    -0.349 OA 
BRANCH  11  12
HETATM   12  C   UNL     1     -11.834  14.038  69.924  1.00  0.00    -0.329 A  
HETATM   13  C   UNL     1     -11.889  14.092  68.533  1.00  0.00    -0.390 A  
HETATM   14  C   UNL     1     -11.541  15.266  67.855  1.00  0.00    -0.301 A  
HETATM   15  C   UNL     1     -11.126  16.404  68.558  1.00  0.00    -0.357 A  
HETATM   16  C   UNL     1     -11.117  16.361  69.958  1.00  0.00    -0.300 A  
HETATM   17  C   UNL     1     -11.462  15.184  70.633  1.00  0.00    -0.345 A  
BRANCH  15  18
HETATM   18  C   UNL     1     -10.639  17.624  67.811  1.00  0.00    -0.380 C  
BRANCH  18  19
HETATM   19  C   UNL     1      -9.417  17.484  66.924  1.00  0.00    -0.274 C  
HETATM   20  N   UNL     1      -8.270  16.983  67.457  1.00  0.00    -0.179 N  
HETATM   21  O   UNL     1      -9.443  17.809  65.739  1.00  0.00    -0.518 OA 
HETATM   22  H2  UNL     1      -8.233  16.705  68.438  1.00  0.00     0.000 HD 
HETATM   23  H1  UNL     1      -7.449  16.888  66.859  1.00  0.00     0.000 HD 
ENDBRANCH  18  19
ENDBRANCH  15  18
ENDBRANCH  11  12
ENDBRANCH  10  11
ENDBRANCH   7  10
ENDBRANCH   6   7
ENDBRANCH   4   6
ENDBRANCH   2   4
TORSDOF 8
ENDMDL
MODEL      105
REMARK 921   NORMALIZED FREE ENERGY PREDICTED BY IDOCK:   -4.18 KCAL/MOL
REMARK 922        TOTAL FREE ENERGY PREDICTED BY IDOCK:   -6.71 KCAL/MOL
REMARK 923 INTER-LIGAND FREE ENERGY PREDICTED BY IDOCK:   -5.81 KCAL/MOL
REMARK 924 INTRA-LIGAND FREE ENERGY PREDICTED BY IDOCK:   -0.90 KCAL/MOL
REMARK 927      BINDING AFFINITY PREDICTED BY RF-SCORE:    0.00 PKD
ROOT
HETATM    1  C   UNL     1      -7.662  14.155  68.413  1.00  0.00    -0.140 C  
HETATM    2  C   UNL     1      -7.196  13.083  67.426  1.00  0.00    -0.116 C  
HETATM    3  C   UNL     1      -6.511  11.948  68.191  1.00  0.00    -0.052 C  
ENDROOT
BRANCH   2   4
HETATM    4  N   UNL     1      -8.362  12.610  66.675  1.00  0.00    -0.412 NA 
HETATM    5  H   UNL     1      -8.089  12.295  65.744  1.00  0.00     0.000 HD 
BRANCH   4   6
HETATM    6  C   UNL     1      -9.124  11.566  67.374  1.00  0.00    -0.166 C  
BRANCH   6   7
HETATM    7  C   UNL     1     -10.318  11.107  66.515  1.00  0.00    -0.243 C  
HETATM    8  H   UNL     1     -11.041   9.395  65.856  1.00  0.00     0.000 HD 
HETATM    9  O   UNL     1     -10.304   9.678  66.386  1.00  0.00    -0.237 OA 
BRANCH   7  10
HETATM   10  C   UNL     1     -11.648  11.563  67.129  1.00  0.00    -0.167 C  
BRANCH  10  11
HETATM   11  O   UNL     1     -12.279  12.510  66.254  1.00  0.00    -0.600 OA 
BRANCH  11  12
HETATM   12  C   UNL     1     -11.719  13.760  66.205  1.00  0.00    -0.370 A  
HETATM   13  C   UNL     1     -11.282  14.411  65.052  1.00  0.00    -0.376 A  
HETATM   14  C   UNL     1     -10.675  15.669  65.136  1.00  0.00    -0.463 A  
HETATM   15  C   UNL     1     -10.491  16.295  66.375  1.00  0.00    -0.297 A  
HETATM   16  C   UNL     1     -10.974  15.660  67.526  1.00  0.00    -0.309 A  
HETATM   17  C   UNL     1     -11.576  14.399  67.439  1.00  0.00    -0.398 A  
BRANCH  15  18
HETATM   18  C   UNL     1      -9.728  17.598  66.464  1.00  0.00    -0.310 C  
BRANCH  18  19
HETATM   19  C   UNL     1     -10.518  18.891  66.515  1.00  0.00    -0.432 C  
HETATM   20  N   UNL     1     -10.798  19.538  65.351  1.00  0.00    -0.241 N  
HETATM   21  O   UNL     1     -10.910  19.363  67.579  1.00  0.00    -0.478 OA 
HETATM   22  H2  UNL     1     -10.482  19.159  64.459  1.00  0.00     0.000 HD 
HETATM   23  H1  UNL     1     -11.329  20.408  65.386  1.00  0.00     0.000 HD 
ENDBRANCH  18  19
ENDBRANCH  15  18
ENDBRANCH  11  12
ENDBRANCH  10  11
ENDBRANCH   7  10
ENDBRANCH   6   7
ENDBRANCH   4   6
ENDBRANCH   2   4
TORSDOF 8
ENDMDL
MODEL      106
REMARK 921   NORMALIZED FREE ENERGY PREDICTED BY IDOCK:   -4.17 KCAL/MOL
REMARK 922        TOTAL FREE ENERGY PREDICTED BY IDOCK:   -6.70 KCAL/MOL
REMARK 923 INTER-LIGAND FREE ENERGY PREDICTED BY IDOCK:   -6.22 KCAL/MOL
REMARK 924 INTRA-LIGAND FREE ENERGY PREDICTED BY IDOCK:   -0.48 KCAL/MOL
REMARK 927      BINDING AFFINITY PREDICTED BY RF-SCORE:    0.00 PKD
ROOT
HETATM    1  C   UNL     1      -9.642  14.759  68.080  1.00  0.00    -0.209 C  
HETATM    2  C   UNL     1      -9.768  15.764  69.226  1.00  0.00    -0.263 C  
HETATM    3  C   UNL     1     -10.633  16.945  68.779  1.00  0.00    -0.355 C  
ENDROOT
BRANCH   2   4
HETATM    4  N   UNL     1     -10.344  15.072  70.383  1.00  0.00    -0.506 NA 
HETATM    5  H   UNL     1      -9.618  14.831  71.058  1.00  0.00     0.000 HD 
BRANCH   4   6
HETATM    6  C   UNL     1     -11.428  15.822  71.032  1.00  0.00    -0.407 C  
BRANCH   6   7
HETATM    7  C   UNL     1     -12.627  14.895  71.313  1.00  0.00    -0.331 C  
HETATM    8  H   UNL     1     -14.591  15.059  71.356  1.00  0.00     0.000 HD 
HETATM    9  O   UNL     1     -13.852  15.631  71.183  1.00  0.00    -0.583 OA 
BRANCH   7  10
HETATM   10  C   UNL     1     -12.634  13.696  70.355  1.00  0.00    -0.227 C  
BRANCH  10  11
HETATM   11  O   UNL     1     -12.502  12.482  71.109  1.00  0.00    -0.345 OA 
BRANCH  11  12
HETATM   12  C   UNL     1     -11.991  11.402  70.438  1.00  0.00    -0.374 A  
HETATM   13  C   UNL     1     -11.605  10.193  71.015  1.00  0.00    -0.462 A  
HETATM   14  C   UNL     1     -11.045   9.179  70.230  1.00  0.00    -0.272 A  
HETATM   15  C   UNL     1     -10.856   9.360  68.854  1.00  0.00    -0.151 A  
HETATM   16  C   UNL     1     -11.288  10.557  68.269  1.00  0.00    -0.332 A  
HETATM   17  C   UNL     1     -11.844  11.571  69.058  1.00  0.00    -0.408 A  
BRANCH  15  18
HETATM   18  C   UNL     1     -10.141   8.306  68.039  1.00  0.00    -0.243 C  
BRANCH  18  19
HETATM   19  C   UNL     1     -10.539   6.856  68.231  1.00  0.00    -0.215 C  
HETATM   20  N   UNL     1     -10.203   6.228  69.389  1.00  0.00    -0.181 N  
HETATM   21  O   UNL     1     -11.160   6.241  67.367  1.00  0.00    -0.350 OA 
HETATM   22  H2  UNL     1      -9.690   6.725  70.118  1.00  0.00     0.000 HD 
HETATM   23  H1  UNL     1     -10.471   5.252  69.518  1.00  0.00     0.000 HD 
ENDBRANCH  18  19
ENDBRANCH  15  18
ENDBRANCH  11  12
ENDBRANCH  10  11
ENDBRANCH   7  10
ENDBRANCH   6   7
ENDBRANCH   4   6
ENDBRANCH   2   4
TORSDOF 8
ENDMDL
MODEL      107
REMARK 921   NORMALIZED FREE ENERGY PREDICTED BY IDOCK:   -4.15 KCAL/MOL
REMARK 922        TOTAL FREE ENERGY PREDICTED BY IDOCK:   -6.66 KCAL/MOL
REMARK 923 INTER-LIGAND FREE ENERGY PREDICTED BY IDOCK:   -5.58 KCAL/MOL
REMARK 924 INTRA-LIGAND FREE ENERGY PREDICTED BY IDOCK:   -1.08 KCAL/MOL
REMARK 927      BINDING AFFINITY PREDICTED BY RF-SCORE:    0.00 PKD
ROOT
HETATM    1  C   UNL     1      -9.440   4.855  68.223  1.00  0.00    -0.182 C  
HETATM    2  C   UNL     1      -9.766   6.002  69.180  1.00  0.00    -0.137 C  
HETATM    3  C   UNL     1     -11.268   6.298  69.130  1.00  0.00    -0.439 C  
ENDROOT
BRANCH   2   4
HETATM    4  N   UNL     1      -9.330   5.618  70.526  1.00  0.00    -0.158 NA 
HETATM    5  H   UNL     1      -9.350   6.421  71.155  1.00  0.00     0.000 HD 
BRANCH   4   6
HETATM    6  C   UNL     1     -10.091   4.495  71.089  1.00  0.00    -0.147 C  
BRANCH   6   7
HETATM    7  C   UNL     1     -10.697   4.888  72.450  1.00  0.00    -0.175 C  
HETATM    8  H   UNL     1     -11.121   3.982  74.150  1.00  0.00     0.000 HD 
HETATM    9  O   UNL     1     -10.747   3.740  73.310  1.00  0.00    -0.174 OA 
BRANCH   7  10
HETATM   10  C   UNL     1      -9.881   6.003  73.116  1.00  0.00    -0.169 C  
BRANCH  10  11
HETATM   11  O   UNL     1     -10.770   7.021  73.600  1.00  0.00    -0.362 OA 
BRANCH  11  12
HETATM   12  C   UNL     1     -11.123   7.996  72.704  1.00  0.00    -0.387 A  
HETATM   13  C   UNL     1     -12.422   8.435  72.448  1.00  0.00    -0.390 A  
HETATM   14  C   UNL     1     -12.662   9.404  71.468  1.00  0.00    -0.444 A  
HETATM   15  C   UNL     1     -11.608   9.946  70.722  1.00  0.00    -0.430 A  
HETATM   16  C   UNL     1     -10.300   9.538  71.014  1.00  0.00    -0.353 A  
HETATM   17  C   UNL     1     -10.063   8.565  71.993  1.00  0.00    -0.386 A  
BRANCH  15  18
HETATM   18  C   UNL     1     -11.892  10.902  69.585  1.00  0.00    -0.416 C  
BRANCH  18  19
HETATM   19  C   UNL     1     -10.960  10.894  68.389  1.00  0.00    -0.237 C  
HETATM   20  N   UNL     1     -10.977   9.824  67.549  1.00  0.00    -0.403 N  
HETATM   21  O   UNL     1     -10.198  11.830  68.163  1.00  0.00    -0.190 OA 
HETATM   22  H2  UNL     1     -11.606   9.040  67.721  1.00  0.00     0.000 HD 
HETATM   23  H1  UNL     1     -10.350   9.820  66.744  1.00  0.00     0.000 HD 
ENDBRANCH  18  19
ENDBRANCH  15  18
ENDBRANCH  11  12
ENDBRANCH  10  11
ENDBRANCH   7  10
ENDBRANCH   6   7
ENDBRANCH   4   6
ENDBRANCH   2   4
TORSDOF 8
ENDMDL
MODEL      108
REMARK 921   NORMALIZED FREE ENERGY PREDICTED BY IDOCK:   -4.15 KCAL/MOL
REMARK 922        TOTAL FREE ENERGY PREDICTED BY IDOCK:   -6.66 KCAL/MOL
REMARK 923 INTER-LIGAND FREE ENERGY PREDICTED BY IDOCK:   -5.98 KCAL/MOL
REMARK 924 INTRA-LIGAND FREE ENERGY PREDICTED BY IDOCK:   -0.68 KCAL/MOL
REMARK 927      BINDING AFFINITY PREDICTED BY RF-SCORE:    0.00 PKD
ROOT
HETATM    1  C   UNL     1      -7.158   4.160  67.623  1.00  0.00    -0.063 C  
HETATM    2  C   UNL     1      -8.497   4.584  67.018  1.00  0.00    -0.104 C  
HETATM    3  C   UNL     1      -9.536   3.484  67.253  1.00  0.00    -0.228 C  
ENDROOT
BRANCH   2   4
HETATM    4  N   UNL     1      -8.898   5.854  67.631  1.00  0.00    -0.107 NA 
HETATM    5  H   UNL     1      -9.200   6.520  66.919  1.00  0.00     0.000 HD 
BRANCH   4   6
HETATM    6  C   UNL     1      -9.926   5.703  68.670  1.00  0.00    -0.162 C  
BRANCH   6   7
HETATM    7  C   UNL     1     -10.990   6.808  68.536  1.00  0.00    -0.192 C  
HETATM    8  H   UNL     1     -11.647   8.311  69.630  1.00  0.00     0.000 HD 
HETATM    9  O   UNL     1     -10.990   7.629  69.713  1.00  0.00    -0.241 OA 
BRANCH   7  10
HETATM   10  C   UNL     1     -10.734   7.674  67.295  1.00  0.00    -0.274 C  
BRANCH  10  11
HETATM   11  O   UNL     1      -9.996   8.845  67.675  1.00  0.00    -0.172 OA 
BRANCH  11  12
HETATM   12  C   UNL     1     -10.552  10.051  67.336  1.00  0.00    -0.271 A  
HETATM   13  C   UNL     1     -11.243  10.900  68.199  1.00  0.00    -0.363 A  
HETATM   14  C   UNL     1     -11.813  12.085  67.722  1.00  0.00    -0.308 A  
HETATM   15  C   UNL     1     -11.707  12.438  66.371  1.00  0.00    -0.453 A  
HETATM   16  C   UNL     1     -10.973  11.607  65.516  1.00  0.00    -0.327 A  
HETATM   17  C   UNL     1     -10.407  10.420  65.996  1.00  0.00    -0.262 A  
BRANCH  15  18
HETATM   18  C   UNL     1     -12.429  13.657  65.844  1.00  0.00    -0.502 C  
BRANCH  18  19
HETATM   19  C   UNL     1     -11.806  14.419  64.690  1.00  0.00    -0.451 C  
HETATM   20  N   UNL     1     -12.425  14.403  63.479  1.00  0.00    -1.090 N  
HETATM   21  O   UNL     1     -10.761  15.051  64.827  1.00  0.00    -0.404 OA 
HETATM   22  H2  UNL     1     -13.294  13.886  63.349  1.00  0.00     0.000 HD 
HETATM   23  H1  UNL     1     -12.005  14.915  62.703  1.00  0.00     0.000 HD 
ENDBRANCH  18  19
ENDBRANCH  15  18
ENDBRANCH  11  12
ENDBRANCH  10  11
ENDBRANCH   7  10
ENDBRANCH   6   7
ENDBRANCH   4   6
ENDBRANCH   2   4
TORSDOF 8
ENDMDL
MODEL      109
REMARK 921   NORMALIZED FREE ENERGY PREDICTED BY IDOCK:   -4.14 KCAL/MOL
REMARK 922        TOTAL FREE ENERGY PREDICTED BY IDOCK:   -6.65 KCAL/MOL
REMARK 923 INTER-LIGAND FREE ENERGY PREDICTED BY IDOCK:   -6.33 KCAL/MOL
REMARK 924 INTRA-LIGAND FREE ENERGY PREDICTED BY IDOCK:   -0.33 KCAL/MOL
REMARK 927      BINDING AFFINITY PREDICTED BY RF-SCORE:    0.00 PKD
ROOT
HETATM    1  C   UNL     1      -7.574  19.591  66.175  1.00  0.00    -0.319 C  
HETATM    2  C   UNL     1      -7.112  18.904  67.461  1.00  0.00    -0.206 C  
HETATM    3  C   UNL     1      -6.853  19.959  68.540  1.00  0.00    -0.344 C  
ENDROOT
BRANCH   2   4
HETATM    4  N   UNL     1      -8.146  17.948  67.869  1.00  0.00    -0.239 NA 
HETATM    5  H   UNL     1      -7.804  17.345  68.618  1.00  0.00     0.000 HD 
BRANCH   4   6
HETATM    6  C   UNL     1      -9.413  18.585  68.252  1.00  0.00    -0.335 C  
BRANCH   6   7
HETATM    7  C   UNL     1     -10.606  17.727  67.787  1.00  0.00    -0.386 C  
HETATM    8  H   UNL     1     -11.203  16.889  66.105  1.00  0.00     0.000 HD 
HETATM    9  O   UNL     1     -10.468  17.418  66.392  1.00  0.00    -0.326 OA 
BRANCH   7  10
HETATM   10  C   UNL     1     -10.704  16.430  68.601  1.00  0.00    -0.317 C  
BRANCH  10  11
HETATM   11  O   UNL     1     -11.872  16.477  69.434  1.00  0.00     0.008 OA 
BRANCH  11  12
HETATM   12  C   UNL     1     -12.237  15.301  70.036  1.00  0.00    -0.349 A  
HETATM   13  C   UNL     1     -13.094  15.178  71.129  1.00  0.00    -0.515 A  
HETATM   14  C   UNL     1     -13.349  13.923  71.691  1.00  0.00    -0.437 A  
HETATM   15  C   UNL     1     -12.748  12.769  71.173  1.00  0.00    -0.355 A  
HETATM   16  C   UNL     1     -11.925  12.890  70.046  1.00  0.00    -0.380 A  
HETATM   17  C   UNL     1     -11.668  14.148  69.488  1.00  0.00    -0.364 A  
BRANCH  15  18
HETATM   18  C   UNL     1     -12.937  11.437  71.862  1.00  0.00    -0.466 C  
BRANCH  18  19
HETATM   19  C   UNL     1     -12.843  10.175  71.026  1.00  0.00    -0.382 C  
HETATM   20  N   UNL     1     -13.988   9.522  70.690  1.00  0.00    -0.345 N  
HETATM   21  O   UNL     1     -11.761   9.735  70.645  1.00  0.00    -0.272 OA 
HETATM   22  H2  UNL     1     -14.895   9.875  70.995  1.00  0.00     0.000 HD 
HETATM   23  H1  UNL     1     -13.925   8.673  70.128  1.00  0.00     0.000 HD 
ENDBRANCH  18  19
ENDBRANCH  15  18
ENDBRANCH  11  12
ENDBRANCH  10  11
ENDBRANCH   7  10
ENDBRANCH   6   7
ENDBRANCH   4   6
ENDBRANCH   2   4
TORSDOF 8
ENDMDL
MODEL      110
REMARK 921   NORMALIZED FREE ENERGY PREDICTED BY IDOCK:   -4.14 KCAL/MOL
REMARK 922        TOTAL FREE ENERGY PREDICTED BY IDOCK:   -6.65 KCAL/MOL
REMARK 923 INTER-LIGAND FREE ENERGY PREDICTED BY IDOCK:   -5.76 KCAL/MOL
REMARK 924 INTRA-LIGAND FREE ENERGY PREDICTED BY IDOCK:   -0.89 KCAL/MOL
REMARK 927      BINDING AFFINITY PREDICTED BY RF-SCORE:    0.00 PKD
ROOT
HETATM    1  C   UNL     1     -10.652   5.713  66.894  1.00  0.00    -0.367 C  
HETATM    2  C   UNL     1     -10.718   7.220  67.144  1.00  0.00    -0.343 C  
HETATM    3  C   UNL     1     -10.119   7.539  68.516  1.00  0.00    -0.198 C  
ENDROOT
BRANCH   2   4
HETATM    4  N   UNL     1      -9.996   7.898  66.063  1.00  0.00    -0.405 NA 
HETATM    5  H   UNL     1     -10.622   8.509  65.538  1.00  0.00     0.000 HD 
BRANCH   4   6
HETATM    6  C   UNL     1      -8.813   8.638  66.524  1.00  0.00    -0.138 C  
BRANCH   6   7
HETATM    7  C   UNL     1      -8.303   9.579  65.415  1.00  0.00    -0.139 C  
HETATM    8  H   UNL     1      -8.224   9.567  63.445  1.00  0.00     0.000 HD 
HETATM    9  O   UNL     1      -8.538   8.986  64.129  1.00  0.00    -0.191 OA 
BRANCH   7  10
HETATM   10  C   UNL     1      -8.992  10.947  65.493  1.00  0.00    -0.197 C  
BRANCH  10  11
HETATM   11  O   UNL     1     -10.386  10.764  65.780  1.00  0.00    -0.251 OA 
BRANCH  11  12
HETATM   12  C   UNL     1     -10.953  11.664  66.646  1.00  0.00    -0.299 A  
HETATM   13  C   UNL     1     -11.391  12.945  66.317  1.00  0.00    -0.364 A  
HETATM   14  C   UNL     1     -11.905  13.793  67.304  1.00  0.00    -0.436 A  
HETATM   15  C   UNL     1     -11.985  13.375  68.638  1.00  0.00    -0.362 A  
HETATM   16  C   UNL     1     -11.588  12.070  68.957  1.00  0.00    -0.370 A  
HETATM   17  C   UNL     1     -11.069  11.226  67.968  1.00  0.00    -0.325 A  
BRANCH  15  18
HETATM   18  C   UNL     1     -12.429  14.340  69.713  1.00  0.00    -0.264 C  
BRANCH  18  19
HETATM   19  C   UNL     1     -11.366  15.010  70.562  1.00  0.00    -0.276 C  
HETATM   20  N   UNL     1     -10.175  15.336  69.991  1.00  0.00    -0.468 N  
HETATM   21  O   UNL     1     -11.558  15.267  71.748  1.00  0.00    -0.371 OA 
HETATM   22  H2  UNL     1     -10.000  15.132  69.007  1.00  0.00     0.000 HD 
HETATM   23  H1  UNL     1      -9.460  15.786  70.562  1.00  0.00     0.000 HD 
ENDBRANCH  18  19
ENDBRANCH  15  18
ENDBRANCH  11  12
ENDBRANCH  10  11
ENDBRANCH   7  10
ENDBRANCH   6   7
ENDBRANCH   4   6
ENDBRANCH   2   4
TORSDOF 8
ENDMDL
MODEL      111
REMARK 921   NORMALIZED FREE ENERGY PREDICTED BY IDOCK:   -4.14 KCAL/MOL
REMARK 922        TOTAL FREE ENERGY PREDICTED BY IDOCK:   -6.65 KCAL/MOL
REMARK 923 INTER-LIGAND FREE ENERGY PREDICTED BY IDOCK:   -5.87 KCAL/MOL
REMARK 924 INTRA-LIGAND FREE ENERGY PREDICTED BY IDOCK:   -0.78 KCAL/MOL
REMARK 927      BINDING AFFINITY PREDICTED BY RF-SCORE:    0.00 PKD
ROOT
HETATM    1  C   UNL     1     -12.884  10.828  71.609  1.00  0.00    -0.562 C  
HETATM    2  C   UNL     1     -12.711   9.324  71.824  1.00  0.00    -0.381 C  
HETATM    3  C   UNL     1     -14.074   8.687  72.107  1.00  0.00    -0.511 C  
ENDROOT
BRANCH   2   4
HETATM    4  N   UNL     1     -12.081   8.757  70.628  1.00  0.00    -0.481 NA 
HETATM    5  H   UNL     1     -12.064   9.441  69.870  1.00  0.00     0.000 HD 
BRANCH   4   6
HETATM    6  C   UNL     1     -10.736   8.220  70.874  1.00  0.00    -0.218 C  
BRANCH   6   7
HETATM    7  C   UNL     1      -9.725   9.368  71.058  1.00  0.00    -0.223 C  
HETATM    8  H   UNL     1      -8.076   9.679  72.093  1.00  0.00     0.000 HD 
HETATM    9  O   UNL     1      -8.699   8.970  71.979  1.00  0.00    -0.367 OA 
BRANCH   7  10
HETATM   10  C   UNL     1      -9.095   9.769  69.717  1.00  0.00    -0.225 C  
BRANCH  10  11
HETATM   11  O   UNL     1     -10.134  10.057  68.769  1.00  0.00    -0.170 OA 
BRANCH  11  12
HETATM   12  C   UNL     1     -10.257  11.366  68.381  1.00  0.00    -0.198 A  
HETATM   13  C   UNL     1      -9.292  12.107  67.701  1.00  0.00    -0.187 A  
HETATM   14  C   UNL     1      -9.514  13.457  67.405  1.00  0.00    -0.222 A  
HETATM   15  C   UNL     1     -10.704  14.089  67.788  1.00  0.00    -0.248 A  
HETATM   16  C   UNL     1     -11.690  13.328  68.429  1.00  0.00    -0.389 A  
HETATM   17  C   UNL     1     -11.463  11.980  68.728  1.00  0.00    -0.355 A  
BRANCH  15  18
HETATM   18  C   UNL     1     -10.881  15.574  67.569  1.00  0.00    -0.306 C  
BRANCH  18  19
HETATM   19  C   UNL     1     -10.228  16.528  68.550  1.00  0.00    -0.266 C  
HETATM   20  N   UNL     1     -10.970  17.034  69.571  1.00  0.00    -0.335 N  
HETATM   21  O   UNL     1      -9.046  16.849  68.443  1.00  0.00    -0.227 OA 
HETATM   22  H2  UNL     1     -11.951  16.776  69.675  1.00  0.00     0.000 HD 
HETATM   23  H1  UNL     1     -10.530  17.677  70.230  1.00  0.00     0.000 HD 
ENDBRANCH  18  19
ENDBRANCH  15  18
ENDBRANCH  11  12
ENDBRANCH  10  11
ENDBRANCH   7  10
ENDBRANCH   6   7
ENDBRANCH   4   6
ENDBRANCH   2   4
TORSDOF 8
ENDMDL
MODEL      112
REMARK 921   NORMALIZED FREE ENERGY PREDICTED BY IDOCK:   -4.14 KCAL/MOL
REMARK 922        TOTAL FREE ENERGY PREDICTED BY IDOCK:   -6.65 KCAL/MOL
REMARK 923 INTER-LIGAND FREE ENERGY PREDICTED BY IDOCK:   -5.84 KCAL/MOL
REMARK 924 INTRA-LIGAND FREE ENERGY PREDICTED BY IDOCK:   -0.80 KCAL/MOL
REMARK 927      BINDING AFFINITY PREDICTED BY RF-SCORE:    0.00 PKD
ROOT
HETATM    1  C   UNL     1      -7.665  10.939  68.749  1.00  0.00    -0.129 C  
HETATM    2  C   UNL     1      -8.130   9.706  67.973  1.00  0.00    -0.105 C  
HETATM    3  C   UNL     1      -7.161   8.548  68.225  1.00  0.00    -0.086 C  
ENDROOT
BRANCH   2   4
HETATM    4  N   UNL     1      -9.494   9.379  68.401  1.00  0.00    -0.141 NA 
HETATM    5  H   UNL     1      -9.690   8.388  68.258  1.00  0.00     0.000 HD 
BRANCH   4   6
HETATM    6  C   UNL     1      -9.782   9.772  69.788  1.00  0.00    -0.229 C  
BRANCH   6   7
HETATM    7  C   UNL     1     -11.302   9.889  70.007  1.00  0.00    -0.249 C  
HETATM    8  H   UNL     1     -12.531   9.961  71.547  1.00  0.00     0.000 HD 
HETATM    9  O   UNL     1     -11.593   9.889  71.412  1.00  0.00    -0.374 OA 
BRANCH   7  10
HETATM   10  C   UNL     1     -11.856  11.166  69.360  1.00  0.00    -0.345 C  
BRANCH  10  11
HETATM   11  O   UNL     1     -11.942  10.982  67.939  1.00  0.00    -0.620 OA 
BRANCH  11  12
HETATM   12  C   UNL     1     -11.680  12.083  67.166  1.00  0.00    -0.273 A  
HETATM   13  C   UNL     1     -11.203  12.064  65.856  1.00  0.00    -0.385 A  
HETATM   14  C   UNL     1     -10.922  13.260  65.187  1.00  0.00    -0.314 A  
HETATM   15  C   UNL     1     -11.109  14.496  65.818  1.00  0.00    -0.324 A  
HETATM   16  C   UNL     1     -11.633  14.513  67.116  1.00  0.00    -0.406 A  
HETATM   17  C   UNL     1     -11.909  13.315  67.785  1.00  0.00    -0.394 A  
BRANCH  15  18
HETATM   18  C   UNL     1     -10.689  15.774  65.128  1.00  0.00    -0.455 C  
BRANCH  18  19
HETATM   19  C   UNL     1      -9.842  16.764  65.902  1.00  0.00    -0.249 C  
HETATM   20  N   UNL     1      -8.786  16.304  66.625  1.00  0.00    -0.230 N  
HETATM   21  O   UNL     1     -10.086  17.969  65.887  1.00  0.00    -0.536 OA 
HETATM   22  H2  UNL     1      -8.568  15.308  66.646  1.00  0.00     0.000 HD 
HETATM   23  H1  UNL     1      -8.216  16.971  67.146  1.00  0.00     0.000 HD 
ENDBRANCH  18  19
ENDBRANCH  15  18
ENDBRANCH  11  12
ENDBRANCH  10  11
ENDBRANCH   7  10
ENDBRANCH   6   7
ENDBRANCH   4   6
ENDBRANCH   2   4
TORSDOF 8
ENDMDL
MODEL      113
REMARK 921   NORMALIZED FREE ENERGY PREDICTED BY IDOCK:   -4.13 KCAL/MOL
REMARK 922        TOTAL FREE ENERGY PREDICTED BY IDOCK:   -6.63 KCAL/MOL
REMARK 923 INTER-LIGAND FREE ENERGY PREDICTED BY IDOCK:   -6.22 KCAL/MOL
REMARK 924 INTRA-LIGAND FREE ENERGY PREDICTED BY IDOCK:   -0.40 KCAL/MOL
REMARK 927      BINDING AFFINITY PREDICTED BY RF-SCORE:    0.00 PKD
ROOT
HETATM    1  C   UNL     1     -10.172  10.165  66.907  1.00  0.00    -0.295 C  
HETATM    2  C   UNL     1     -11.187  10.877  67.802  1.00  0.00    -0.317 C  
HETATM    3  C   UNL     1     -10.573  11.113  69.185  1.00  0.00    -0.238 C  
ENDROOT
BRANCH   2   4
HETATM    4  N   UNL     1     -11.572  12.134  67.154  1.00  0.00    -0.455 NA 
HETATM    5  H   UNL     1     -12.061  12.744  67.809  1.00  0.00     0.000 HD 
BRANCH   4   6
HETATM    6  C   UNL     1     -10.444  12.839  66.529  1.00  0.00    -0.263 C  
BRANCH   6   7
HETATM    7  C   UNL     1     -10.850  14.279  66.162  1.00  0.00    -0.310 C  
HETATM    8  H   UNL     1     -12.530  15.268  65.870  1.00  0.00     0.000 HD 
HETATM    9  O   UNL     1     -12.280  14.380  66.096  1.00  0.00    -0.403 OA 
BRANCH   7  10
HETATM   10  C   UNL     1     -10.302  15.284  67.183  1.00  0.00    -0.265 C  
BRANCH  10  11
HETATM   11  O   UNL     1     -10.990  16.535  67.038  1.00  0.00    -0.177 OA 
BRANCH  11  12
HETATM   12  C   UNL     1     -10.219  17.666  67.107  1.00  0.00    -0.342 A  
HETATM   13  C   UNL     1     -10.336  18.783  66.280  1.00  0.00    -0.497 A  
HETATM   14  C   UNL     1      -9.451  19.858  66.414  1.00  0.00    -0.513 A  
HETATM   15  C   UNL     1      -8.431  19.833  67.373  1.00  0.00    -0.360 A  
HETATM   16  C   UNL     1      -8.346  18.731  68.233  1.00  0.00    -0.360 A  
HETATM   17  C   UNL     1      -9.230  17.654  68.094  1.00  0.00    -0.282 A  
BRANCH  15  18
HETATM   18  C   UNL     1      -7.410  20.947  67.428  1.00  0.00    -0.369 C  
BRANCH  18  19
HETATM   19  C   UNL     1      -5.999  20.607  67.866  1.00  0.00    -0.268 C  
HETATM   20  N   UNL     1      -5.546  21.084  69.057  1.00  0.00    -0.355 N  
HETATM   21  O   UNL     1      -5.261  19.910  67.174  1.00  0.00    -0.158 OA 
HETATM   22  H2  UNL     1      -6.147  21.662  69.645  1.00  0.00     0.000 HD 
HETATM   23  H1  UNL     1      -4.597  20.856  69.352  1.00  0.00     0.000 HD 
ENDBRANCH  18  19
ENDBRANCH  15  18
ENDBRANCH  11  12
ENDBRANCH  10  11
ENDBRANCH   7  10
ENDBRANCH   6   7
ENDBRANCH   4   6
ENDBRANCH   2   4
TORSDOF 8
ENDMDL
MODEL      114
REMARK 921   NORMALIZED FREE ENERGY PREDICTED BY IDOCK:   -4.13 KCAL/MOL
REMARK 922        TOTAL FREE ENERGY PREDICTED BY IDOCK:   -6.63 KCAL/MOL
REMARK 923 INTER-LIGAND FREE ENERGY PREDICTED BY IDOCK:   -5.80 KCAL/MOL
REMARK 924 INTRA-LIGAND FREE ENERGY PREDICTED BY IDOCK:   -0.82 KCAL/MOL
REMARK 927      BINDING AFFINITY PREDICTED BY RF-SCORE:    0.00 PKD
ROOT
HETATM    1  C   UNL     1      -5.794  21.324  67.082  1.00  0.00    -0.403 C  
HETATM    2  C   UNL     1      -7.064  20.500  66.863  1.00  0.00    -0.290 C  
HETATM    3  C   UNL     1      -6.890  19.611  65.628  1.00  0.00    -0.313 C  
ENDROOT
BRANCH   2   4
HETATM    4  N   UNL     1      -7.315  19.711  68.073  1.00  0.00    -0.278 NA 
HETATM    5  H   UNL     1      -7.463  18.729  67.839  1.00  0.00     0.000 HD 
BRANCH   4   6
HETATM    6  C   UNL     1      -6.266  19.852  69.092  1.00  0.00    -0.309 C  
BRANCH   6   7
HETATM    7  C   UNL     1      -5.629  18.483  69.397  1.00  0.00    -0.220 C  
HETATM    8  H   UNL     1      -4.737  17.623  70.931  1.00  0.00     0.000 HD 
HETATM    9  O   UNL     1      -5.130  18.468  70.742  1.00  0.00    -0.227 OA 
BRANCH   7  10
HETATM   10  C   UNL     1      -6.641  17.347  69.202  1.00  0.00    -0.246 C  
BRANCH  10  11
HETATM   11  O   UNL     1      -6.351  16.654  67.979  1.00  0.00    -0.128 OA 
BRANCH  11  12
HETATM   12  C   UNL     1      -7.370  15.906  67.447  1.00  0.00    -0.193 A  
HETATM   13  C   UNL     1      -7.505  14.523  67.552  1.00  0.00    -0.216 A  
HETATM   14  C   UNL     1      -8.564  13.865  66.918  1.00  0.00    -0.138 A  
HETATM   15  C   UNL     1      -9.504  14.579  66.164  1.00  0.00    -0.290 A  
HETATM   16  C   UNL     1      -9.392  15.973  66.100  1.00  0.00    -0.377 A  
HETATM   17  C   UNL     1      -8.329  16.629  66.732  1.00  0.00    -0.270 A  
BRANCH  15  18
HETATM   18  C   UNL     1     -10.572  13.844  65.386  1.00  0.00    -0.344 C  
BRANCH  18  19
HETATM   19  C   UNL     1     -12.019  14.248  65.595  1.00  0.00    -0.386 C  
HETATM   20  N   UNL     1     -12.519  14.275  66.860  1.00  0.00    -0.543 N  
HETATM   21  O   UNL     1     -12.744  14.552  64.651  1.00  0.00    -0.630 OA 
HETATM   22  H2  UNL     1     -11.930  14.029  67.655  1.00  0.00     0.000 HD 
HETATM   23  H1  UNL     1     -13.492  14.547  67.000  1.00  0.00     0.000 HD 
ENDBRANCH  18  19
ENDBRANCH  15  18
ENDBRANCH  11  12
ENDBRANCH  10  11
ENDBRANCH   7  10
ENDBRANCH   6   7
ENDBRANCH   4   6
ENDBRANCH   2   4
TORSDOF 8
ENDMDL
MODEL      115
REMARK 921   NORMALIZED FREE ENERGY PREDICTED BY IDOCK:   -4.11 KCAL/MOL
REMARK 922        TOTAL FREE ENERGY PREDICTED BY IDOCK:   -6.61 KCAL/MOL
REMARK 923 INTER-LIGAND FREE ENERGY PREDICTED BY IDOCK:   -6.12 KCAL/MOL
REMARK 924 INTRA-LIGAND FREE ENERGY PREDICTED BY IDOCK:   -0.49 KCAL/MOL
REMARK 927      BINDING AFFINITY PREDICTED BY RF-SCORE:    0.00 PKD
ROOT
HETATM    1  C   UNL     1      -8.877  19.490  68.222  1.00  0.00    -0.383 C  
HETATM    2  C   UNL     1     -10.246  19.320  67.562  1.00  0.00    -0.414 C  
HETATM    3  C   UNL     1     -10.129  19.603  66.062  1.00  0.00    -0.553 C  
ENDROOT
BRANCH   2   4
HETATM    4  N   UNL     1     -10.718  17.957  67.825  1.00  0.00    -0.382 NA 
HETATM    5  H   UNL     1     -10.423  17.323  67.082  1.00  0.00     0.000 HD 
BRANCH   4   6
HETATM    6  C   UNL     1     -10.313  17.441  69.140  1.00  0.00    -0.271 C  
BRANCH   6   7
HETATM    7  C   UNL     1     -10.466  15.909  69.184  1.00  0.00    -0.235 C  
HETATM    8  H   UNL     1     -10.922  14.549  70.537  1.00  0.00     0.000 HD 
HETATM    9  O   UNL     1     -10.828  15.494  70.509  1.00  0.00    -0.316 OA 
BRANCH   7  10
HETATM   10  C   UNL     1     -11.523  15.430  68.180  1.00  0.00    -0.343 C  
BRANCH  10  11
HETATM   11  O   UNL     1     -10.971  14.382  67.369  1.00  0.00    -0.286 OA 
BRANCH  11  12
HETATM   12  C   UNL     1     -10.833  13.157  67.969  1.00  0.00    -0.242 A  
HETATM   13  C   UNL     1     -11.853  12.430  68.580  1.00  0.00    -0.352 A  
HETATM   14  C   UNL     1     -11.576  11.211  69.207  1.00  0.00    -0.388 A  
HETATM   15  C   UNL     1     -10.272  10.700  69.238  1.00  0.00    -0.235 A  
HETATM   16  C   UNL     1      -9.258  11.410  68.583  1.00  0.00    -0.149 A  
HETATM   17  C   UNL     1      -9.538  12.632  67.960  1.00  0.00    -0.213 A  
BRANCH  15  18
HETATM   18  C   UNL     1      -9.965   9.444  70.021  1.00  0.00    -0.253 C  
BRANCH  18  19
HETATM   19  C   UNL     1     -11.066   8.837  70.869  1.00  0.00    -0.268 C  
HETATM   20  N   UNL     1     -11.807   7.819  70.355  1.00  0.00    -0.484 N  
HETATM   21  O   UNL     1     -11.299   9.242  72.006  1.00  0.00    -0.349 OA 
HETATM   22  H2  UNL     1     -11.625   7.469  69.415  1.00  0.00     0.000 HD 
HETATM   23  H1  UNL     1     -12.548   7.411  70.926  1.00  0.00     0.000 HD 
ENDBRANCH  18  19
ENDBRANCH  15  18
ENDBRANCH  11  12
ENDBRANCH  10  11
ENDBRANCH   7  10
ENDBRANCH   6   7
ENDBRANCH   4   6
ENDBRANCH   2   4
TORSDOF 8
ENDMDL
MODEL      116
REMARK 921   NORMALIZED FREE ENERGY PREDICTED BY IDOCK:   -4.11 KCAL/MOL
REMARK 922        TOTAL FREE ENERGY PREDICTED BY IDOCK:   -6.60 KCAL/MOL
REMARK 923 INTER-LIGAND FREE ENERGY PREDICTED BY IDOCK:   -6.09 KCAL/MOL
REMARK 924 INTRA-LIGAND FREE ENERGY PREDICTED BY IDOCK:   -0.51 KCAL/MOL
REMARK 927      BINDING AFFINITY PREDICTED BY RF-SCORE:    0.00 PKD
ROOT
HETATM    1  C   UNL     1     -11.410  11.667  67.576  1.00  0.00    -0.364 C  
HETATM    2  C   UNL     1     -11.144  12.853  68.504  1.00  0.00    -0.267 C  
HETATM    3  C   UNL     1     -11.915  14.077  68.002  1.00  0.00    -0.386 C  
ENDROOT
BRANCH   2   4
HETATM    4  N   UNL     1     -11.544  12.475  69.862  1.00  0.00    -0.496 NA 
HETATM    5  H   UNL     1     -12.119  13.203  70.286  1.00  0.00     0.000 HD 
BRANCH   4   6
HETATM    6  C   UNL     1     -12.221  11.172  69.931  1.00  0.00    -0.314 C  
BRANCH   6   7
HETATM    7  C   UNL     1     -12.512  10.797  71.397  1.00  0.00    -0.373 C  
HETATM    8  H   UNL     1     -13.390  11.639  72.949  1.00  0.00     0.000 HD 
HETATM    9  O   UNL     1     -13.210  11.871  72.045  1.00  0.00    -0.495 OA 
BRANCH   7  10
HETATM   10  C   UNL     1     -13.341   9.509  71.483  1.00  0.00    -0.393 C  
BRANCH  10  11
HETATM   11  O   UNL     1     -12.865   8.706  72.573  1.00  0.00    -0.379 OA 
BRANCH  11  12
HETATM   12  C   UNL     1     -11.943   7.741  72.261  1.00  0.00    -0.309 A  
HETATM   13  C   UNL     1     -10.828   7.403  73.026  1.00  0.00    -0.423 A  
HETATM   14  C   UNL     1      -9.927   6.432  72.575  1.00  0.00    -0.183 A  
HETATM   15  C   UNL     1     -10.123   5.787  71.347  1.00  0.00    -0.249 A  
HETATM   16  C   UNL     1     -11.270   6.095  70.604  1.00  0.00    -0.387 A  
HETATM   17  C   UNL     1     -12.167   7.070  71.056  1.00  0.00    -0.419 A  
BRANCH  15  18
HETATM   18  C   UNL     1      -9.082   4.830  70.815  1.00  0.00    -0.178 C  
BRANCH  18  19
HETATM   19  C   UNL     1      -9.481   3.384  70.592  1.00  0.00    -0.173 C  
HETATM   20  N   UNL     1      -9.852   2.631  71.662  1.00  0.00    -0.159 N  
HETATM   21  O   UNL     1      -9.480   2.883  69.470  1.00  0.00    -0.149 OA 
HETATM   22  H2  UNL     1      -9.862   3.032  72.599  1.00  0.00     0.000 HD 
HETATM   23  H1  UNL     1     -10.121   1.658  71.511  1.00  0.00     0.000 HD 
ENDBRANCH  18  19
ENDBRANCH  15  18
ENDBRANCH  11  12
ENDBRANCH  10  11
ENDBRANCH   7  10
ENDBRANCH   6   7
ENDBRANCH   4   6
ENDBRANCH   2   4
TORSDOF 8
ENDMDL
MODEL      117
REMARK 921   NORMALIZED FREE ENERGY PREDICTED BY IDOCK:   -4.07 KCAL/MOL
REMARK 922        TOTAL FREE ENERGY PREDICTED BY IDOCK:   -6.55 KCAL/MOL
REMARK 923 INTER-LIGAND FREE ENERGY PREDICTED BY IDOCK:   -5.87 KCAL/MOL
REMARK 924 INTRA-LIGAND FREE ENERGY PREDICTED BY IDOCK:   -0.68 KCAL/MOL
REMARK 927      BINDING AFFINITY PREDICTED BY RF-SCORE:    0.00 PKD
ROOT
HETATM    1  C   UNL     1      -7.889  14.639  68.400  1.00  0.00    -0.131 C  
HETATM    2  C   UNL     1      -6.453  14.191  68.121  1.00  0.00    -0.126 C  
HETATM    3  C   UNL     1      -5.774  13.804  69.438  1.00  0.00    -0.090 C  
ENDROOT
BRANCH   2   4
HETATM    4  N   UNL     1      -6.494  13.070  67.178  1.00  0.00    -0.474 NA 
HETATM    5  H   UNL     1      -5.969  13.291  66.332  1.00  0.00     0.000 HD 
BRANCH   4   6
HETATM    6  C   UNL     1      -6.038  11.800  67.758  1.00  0.00    -0.061 C  
BRANCH   6   7
HETATM    7  C   UNL     1      -7.149  10.737  67.662  1.00  0.00    -0.091 C  
HETATM    8  H   UNL     1      -7.254   8.768  67.627  1.00  0.00     0.000 HD 
HETATM    9  O   UNL     1      -6.569   9.424  67.686  1.00  0.00    -0.062 OA 
BRANCH   7  10
HETATM   10  C   UNL     1      -8.155  10.884  68.810  1.00  0.00    -0.145 C  
BRANCH  10  11
HETATM   11  O   UNL     1      -9.421  10.340  68.408  1.00  0.00    -0.140 OA 
BRANCH  11  12
HETATM   12  C   UNL     1     -10.226  11.160  67.660  1.00  0.00    -0.181 A  
HETATM   13  C   UNL     1     -10.291  11.187  66.268  1.00  0.00    -0.299 A  
HETATM   14  C   UNL     1     -11.116  12.109  65.615  1.00  0.00    -0.360 A  
HETATM   15  C   UNL     1     -11.886  13.024  66.344  1.00  0.00    -0.465 A  
HETATM   16  C   UNL     1     -11.855  12.962  67.743  1.00  0.00    -0.391 A  
HETATM   17  C   UNL     1     -11.025  12.041  68.393  1.00  0.00    -0.276 A  
BRANCH  15  18
HETATM   18  C   UNL     1     -12.680  14.092  65.627  1.00  0.00    -0.515 C  
BRANCH  18  19
HETATM   19  C   UNL     1     -12.214  14.534  64.253  1.00  0.00    -0.415 C  
HETATM   20  N   UNL     1     -11.420  15.633  64.150  1.00  0.00    -0.831 N  
HETATM   21  O   UNL     1     -12.534  13.921  63.238  1.00  0.00    -0.817 OA 
HETATM   22  H2  UNL     1     -11.142  16.152  64.983  1.00  0.00     0.000 HD 
HETATM   23  H1  UNL     1     -11.106  15.930  63.225  1.00  0.00     0.000 HD 
ENDBRANCH  18  19
ENDBRANCH  15  18
ENDBRANCH  11  12
ENDBRANCH  10  11
ENDBRANCH   7  10
ENDBRANCH   6   7
ENDBRANCH   4   6
ENDBRANCH   2   4
TORSDOF 8
ENDMDL
MODEL      118
REMARK 921   NORMALIZED FREE ENERGY PREDICTED BY IDOCK:   -4.05 KCAL/MOL
REMARK 922        TOTAL FREE ENERGY PREDICTED BY IDOCK:   -6.51 KCAL/MOL
REMARK 923 INTER-LIGAND FREE ENERGY PREDICTED BY IDOCK:   -5.83 KCAL/MOL
REMARK 924 INTRA-LIGAND FREE ENERGY PREDICTED BY IDOCK:   -0.68 KCAL/MOL
REMARK 927      BINDING AFFINITY PREDICTED BY RF-SCORE:    0.00 PKD
ROOT
HETATM    1  C   UNL     1     -11.156   6.416  67.295  1.00  0.00    -0.416 C  
HETATM    2  C   UNL     1      -9.671   6.218  67.604  1.00  0.00    -0.119 C  
HETATM    3  C   UNL     1      -8.829   6.966  66.568  1.00  0.00    -0.148 C  
ENDROOT
BRANCH   2   4
HETATM    4  N   UNL     1      -9.415   6.698  68.965  1.00  0.00    -0.133 NA 
HETATM    5  H   UNL     1      -9.700   7.673  69.064  1.00  0.00     0.000 HD 
BRANCH   4   6
HETATM    6  C   UNL     1     -10.037   5.866  70.005  1.00  0.00    -0.198 C  
BRANCH   6   7
HETATM    7  C   UNL     1     -10.628   6.753  71.118  1.00  0.00    -0.224 C  
HETATM    8  H   UNL     1     -10.401   6.959  73.065  1.00  0.00     0.000 HD 
HETATM    9  O   UNL     1     -10.036   6.412  72.379  1.00  0.00    -0.171 OA 
BRANCH   7  10
HETATM   10  C   UNL     1     -10.399   8.241  70.819  1.00  0.00    -0.193 C  
BRANCH  10  11
HETATM   11  O   UNL     1     -11.558   8.782  70.169  1.00  0.00    -0.111 OA 
BRANCH  11  12
HETATM   12  C   UNL     1     -11.970  10.020  70.590  1.00  0.00    -0.313 A  
HETATM   13  C   UNL     1     -12.776  10.276  71.698  1.00  0.00    -0.561 A  
HETATM   14  C   UNL     1     -13.174  11.584  71.996  1.00  0.00    -0.443 A  
HETATM   15  C   UNL     1     -12.777  12.656  71.188  1.00  0.00    -0.347 A  
HETATM   16  C   UNL     1     -11.929  12.401  70.104  1.00  0.00    -0.376 A  
HETATM   17  C   UNL     1     -11.535  11.091  69.805  1.00  0.00    -0.387 A  
BRANCH  15  18
HETATM   18  C   UNL     1     -13.312  14.046  71.451  1.00  0.00    -0.387 C  
BRANCH  18  19
HETATM   19  C   UNL     1     -12.535  14.950  72.389  1.00  0.00    -0.343 C  
HETATM   20  N   UNL     1     -11.271  15.322  72.048  1.00  0.00    -0.496 N  
HETATM   21  O   UNL     1     -13.022  15.354  73.442  1.00  0.00    -0.468 OA 
HETATM   22  H2  UNL     1     -10.854  14.998  71.176  1.00  0.00     0.000 HD 
HETATM   23  H1  UNL     1     -10.749  15.930  72.679  1.00  0.00     0.000 HD 
ENDBRANCH  18  19
ENDBRANCH  15  18
ENDBRANCH  11  12
ENDBRANCH  10  11
ENDBRANCH   7  10
ENDBRANCH   6   7
ENDBRANCH   4   6
ENDBRANCH   2   4
TORSDOF 8
ENDMDL
MODEL      119
REMARK 921   NORMALIZED FREE ENERGY PREDICTED BY IDOCK:   -4.04 KCAL/MOL
REMARK 922        TOTAL FREE ENERGY PREDICTED BY IDOCK:   -6.50 KCAL/MOL
REMARK 923 INTER-LIGAND FREE ENERGY PREDICTED BY IDOCK:   -6.08 KCAL/MOL
REMARK 924 INTRA-LIGAND FREE ENERGY PREDICTED BY IDOCK:   -0.42 KCAL/MOL
REMARK 927      BINDING AFFINITY PREDICTED BY RF-SCORE:    0.00 PKD
ROOT
HETATM    1  C   UNL     1     -12.629  14.180  65.130  1.00  0.00    -0.426 C  
HETATM    2  C   UNL     1     -12.306  12.690  65.017  1.00  0.00    -0.497 C  
HETATM    3  C   UNL     1     -12.484  12.237  63.565  1.00  0.00    -0.642 C  
ENDROOT
BRANCH   2   4
HETATM    4  N   UNL     1     -10.935  12.478  65.491  1.00  0.00    -0.279 NA 
HETATM    5  H   UNL     1     -10.306  13.181  65.103  1.00  0.00     0.000 HD 
BRANCH   4   6
HETATM    6  C   UNL     1     -10.823  12.431  66.955  1.00  0.00    -0.251 C  
BRANCH   6   7
HETATM    7  C   UNL     1     -11.237  11.042  67.479  1.00  0.00    -0.302 C  
HETATM    8  H   UNL     1     -10.498   9.215  67.445  1.00  0.00     0.000 HD 
HETATM    9  O   UNL     1     -10.243  10.071  67.122  1.00  0.00    -0.203 OA 
BRANCH   7  10
HETATM   10  C   UNL     1     -11.426  11.061  69.002  1.00  0.00    -0.299 C  
BRANCH  10  11
HETATM   11  O   UNL     1     -10.416  10.248  69.618  1.00  0.00    -0.226 OA 
BRANCH  11  12
HETATM   12  C   UNL     1     -10.860   9.210  70.395  1.00  0.00    -0.242 A  
HETATM   13  C   UNL     1     -11.345   9.318  71.697  1.00  0.00    -0.467 A  
HETATM   14  C   UNL     1     -11.721   8.174  72.410  1.00  0.00    -0.461 A  
HETATM   15  C   UNL     1     -11.613   6.902  71.833  1.00  0.00    -0.321 A  
HETATM   16  C   UNL     1     -11.170   6.802  70.509  1.00  0.00    -0.370 A  
HETATM   17  C   UNL     1     -10.790   7.947  69.799  1.00  0.00    -0.202 A  
BRANCH  15  18
HETATM   18  C   UNL     1     -11.907   5.667  72.654  1.00  0.00    -0.192 C  
BRANCH  18  19
HETATM   19  C   UNL     1     -10.767   5.021  73.417  1.00  0.00    -0.273 C  
HETATM   20  N   UNL     1     -10.174   3.912  72.900  1.00  0.00    -0.155 N  
HETATM   21  O   UNL     1     -10.367   5.480  74.484  1.00  0.00    -0.269 OA 
HETATM   22  H2  UNL     1     -10.491   3.520  72.013  1.00  0.00     0.000 HD 
HETATM   23  H1  UNL     1      -9.406   3.477  73.413  1.00  0.00     0.000 HD 
ENDBRANCH  18  19
ENDBRANCH  15  18
ENDBRANCH  11  12
ENDBRANCH  10  11
ENDBRANCH   7  10
ENDBRANCH   6   7
ENDBRANCH   4   6
ENDBRANCH   2   4
TORSDOF 8
ENDMDL
MODEL      120
REMARK 921   NORMALIZED FREE ENERGY PREDICTED BY IDOCK:   -4.03 KCAL/MOL
REMARK 922        TOTAL FREE ENERGY PREDICTED BY IDOCK:   -6.49 KCAL/MOL
REMARK 923 INTER-LIGAND FREE ENERGY PREDICTED BY IDOCK:   -5.96 KCAL/MOL
REMARK 924 INTRA-LIGAND FREE ENERGY PREDICTED BY IDOCK:   -0.53 KCAL/MOL
REMARK 927      BINDING AFFINITY PREDICTED BY RF-SCORE:    0.00 PKD
ROOT
HETATM    1  C   UNL     1     -10.637  11.756  68.388  1.00  0.00    -0.239 C  
HETATM    2  C   UNL     1     -10.995  13.136  68.942  1.00  0.00    -0.230 C  
HETATM    3  C   UNL     1     -11.854  13.889  67.922  1.00  0.00    -0.413 C  
ENDROOT
BRANCH   2   4
HETATM    4  N   UNL     1     -11.696  12.953  70.216  1.00  0.00    -0.544 NA 
HETATM    5  H   UNL     1     -12.396  13.683  70.352  1.00  0.00     0.000 HD 
BRANCH   4   6
HETATM    6  C   UNL     1     -12.299  11.621  70.367  1.00  0.00    -0.288 C  
BRANCH   6   7
HETATM    7  C   UNL     1     -12.667  11.363  71.841  1.00  0.00    -0.160 C  
HETATM    8  H   UNL     1     -13.787  12.227  73.214  1.00  0.00     0.000 HD 
HETATM    9  O   UNL     1     -13.559  12.387  72.305  1.00  0.00    -0.504 OA 
BRANCH   7  10
HETATM   10  C   UNL     1     -13.318   9.985  72.014  1.00  0.00    -0.409 C  
BRANCH  10  11
HETATM   11  O   UNL     1     -12.364   9.074  72.580  1.00  0.00    -0.320 OA 
BRANCH  11  12
HETATM   12  C   UNL     1     -11.616   8.347  71.691  1.00  0.00    -0.289 A  
HETATM   13  C   UNL     1     -10.384   8.728  71.161  1.00  0.00    -0.315 A  
HETATM   14  C   UNL     1      -9.739   7.921  70.218  1.00  0.00    -0.183 A  
HETATM   15  C   UNL     1     -10.317   6.721  69.785  1.00  0.00    -0.226 A  
HETATM   16  C   UNL     1     -11.531   6.318  70.355  1.00  0.00    -0.414 A  
HETATM   17  C   UNL     1     -12.177   7.130  71.295  1.00  0.00    -0.403 A  
BRANCH  15  18
HETATM   18  C   UNL     1      -9.669   5.920  68.679  1.00  0.00    -0.155 C  
BRANCH  18  19
HETATM   19  C   UNL     1     -10.067   6.218  67.246  1.00  0.00    -0.163 C  
HETATM   20  N   UNL     1     -11.269   5.775  66.791  1.00  0.00    -0.541 N  
HETATM   21  O   UNL     1      -9.331   6.853  66.494  1.00  0.00    -0.159 OA 
HETATM   22  H2  UNL     1     -11.893   5.250  67.403  1.00  0.00     0.000 HD 
HETATM   23  H1  UNL     1     -11.537   5.976  65.827  1.00  0.00     0.000 HD 
ENDBRANCH  18  19
ENDBRANCH  15  18
ENDBRANCH  11  12
ENDBRANCH  10  11
ENDBRANCH   7  10
ENDBRANCH   6   7
ENDBRANCH   4   6
ENDBRANCH   2   4
TORSDOF 8
ENDMDL
MODEL      121
REMARK 921   NORMALIZED FREE ENERGY PREDICTED BY IDOCK:   -4.03 KCAL/MOL
REMARK 922        TOTAL FREE ENERGY PREDICTED BY IDOCK:   -6.49 KCAL/MOL
REMARK 923 INTER-LIGAND FREE ENERGY PREDICTED BY IDOCK:   -6.01 KCAL/MOL
REMARK 924 INTRA-LIGAND FREE ENERGY PREDICTED BY IDOCK:   -0.47 KCAL/MOL
REMARK 927      BINDING AFFINITY PREDICTED BY RF-SCORE:    0.00 PKD
ROOT
HETATM    1  C   UNL     1      -7.924   8.066  65.546  1.00  0.00    -0.117 C  
HETATM    2  C   UNL     1      -8.673   9.370  65.824  1.00  0.00    -0.158 C  
HETATM    3  C   UNL     1      -7.670  10.521  65.940  1.00  0.00    -0.148 C  
ENDROOT
BRANCH   2   4
HETATM    4  N   UNL     1      -9.634   9.590  64.740  1.00  0.00    -0.439 NA 
HETATM    5  H   UNL     1     -10.072   8.712  64.461  1.00  0.00     0.000 HD 
BRANCH   4   6
HETATM    6  C   UNL     1     -10.652  10.601  65.056  1.00  0.00    -0.117 C  
BRANCH   6   7
HETATM    7  C   UNL     1     -10.944  11.473  63.820  1.00  0.00    -0.409 C  
HETATM    8  H   UNL     1     -12.514  11.913  62.711  1.00  0.00     0.000 HD 
HETATM    9  O   UNL     1     -12.333  11.376  63.473  1.00  0.00    -0.185 OA 
BRANCH   7  10
HETATM   10  C   UNL     1     -10.572  12.939  64.078  1.00  0.00    -0.389 C  
BRANCH  10  11
HETATM   11  O   UNL     1     -11.720  13.643  64.571  1.00  0.00    -0.367 OA 
BRANCH  11  12
HETATM   12  C   UNL     1     -11.679  14.031  65.885  1.00  0.00    -0.366 A  
HETATM   13  C   UNL     1     -12.046  13.246  66.977  1.00  0.00    -0.375 A  
HETATM   14  C   UNL     1     -12.010  13.773  68.273  1.00  0.00    -0.392 A  
HETATM   15  C   UNL     1     -11.611  15.096  68.498  1.00  0.00    -0.354 A  
HETATM   16  C   UNL     1     -11.198  15.867  67.404  1.00  0.00    -0.134 A  
HETATM   17  C   UNL     1     -11.239  15.338  66.108  1.00  0.00    -0.225 A  
BRANCH  15  18
HETATM   18  C   UNL     1     -11.691  15.690  69.886  1.00  0.00    -0.372 C  
BRANCH  18  19
HETATM   19  C   UNL     1     -12.592  15.019  70.904  1.00  0.00    -0.356 C  
HETATM   20  N   UNL     1     -13.902  15.381  70.964  1.00  0.00    -0.797 N  
HETATM   21  O   UNL     1     -12.166  14.158  71.670  1.00  0.00    -0.314 OA 
HETATM   22  H2  UNL     1     -14.272  16.092  70.333  1.00  0.00     0.000 HD 
HETATM   23  H1  UNL     1     -14.508  14.929  71.649  1.00  0.00     0.000 HD 
ENDBRANCH  18  19
ENDBRANCH  15  18
ENDBRANCH  11  12
ENDBRANCH  10  11
ENDBRANCH   7  10
ENDBRANCH   6   7
ENDBRANCH   4   6
ENDBRANCH   2   4
TORSDOF 8
ENDMDL
MODEL      122
REMARK 921   NORMALIZED FREE ENERGY PREDICTED BY IDOCK:   -4.02 KCAL/MOL
REMARK 922        TOTAL FREE ENERGY PREDICTED BY IDOCK:   -6.47 KCAL/MOL
REMARK 923 INTER-LIGAND FREE ENERGY PREDICTED BY IDOCK:   -6.00 KCAL/MOL
REMARK 924 INTRA-LIGAND FREE ENERGY PREDICTED BY IDOCK:   -0.47 KCAL/MOL
REMARK 927      BINDING AFFINITY PREDICTED BY RF-SCORE:    0.00 PKD
ROOT
HETATM    1  C   UNL     1      -9.562   4.606  70.060  1.00  0.00    -0.259 C  
HETATM    2  C   UNL     1     -10.191   5.818  69.371  1.00  0.00    -0.234 C  
HETATM    3  C   UNL     1     -11.447   6.246  70.135  1.00  0.00    -0.452 C  
ENDROOT
BRANCH   2   4
HETATM    4  N   UNL     1      -9.192   6.889  69.320  1.00  0.00    -0.139 NA 
HETATM    5  H   UNL     1      -8.249   6.508  69.398  1.00  0.00     0.000 HD 
BRANCH   4   6
HETATM    6  C   UNL     1      -9.311   7.744  68.131  1.00  0.00    -0.145 C  
BRANCH   6   7
HETATM    7  C   UNL     1      -7.968   7.807  67.379  1.00  0.00    -0.119 C  
HETATM    8  H   UNL     1      -7.042   6.743  66.002  1.00  0.00     0.000 HD 
HETATM    9  O   UNL     1      -7.870   6.705  66.465  1.00  0.00    -0.100 OA 
BRANCH   7  10
HETATM   10  C   UNL     1      -7.822   9.131  66.618  1.00  0.00    -0.100 C  
BRANCH  10  11
HETATM   11  O   UNL     1      -8.506   9.036  65.361  1.00  0.00    -0.141 OA 
BRANCH  11  12
HETATM   12  C   UNL     1      -9.306  10.096  65.022  1.00  0.00    -0.243 A  
HETATM   13  C   UNL     1     -10.199  10.747  65.872  1.00  0.00    -0.319 A  
HETATM   14  C   UNL     1     -11.004  11.787  65.393  1.00  0.00    -0.352 A  
HETATM   15  C   UNL     1     -10.933  12.190  64.054  1.00  0.00    -0.438 A  
HETATM   16  C   UNL     1     -10.001  11.566  63.214  1.00  0.00    -0.435 A  
HETATM   17  C   UNL     1      -9.201  10.523  63.695  1.00  0.00    -0.298 A  
BRANCH  15  18
HETATM   18  C   UNL     1     -11.890  13.231  63.521  1.00  0.00    -0.477 C  
BRANCH  18  19
HETATM   19  C   UNL     1     -12.135  14.476  64.351  1.00  0.00    -0.472 C  
HETATM   20  N   UNL     1     -11.296  15.537  64.208  1.00  0.00    -0.743 N  
HETATM   21  O   UNL     1     -13.071  14.546  65.143  1.00  0.00    -0.538 OA 
HETATM   22  H2  UNL     1     -10.516  15.496  63.553  1.00  0.00     0.000 HD 
HETATM   23  H1  UNL     1     -11.461  16.375  64.767  1.00  0.00     0.000 HD 
ENDBRANCH  18  19
ENDBRANCH  15  18
ENDBRANCH  11  12
ENDBRANCH  10  11
ENDBRANCH   7  10
ENDBRANCH   6   7
ENDBRANCH   4   6
ENDBRANCH   2   4
TORSDOF 8
ENDMDL
MODEL      123
REMARK 921   NORMALIZED FREE ENERGY PREDICTED BY IDOCK:   -4.01 KCAL/MOL
REMARK 922        TOTAL FREE ENERGY PREDICTED BY IDOCK:   -6.46 KCAL/MOL
REMARK 923 INTER-LIGAND FREE ENERGY PREDICTED BY IDOCK:   -5.98 KCAL/MOL
REMARK 924 INTRA-LIGAND FREE ENERGY PREDICTED BY IDOCK:   -0.48 KCAL/MOL
REMARK 927      BINDING AFFINITY PREDICTED BY RF-SCORE:    0.00 PKD
ROOT
HETATM    1  C   UNL     1     -10.582  19.804  67.141  1.00  0.00    -0.577 C  
HETATM    2  C   UNL     1      -9.572  18.981  66.340  1.00  0.00    -0.353 C  
HETATM    3  C   UNL     1      -8.313  19.816  66.093  1.00  0.00    -0.368 C  
ENDROOT
BRANCH   2   4
HETATM    4  N   UNL     1      -9.277  17.757  67.091  1.00  0.00    -0.249 NA 
HETATM    5  H   UNL     1      -9.043  17.975  68.060  1.00  0.00     0.000 HD 
BRANCH   4   6
HETATM    6  C   UNL     1     -10.351  16.757  67.027  1.00  0.00    -0.300 C  
BRANCH   6   7
HETATM    7  C   UNL     1     -10.513  16.056  68.390  1.00  0.00    -0.263 C  
HETATM    8  H   UNL     1     -10.667  16.604  70.278  1.00  0.00     0.000 HD 
HETATM    9  O   UNL     1     -10.567  17.036  69.437  1.00  0.00    -0.335 OA 
BRANCH   7  10
HETATM   10  C   UNL     1     -11.780  15.192  68.418  1.00  0.00    -0.316 C  
BRANCH  10  11
HETATM   11  O   UNL     1     -11.905  14.486  67.175  1.00  0.00    -0.392 OA 
BRANCH  11  12
HETATM   12  C   UNL     1     -11.380  13.220  67.139  1.00  0.00    -0.317 A  
HETATM   13  C   UNL     1     -10.979  12.473  68.245  1.00  0.00    -0.270 A  
HETATM   14  C   UNL     1     -10.407  11.208  68.076  1.00  0.00    -0.208 A  
HETATM   15  C   UNL     1     -10.220  10.670  66.796  1.00  0.00    -0.284 A  
HETATM   16  C   UNL     1     -10.668  11.403  65.690  1.00  0.00    -0.301 A  
HETATM   17  C   UNL     1     -11.236  12.671  65.862  1.00  0.00    -0.350 A  
BRANCH  15  18
HETATM   18  C   UNL     1      -9.492   9.357  66.620  1.00  0.00    -0.230 C  
BRANCH  18  19
HETATM   19  C   UNL     1      -9.879   8.195  67.514  1.00  0.00    -0.177 C  
HETATM   20  N   UNL     1     -10.963   7.442  67.184  1.00  0.00    -0.548 N  
HETATM   21  O   UNL     1      -9.235   7.918  68.523  1.00  0.00    -0.139 OA 
HETATM   22  H2  UNL     1     -11.507   7.657  66.348  1.00  0.00     0.000 HD 
HETATM   23  H1  UNL     1     -11.223   6.661  67.786  1.00  0.00     0.000 HD 
ENDBRANCH  18  19
ENDBRANCH  15  18
ENDBRANCH  11  12
ENDBRANCH  10  11
ENDBRANCH   7  10
ENDBRANCH   6   7
ENDBRANCH   4   6
ENDBRANCH   2   4
TORSDOF 8
ENDMDL
MODEL      124
REMARK 921   NORMALIZED FREE ENERGY PREDICTED BY IDOCK:   -4.01 KCAL/MOL
REMARK 922        TOTAL FREE ENERGY PREDICTED BY IDOCK:   -6.46 KCAL/MOL
REMARK 923 INTER-LIGAND FREE ENERGY PREDICTED BY IDOCK:   -5.99 KCAL/MOL
REMARK 924 INTRA-LIGAND FREE ENERGY PREDICTED BY IDOCK:   -0.47 KCAL/MOL
REMARK 927      BINDING AFFINITY PREDICTED BY RF-SCORE:    0.00 PKD
ROOT
HETATM    1  C   UNL     1      -9.558   5.013  70.139  1.00  0.00    -0.257 C  
HETATM    2  C   UNL     1      -9.839   5.921  71.337  1.00  0.00    -0.168 C  
HETATM    3  C   UNL     1      -8.884   7.118  71.306  1.00  0.00    -0.129 C  
ENDROOT
BRANCH   2   4
HETATM    4  N   UNL     1     -11.242   6.341  71.278  1.00  0.00    -0.288 NA 
HETATM    5  H   UNL     1     -11.652   6.362  72.212  1.00  0.00     0.000 HD 
BRANCH   4   6
HETATM    6  C   UNL     1     -11.441   7.625  70.593  1.00  0.00    -0.258 C  
BRANCH   6   7
HETATM    7  C   UNL     1     -12.348   8.545  71.432  1.00  0.00    -0.297 C  
HETATM    8  H   UNL     1     -12.715   8.844  73.346  1.00  0.00     0.000 HD 
HETATM    9  O   UNL     1     -12.155   8.277  72.829  1.00  0.00    -0.353 OA 
BRANCH   7  10
HETATM   10  C   UNL     1     -12.058  10.023  71.140  1.00  0.00    -0.380 C  
BRANCH  10  11
HETATM   11  O   UNL     1     -11.172  10.122  70.015  1.00  0.00    -0.259 OA 
BRANCH  11  12
HETATM   12  C   UNL     1     -11.385  11.174  69.163  1.00  0.00    -0.273 A  
HETATM   13  C   UNL     1     -11.750  12.466  69.540  1.00  0.00    -0.388 A  
HETATM   14  C   UNL     1     -11.991  13.445  68.570  1.00  0.00    -0.363 A  
HETATM   15  C   UNL     1     -11.878  13.147  67.206  1.00  0.00    -0.420 A  
HETATM   16  C   UNL     1     -11.466  11.862  66.833  1.00  0.00    -0.390 A  
HETATM   17  C   UNL     1     -11.229  10.883  67.805  1.00  0.00    -0.384 A  
BRANCH  15  18
HETATM   18  C   UNL     1     -12.258  14.178  66.168  1.00  0.00    -0.465 C  
BRANCH  18  19
HETATM   19  C   UNL     1     -11.208  15.183  65.734  1.00  0.00    -0.287 C  
HETATM   20  N   UNL     1     -10.643  15.991  66.671  1.00  0.00    -0.316 N  
HETATM   21  O   UNL     1     -10.857  15.278  64.561  1.00  0.00    -0.315 OA 
HETATM   22  H2  UNL     1     -10.922  15.922  67.650  1.00  0.00     0.000 HD 
HETATM   23  H1  UNL     1      -9.937  16.667  66.379  1.00  0.00     0.000 HD 
ENDBRANCH  18  19
ENDBRANCH  15  18
ENDBRANCH  11  12
ENDBRANCH  10  11
ENDBRANCH   7  10
ENDBRANCH   6   7
ENDBRANCH   4   6
ENDBRANCH   2   4
TORSDOF 8
ENDMDL
MODEL      125
REMARK 921   NORMALIZED FREE ENERGY PREDICTED BY IDOCK:   -4.00 KCAL/MOL
REMARK 922        TOTAL FREE ENERGY PREDICTED BY IDOCK:   -6.44 KCAL/MOL
REMARK 923 INTER-LIGAND FREE ENERGY PREDICTED BY IDOCK:   -6.00 KCAL/MOL
REMARK 924 INTRA-LIGAND FREE ENERGY PREDICTED BY IDOCK:   -0.44 KCAL/MOL
REMARK 927      BINDING AFFINITY PREDICTED BY RF-SCORE:    0.00 PKD
ROOT
HETATM    1  C   UNL     1      -7.366   5.027  68.224  1.00  0.00    -0.074 C  
HETATM    2  C   UNL     1      -7.242   6.544  68.382  1.00  0.00    -0.085 C  
HETATM    3  C   UNL     1      -6.511   7.126  67.170  1.00  0.00    -0.057 C  
ENDROOT
BRANCH   2   4
HETATM    4  N   UNL     1      -8.589   7.104  68.528  1.00  0.00    -0.124 NA 
HETATM    5  H   UNL     1      -9.280   6.508  68.070  1.00  0.00     0.000 HD 
BRANCH   4   6
HETATM    6  C   UNL     1      -8.968   7.361  69.924  1.00  0.00    -0.141 C  
BRANCH   6   7
HETATM    7  C   UNL     1      -9.362   8.839  70.108  1.00  0.00    -0.169 C  
HETATM    8  H   UNL     1      -8.933  10.559  69.244  1.00  0.00     0.000 HD 
HETATM    9  O   UNL     1      -8.691   9.647  69.130  1.00  0.00    -0.135 OA 
BRANCH   7  10
HETATM   10  C   UNL     1     -10.880   9.026  69.987  1.00  0.00    -0.231 C  
BRANCH  10  11
HETATM   11  O   UNL     1     -11.157  10.278  69.343  1.00  0.00    -0.228 OA 
BRANCH  11  12
HETATM   12  C   UNL     1     -11.764  11.236  70.112  1.00  0.00    -0.343 A  
HETATM   13  C   UNL     1     -12.512  11.002  71.265  1.00  0.00    -0.475 A  
HETATM   14  C   UNL     1     -13.129  12.063  71.937  1.00  0.00    -0.475 A  
HETATM   15  C   UNL     1     -13.014  13.375  71.463  1.00  0.00    -0.429 A  
HETATM   16  C   UNL     1     -12.223  13.613  70.332  1.00  0.00    -0.434 A  
HETATM   17  C   UNL     1     -11.610  12.550  69.660  1.00  0.00    -0.323 A  
BRANCH  15  18
HETATM   18  C   UNL     1     -13.783  14.495  72.128  1.00  0.00    -0.547 C  
BRANCH  18  19
HETATM   19  C   UNL     1     -13.156  15.189  73.321  1.00  0.00    -0.505 C  
HETATM   20  N   UNL     1     -13.714  16.340  73.782  1.00  0.00    -0.776 N  
HETATM   21  O   UNL     1     -12.161  14.733  73.880  1.00  0.00    -0.449 OA 
HETATM   22  H2  UNL     1     -14.542  16.731  73.331  1.00  0.00     0.000 HD 
HETATM   23  H1  UNL     1     -13.292  16.807  74.585  1.00  0.00     0.000 HD 
ENDBRANCH  18  19
ENDBRANCH  15  18
ENDBRANCH  11  12
ENDBRANCH  10  11
ENDBRANCH   7  10
ENDBRANCH   6   7
ENDBRANCH   4   6
ENDBRANCH   2   4
TORSDOF 8
ENDMDL
MODEL      126
REMARK 921   NORMALIZED FREE ENERGY PREDICTED BY IDOCK:   -3.99 KCAL/MOL
REMARK 922        TOTAL FREE ENERGY PREDICTED BY IDOCK:   -6.42 KCAL/MOL
REMARK 923 INTER-LIGAND FREE ENERGY PREDICTED BY IDOCK:   -6.11 KCAL/MOL
REMARK 924 INTRA-LIGAND FREE ENERGY PREDICTED BY IDOCK:   -0.31 KCAL/MOL
REMARK 927      BINDING AFFINITY PREDICTED BY RF-SCORE:    0.00 PKD
ROOT
HETATM    1  C   UNL     1     -10.693   5.016  66.205  1.00  0.00    -0.264 C  
HETATM    2  C   UNL     1      -9.252   5.525  66.160  1.00  0.00    -0.158 C  
HETATM    3  C   UNL     1      -8.482   4.783  65.064  1.00  0.00    -0.137 C  
ENDROOT
BRANCH   2   4
HETATM    4  N   UNL     1      -9.281   6.971  65.924  1.00  0.00    -0.375 NA 
HETATM    5  H   UNL     1      -9.428   7.173  64.934  1.00  0.00     0.000 HD 
BRANCH   4   6
HETATM    6  C   UNL     1     -10.266   7.680  66.752  1.00  0.00    -0.263 C  
BRANCH   6   7
HETATM    7  C   UNL     1      -9.889   9.168  66.877  1.00  0.00    -0.217 C  
HETATM    8  H   UNL     1      -9.632  10.693  65.653  1.00  0.00     0.000 HD 
HETATM    9  O   UNL     1      -9.865   9.774  65.576  1.00  0.00    -0.294 OA 
BRANCH   7  10
HETATM   10  C   UNL     1     -10.879   9.914  67.781  1.00  0.00    -0.264 C  
BRANCH  10  11
HETATM   11  O   UNL     1     -11.046  11.256  67.302  1.00  0.00    -0.274 OA 
BRANCH  11  12
HETATM   12  C   UNL     1     -11.457  12.185  68.223  1.00  0.00    -0.305 A  
HETATM   13  C   UNL     1     -11.804  11.920  69.546  1.00  0.00    -0.395 A  
HETATM   14  C   UNL     1     -12.262  12.948  70.378  1.00  0.00    -0.381 A  
HETATM   15  C   UNL     1     -12.385  14.258  69.898  1.00  0.00    -0.377 A  
HETATM   16  C   UNL     1     -11.991  14.529  68.581  1.00  0.00    -0.320 A  
HETATM   17  C   UNL     1     -11.538  13.498  67.750  1.00  0.00    -0.374 A  
BRANCH  15  18
HETATM   18  C   UNL     1     -12.993  15.334  70.768  1.00  0.00    -0.492 C  
BRANCH  18  19
HETATM   19  C   UNL     1     -12.386  15.581  72.136  1.00  0.00    -0.393 C  
HETATM   20  N   UNL     1     -12.887  14.912  73.209  1.00  0.00    -0.511 N  
HETATM   21  O   UNL     1     -11.454  16.366  72.292  1.00  0.00    -0.320 OA 
HETATM   22  H2  UNL     1     -13.659  14.255  73.095  1.00  0.00     0.000 HD 
HETATM   23  H1  UNL     1     -12.478  15.079  74.129  1.00  0.00     0.000 HD 
ENDBRANCH  18  19
ENDBRANCH  15  18
ENDBRANCH  11  12
ENDBRANCH  10  11
ENDBRANCH   7  10
ENDBRANCH   6   7
ENDBRANCH   4   6
ENDBRANCH   2   4
TORSDOF 8
ENDMDL
MODEL      127
REMARK 921   NORMALIZED FREE ENERGY PREDICTED BY IDOCK:   -3.98 KCAL/MOL
REMARK 922        TOTAL FREE ENERGY PREDICTED BY IDOCK:   -6.42 KCAL/MOL
REMARK 923 INTER-LIGAND FREE ENERGY PREDICTED BY IDOCK:   -5.99 KCAL/MOL
REMARK 924 INTRA-LIGAND FREE ENERGY PREDICTED BY IDOCK:   -0.43 KCAL/MOL
REMARK 927      BINDING AFFINITY PREDICTED BY RF-SCORE:    0.00 PKD
ROOT
HETATM    1  C   UNL     1      -9.774  18.225  68.398  1.00  0.00    -0.373 C  
HETATM    2  C   UNL     1     -10.236  18.697  67.018  1.00  0.00    -0.381 C  
HETATM    3  C   UNL     1      -9.434  19.934  66.606  1.00  0.00    -0.513 C  
ENDROOT
BRANCH   2   4
HETATM    4  N   UNL     1     -10.060  17.592  66.071  1.00  0.00    -0.515 NA 
HETATM    5  H   UNL     1      -9.178  17.686  65.565  1.00  0.00     0.000 HD 
BRANCH   4   6
HETATM    6  C   UNL     1     -10.163  16.265  66.694  1.00  0.00    -0.284 C  
BRANCH   6   7
HETATM    7  C   UNL     1     -11.142  15.377  65.903  1.00  0.00    -0.247 C  
HETATM    8  H   UNL     1     -11.052  14.175  64.342  1.00  0.00     0.000 HD 
HETATM    9  O   UNL     1     -10.448  14.723  64.830  1.00  0.00    -0.412 OA 
BRANCH   7  10
HETATM   10  C   UNL     1     -11.798  14.331  66.814  1.00  0.00    -0.426 C  
BRANCH  10  11
HETATM   11  O   UNL     1     -11.733  13.042  66.186  1.00  0.00    -0.354 OA 
BRANCH  11  12
HETATM   12  C   UNL     1     -11.457  11.978  67.005  1.00  0.00    -0.338 A  
HETATM   13  C   UNL     1     -10.824  10.797  66.620  1.00  0.00    -0.228 A  
HETATM   14  C   UNL     1     -10.646   9.758  67.539  1.00  0.00    -0.335 A  
HETATM   15  C   UNL     1     -11.102   9.880  68.857  1.00  0.00    -0.181 A  
HETATM   16  C   UNL     1     -11.695  11.085  69.253  1.00  0.00    -0.397 A  
HETATM   17  C   UNL     1     -11.876  12.122  68.330  1.00  0.00    -0.360 A  
BRANCH  15  18
HETATM   18  C   UNL     1     -11.011   8.706  69.806  1.00  0.00    -0.132 C  
BRANCH  18  19
HETATM   19  C   UNL     1      -9.731   8.517  70.596  1.00  0.00    -0.176 C  
HETATM   20  N   UNL     1      -9.574   9.191  71.767  1.00  0.00    -0.197 N  
HETATM   21  O   UNL     1      -8.838   7.769  70.204  1.00  0.00    -0.143 OA 
HETATM   22  H2  UNL     1     -10.307   9.813  72.109  1.00  0.00     0.000 HD 
HETATM   23  H1  UNL     1      -8.713   9.063  72.299  1.00  0.00     0.000 HD 
ENDBRANCH  18  19
ENDBRANCH  15  18
ENDBRANCH  11  12
ENDBRANCH  10  11
ENDBRANCH   7  10
ENDBRANCH   6   7
ENDBRANCH   4   6
ENDBRANCH   2   4
TORSDOF 8
ENDMDL
MODEL      128
REMARK 921   NORMALIZED FREE ENERGY PREDICTED BY IDOCK:   -3.97 KCAL/MOL
REMARK 922        TOTAL FREE ENERGY PREDICTED BY IDOCK:   -6.39 KCAL/MOL
REMARK 923 INTER-LIGAND FREE ENERGY PREDICTED BY IDOCK:   -5.78 KCAL/MOL
REMARK 924 INTRA-LIGAND FREE ENERGY PREDICTED BY IDOCK:   -0.61 KCAL/MOL
REMARK 927      BINDING AFFINITY PREDICTED BY RF-SCORE:    0.00 PKD
ROOT
HETATM    1  C   UNL     1     -11.030   9.607  70.686  1.00  0.00    -0.386 C  
HETATM    2  C   UNL     1     -12.023  10.701  70.290  1.00  0.00    -0.339 C  
HETATM    3  C   UNL     1     -12.799  11.159  71.528  1.00  0.00    -0.542 C  
ENDROOT
BRANCH   2   4
HETATM    4  N   UNL     1     -11.274  11.802  69.677  1.00  0.00    -0.456 NA 
HETATM    5  H   UNL     1     -10.292  11.552  69.563  1.00  0.00     0.000 HD 
BRANCH   4   6
HETATM    6  C   UNL     1     -11.846  12.259  68.402  1.00  0.00    -0.304 C  
BRANCH   6   7
HETATM    7  C   UNL     1     -10.817  12.099  67.266  1.00  0.00    -0.244 C  
HETATM    8  H   UNL     1     -10.858  11.695  65.337  1.00  0.00     0.000 HD 
HETATM    9  O   UNL     1     -11.493  11.794  66.038  1.00  0.00    -0.322 OA 
BRANCH   7  10
HETATM   10  C   UNL     1      -9.978  13.373  67.098  1.00  0.00    -0.242 C  
BRANCH  10  11
HETATM   11  O   UNL     1      -9.668  13.914  68.390  1.00  0.00    -0.222 OA 
BRANCH  11  12
HETATM   12  C   UNL     1      -9.537  15.276  68.464  1.00  0.00    -0.211 A  
HETATM   13  C   UNL     1     -10.580  16.187  68.625  1.00  0.00    -0.283 A  
HETATM   14  C   UNL     1     -10.325  17.562  68.633  1.00  0.00    -0.369 A  
HETATM   15  C   UNL     1      -9.022  18.051  68.474  1.00  0.00    -0.297 A  
HETATM   16  C   UNL     1      -7.971  17.133  68.360  1.00  0.00    -0.250 A  
HETATM   17  C   UNL     1      -8.230  15.757  68.348  1.00  0.00    -0.151 A  
BRANCH  15  18
HETATM   18  C   UNL     1      -8.775  19.538  68.364  1.00  0.00    -0.389 C  
BRANCH  18  19
HETATM   19  C   UNL     1      -7.354  20.017  68.140  1.00  0.00    -0.280 C  
HETATM   20  N   UNL     1      -6.863  20.055  66.872  1.00  0.00    -0.211 N  
HETATM   21  O   UNL     1      -6.641  20.373  69.076  1.00  0.00    -0.280 OA 
HETATM   22  H2  UNL     1      -7.442  19.766  66.084  1.00  0.00     0.000 HD 
HETATM   23  H1  UNL     1      -5.907  20.376  66.722  1.00  0.00     0.000 HD 
ENDBRANCH  18  19
ENDBRANCH  15  18
ENDBRANCH  11  12
ENDBRANCH  10  11
ENDBRANCH   7  10
ENDBRANCH   6   7
ENDBRANCH   4   6
ENDBRANCH   2   4
TORSDOF 8
ENDMDL
MODEL      129
REMARK 921   NORMALIZED FREE ENERGY PREDICTED BY IDOCK:   -3.94 KCAL/MOL
REMARK 922        TOTAL FREE ENERGY PREDICTED BY IDOCK:   -6.36 KCAL/MOL
REMARK 923 INTER-LIGAND FREE ENERGY PREDICTED BY IDOCK:   -5.79 KCAL/MOL
REMARK 924 INTRA-LIGAND FREE ENERGY PREDICTED BY IDOCK:   -0.56 KCAL/MOL
REMARK 927      BINDING AFFINITY PREDICTED BY RF-SCORE:    0.00 PKD
ROOT
HETATM    1  C   UNL     1     -10.223  10.924  63.890  1.00  0.00    -0.418 C  
HETATM    2  C   UNL     1     -10.668  12.340  63.522  1.00  0.00    -0.451 C  
HETATM    3  C   UNL     1     -12.190  12.372  63.360  1.00  0.00    -0.623 C  
ENDROOT
BRANCH   2   4
HETATM    4  N   UNL     1     -10.212  13.254  64.573  1.00  0.00    -0.592 NA 
HETATM    5  H   UNL     1      -9.845  14.116  64.169  1.00  0.00     0.000 HD 
BRANCH   4   6
HETATM    6  C   UNL     1     -11.241  13.549  65.580  1.00  0.00    -0.292 C  
BRANCH   6   7
HETATM    7  C   UNL     1     -10.701  13.271  66.996  1.00  0.00    -0.260 C  
HETATM    8  H   UNL     1     -10.691  14.195  68.737  1.00  0.00     0.000 HD 
HETATM    9  O   UNL     1     -11.024  14.367  67.864  1.00  0.00    -0.252 OA 
BRANCH   7  10
HETATM   10  C   UNL     1     -11.282  11.968  67.562  1.00  0.00    -0.294 C  
BRANCH  10  11
HETATM   11  O   UNL     1     -10.389  10.882  67.273  1.00  0.00    -0.197 OA 
BRANCH  11  12
HETATM   12  C   UNL     1     -10.537   9.754  68.037  1.00  0.00    -0.243 A  
HETATM   13  C   UNL     1     -10.736   9.725  69.417  1.00  0.00    -0.250 A  
HETATM   14  C   UNL     1     -10.819   8.504  70.094  1.00  0.00    -0.238 A  
HETATM   15  C   UNL     1     -10.701   7.291  69.405  1.00  0.00    -0.236 A  
HETATM   16  C   UNL     1     -10.549   7.323  68.013  1.00  0.00    -0.247 A  
HETATM   17  C   UNL     1     -10.461   8.546  67.338  1.00  0.00    -0.351 A  
BRANCH  15  18
HETATM   18  C   UNL     1     -10.672   5.983  70.163  1.00  0.00    -0.379 C  
BRANCH  18  19
HETATM   19  C   UNL     1      -9.779   5.879  71.384  1.00  0.00    -0.166 C  
HETATM   20  N   UNL     1      -8.465   6.213  71.268  1.00  0.00    -0.124 N  
HETATM   21  O   UNL     1     -10.215   5.505  72.469  1.00  0.00    -0.180 OA 
HETATM   22  H2  UNL     1      -8.088   6.528  70.375  1.00  0.00     0.000 HD 
HETATM   23  H1  UNL     1      -7.864   6.143  72.090  1.00  0.00     0.000 HD 
ENDBRANCH  18  19
ENDBRANCH  15  18
ENDBRANCH  11  12
ENDBRANCH  10  11
ENDBRANCH   7  10
ENDBRANCH   6   7
ENDBRANCH   4   6
ENDBRANCH   2   4
TORSDOF 8
ENDMDL
MODEL      130
REMARK 921   NORMALIZED FREE ENERGY PREDICTED BY IDOCK:   -3.92 KCAL/MOL
REMARK 922        TOTAL FREE ENERGY PREDICTED BY IDOCK:   -6.33 KCAL/MOL
REMARK 923 INTER-LIGAND FREE ENERGY PREDICTED BY IDOCK:   -5.89 KCAL/MOL
REMARK 924 INTRA-LIGAND FREE ENERGY PREDICTED BY IDOCK:   -0.44 KCAL/MOL
REMARK 927      BINDING AFFINITY PREDICTED BY RF-SCORE:    0.00 PKD
ROOT
HETATM    1  C   UNL     1      -7.650  20.637  67.208  1.00  0.00    -0.381 C  
HETATM    2  C   UNL     1      -7.264  19.560  66.194  1.00  0.00    -0.272 C  
HETATM    3  C   UNL     1      -6.056  18.776  66.716  1.00  0.00    -0.178 C  
ENDROOT
BRANCH   2   4
HETATM    4  N   UNL     1      -8.426  18.693  65.978  1.00  0.00    -0.495 NA 
HETATM    5  H   UNL     1      -8.131  17.742  65.755  1.00  0.00     0.000 HD 
BRANCH   4   6
HETATM    6  C   UNL     1      -9.374  18.694  67.100  1.00  0.00    -0.290 C  
BRANCH   6   7
HETATM    7  C   UNL     1     -10.525  17.707  66.830  1.00  0.00    -0.289 C  
HETATM    8  H   UNL     1     -11.358  16.868  65.252  1.00  0.00     0.000 HD 
HETATM    9  O   UNL     1     -10.648  17.477  65.419  1.00  0.00    -0.648 OA 
BRANCH   7  10
HETATM   10  C   UNL     1     -10.294  16.376  67.558  1.00  0.00    -0.288 C  
BRANCH  10  11
HETATM   11  O   UNL     1     -11.240  15.405  67.089  1.00  0.00    -0.326 OA 
BRANCH  11  12
HETATM   12  C   UNL     1     -10.793  14.112  67.000  1.00  0.00    -0.295 A  
HETATM   13  C   UNL     1      -9.461  13.706  67.066  1.00  0.00    -0.252 A  
HETATM   14  C   UNL     1      -9.123  12.357  66.908  1.00  0.00    -0.211 A  
HETATM   15  C   UNL     1     -10.111  11.393  66.676  1.00  0.00    -0.247 A  
HETATM   16  C   UNL     1     -11.452  11.798  66.657  1.00  0.00    -0.337 A  
HETATM   17  C   UNL     1     -11.787  13.149  66.811  1.00  0.00    -0.444 A  
BRANCH  15  18
HETATM   18  C   UNL     1      -9.724   9.960  66.387  1.00  0.00    -0.270 C  
BRANCH  18  19
HETATM   19  C   UNL     1      -8.770   9.690  65.240  1.00  0.00    -0.160 C  
HETATM   20  N   UNL     1      -9.266   9.611  63.976  1.00  0.00    -0.407 N  
HETATM   21  O   UNL     1      -7.564   9.546  65.428  1.00  0.00    -0.101 OA 
HETATM   22  H2  UNL     1     -10.264   9.732  63.802  1.00  0.00     0.000 HD 
HETATM   23  H1  UNL     1      -8.623   9.430  63.205  1.00  0.00     0.000 HD 
ENDBRANCH  18  19
ENDBRANCH  15  18
ENDBRANCH  11  12
ENDBRANCH  10  11
ENDBRANCH   7  10
ENDBRANCH   6   7
ENDBRANCH   4   6
ENDBRANCH   2   4
TORSDOF 8
ENDMDL
MODEL      131
REMARK 921   NORMALIZED FREE ENERGY PREDICTED BY IDOCK:   -3.92 KCAL/MOL
REMARK 922        TOTAL FREE ENERGY PREDICTED BY IDOCK:   -6.33 KCAL/MOL
REMARK 923 INTER-LIGAND FREE ENERGY PREDICTED BY IDOCK:   -5.91 KCAL/MOL
REMARK 924 INTRA-LIGAND FREE ENERGY PREDICTED BY IDOCK:   -0.42 KCAL/MOL
REMARK 927      BINDING AFFINITY PREDICTED BY RF-SCORE:    0.00 PKD
ROOT
HETATM    1  C   UNL     1     -10.276   3.218  63.910  1.00  0.00    -0.207 C  
HETATM    2  C   UNL     1      -9.537   3.825  65.103  1.00  0.00    -0.177 C  
HETATM    3  C   UNL     1      -8.605   4.937  64.616  1.00  0.00    -0.149 C  
ENDROOT
BRANCH   2   4
HETATM    4  N   UNL     1     -10.533   4.325  66.055  1.00  0.00    -0.448 NA 
HETATM    5  H   UNL     1     -11.055   3.554  66.471  1.00  0.00     0.000 HD 
BRANCH   4   6
HETATM    6  C   UNL     1      -9.963   5.190  67.098  1.00  0.00    -0.191 C  
BRANCH   6   7
HETATM    7  C   UNL     1     -10.985   6.262  67.523  1.00  0.00    -0.350 C  
HETATM    8  H   UNL     1     -11.897   6.798  69.187  1.00  0.00     0.000 HD 
HETATM    9  O   UNL     1     -11.267   6.136  68.924  1.00  0.00    -0.372 OA 
BRANCH   7  10
HETATM   10  C   UNL     1     -10.464   7.672  67.219  1.00  0.00    -0.326 C  
BRANCH  10  11
HETATM   11  O   UNL     1     -10.547   8.477  68.404  1.00  0.00    -0.193 OA 
BRANCH  11  12
HETATM   12  C   UNL     1     -10.926   9.783  68.228  1.00  0.00    -0.164 A  
HETATM   13  C   UNL     1     -10.884  10.487  67.026  1.00  0.00    -0.288 A  
HETATM   14  C   UNL     1     -11.248  11.838  66.983  1.00  0.00    -0.382 A  
HETATM   15  C   UNL     1     -11.655  12.508  68.143  1.00  0.00    -0.390 A  
HETATM   16  C   UNL     1     -11.741  11.785  69.340  1.00  0.00    -0.405 A  
HETATM   17  C   UNL     1     -11.372  10.435  69.380  1.00  0.00    -0.310 A  
BRANCH  15  18
HETATM   18  C   UNL     1     -11.930  13.994  68.107  1.00  0.00    -0.382 C  
BRANCH  18  19
HETATM   19  C   UNL     1     -11.644  14.809  69.354  1.00  0.00    -0.310 C  
HETATM   20  N   UNL     1     -12.686  15.345  70.043  1.00  0.00    -0.631 N  
HETATM   21  O   UNL     1     -10.496  14.989  69.754  1.00  0.00    -0.237 OA 
HETATM   22  H2  UNL     1     -13.645  15.202  69.726  1.00  0.00     0.000 HD 
HETATM   23  H1  UNL     1     -12.493  15.893  70.882  1.00  0.00     0.000 HD 
ENDBRANCH  18  19
ENDBRANCH  15  18
ENDBRANCH  11  12
ENDBRANCH  10  11
ENDBRANCH   7  10
ENDBRANCH   6   7
ENDBRANCH   4   6
ENDBRANCH   2   4
TORSDOF 8
ENDMDL
MODEL      132
REMARK 921   NORMALIZED FREE ENERGY PREDICTED BY IDOCK:   -3.92 KCAL/MOL
REMARK 922        TOTAL FREE ENERGY PREDICTED BY IDOCK:   -6.32 KCAL/MOL
REMARK 923 INTER-LIGAND FREE ENERGY PREDICTED BY IDOCK:   -5.76 KCAL/MOL
REMARK 924 INTRA-LIGAND FREE ENERGY PREDICTED BY IDOCK:   -0.56 KCAL/MOL
REMARK 927      BINDING AFFINITY PREDICTED BY RF-SCORE:    0.00 PKD
ROOT
HETATM    1  C   UNL     1     -13.354  14.755  72.830  1.00  0.00    -0.582 C  
HETATM    2  C   UNL     1     -13.182  14.720  71.311  1.00  0.00    -0.382 C  
HETATM    3  C   UNL     1     -12.365  15.935  70.861  1.00  0.00    -0.373 C  
ENDROOT
BRANCH   2   4
HETATM    4  N   UNL     1     -12.528  13.459  70.950  1.00  0.00    -0.371 NA 
HETATM    5  H   UNL     1     -11.527  13.502  71.143  1.00  0.00     0.000 HD 
BRANCH   4   6
HETATM    6  C   UNL     1     -13.131  12.283  71.592  1.00  0.00    -0.306 C  
BRANCH   6   7
HETATM    7  C   UNL     1     -12.274  11.030  71.329  1.00  0.00    -0.259 C  
HETATM    8  H   UNL     1     -12.407   9.096  71.689  1.00  0.00     0.000 HD 
HETATM    9  O   UNL     1     -12.936   9.869  71.851  1.00  0.00    -0.399 OA 
BRANCH   7  10
HETATM   10  C   UNL     1     -12.006  10.849  69.829  1.00  0.00    -0.351 C  
BRANCH  10  11
HETATM   11  O   UNL     1     -10.956  11.738  69.421  1.00  0.00    -0.211 OA 
BRANCH  11  12
HETATM   12  C   UNL     1     -10.396  11.494  68.193  1.00  0.00    -0.195 A  
HETATM   13  C   UNL     1     -11.058  11.560  66.969  1.00  0.00    -0.365 A  
HETATM   14  C   UNL     1     -10.389  11.236  65.783  1.00  0.00    -0.310 A  
HETATM   15  C   UNL     1      -9.047  10.836  65.804  1.00  0.00    -0.208 A  
HETATM   16  C   UNL     1      -8.371  10.817  67.030  1.00  0.00    -0.129 A  
HETATM   17  C   UNL     1      -9.045  11.137  68.215  1.00  0.00    -0.162 A  
BRANCH  15  18
HETATM   18  C   UNL     1      -8.371  10.375  64.533  1.00  0.00    -0.146 C  
BRANCH  18  19
HETATM   19  C   UNL     1      -9.073  10.625  63.213  1.00  0.00    -0.257 C  
HETATM   20  N   UNL     1      -9.745   9.601  62.620  1.00  0.00    -0.483 N  
HETATM   21  O   UNL     1      -9.052  11.728  62.672  1.00  0.00    -0.273 OA 
HETATM   22  H2  UNL     1      -9.775   8.680  63.057  1.00  0.00     0.000 HD 
HETATM   23  H1  UNL     1     -10.218   9.769  61.732  1.00  0.00     0.000 HD 
ENDBRANCH  18  19
ENDBRANCH  15  18
ENDBRANCH  11  12
ENDBRANCH  10  11
ENDBRANCH   7  10
ENDBRANCH   6   7
ENDBRANCH   4   6
ENDBRANCH   2   4
TORSDOF 8
ENDMDL
MODEL      133
REMARK 921   NORMALIZED FREE ENERGY PREDICTED BY IDOCK:   -3.92 KCAL/MOL
REMARK 922        TOTAL FREE ENERGY PREDICTED BY IDOCK:   -6.32 KCAL/MOL
REMARK 923 INTER-LIGAND FREE ENERGY PREDICTED BY IDOCK:   -5.91 KCAL/MOL
REMARK 924 INTRA-LIGAND FREE ENERGY PREDICTED BY IDOCK:   -0.42 KCAL/MOL
REMARK 927      BINDING AFFINITY PREDICTED BY RF-SCORE:    0.00 PKD
ROOT
HETATM    1  C   UNL     1     -11.340   6.755  70.882  1.00  0.00    -0.363 C  
HETATM    2  C   UNL     1     -10.626   8.075  70.587  1.00  0.00    -0.219 C  
HETATM    3  C   UNL     1      -9.113   7.845  70.572  1.00  0.00    -0.154 C  
ENDROOT
BRANCH   2   4
HETATM    4  N   UNL     1     -11.114   8.585  69.303  1.00  0.00    -0.432 NA 
HETATM    5  H   UNL     1     -12.030   9.020  69.411  1.00  0.00     0.000 HD 
BRANCH   4   6
HETATM    6  C   UNL     1     -10.176   9.505  68.645  1.00  0.00    -0.195 C  
BRANCH   6   7
HETATM    7  C   UNL     1     -10.887  10.282  67.520  1.00  0.00    -0.298 C  
HETATM    8  H   UNL     1     -12.437  11.490  67.365  1.00  0.00     0.000 HD 
HETATM    9  O   UNL     1     -11.998  11.011  68.059  1.00  0.00    -0.623 OA 
BRANCH   7  10
HETATM   10  C   UNL     1      -9.920  11.245  66.818  1.00  0.00    -0.206 C  
BRANCH  10  11
HETATM   11  O   UNL     1      -9.390  12.172  67.776  1.00  0.00    -0.180 OA 
BRANCH  11  12
HETATM   12  C   UNL     1      -9.733  13.488  67.605  1.00  0.00    -0.229 A  
HETATM   13  C   UNL     1      -9.606  14.215  66.423  1.00  0.00    -0.310 A  
HETATM   14  C   UNL     1      -9.942  15.573  66.387  1.00  0.00    -0.300 A  
HETATM   15  C   UNL     1     -10.407  16.227  67.534  1.00  0.00    -0.288 A  
HETATM   16  C   UNL     1     -10.578  15.482  68.708  1.00  0.00    -0.242 A  
HETATM   17  C   UNL     1     -10.237  14.125  68.742  1.00  0.00    -0.216 A  
BRANCH  15  18
HETATM   18  C   UNL     1     -10.652  17.719  67.513  1.00  0.00    -0.365 C  
BRANCH  18  19
HETATM   19  C   UNL     1     -10.144  18.515  66.327  1.00  0.00    -0.398 C  
HETATM   20  N   UNL     1      -8.870  18.990  66.350  1.00  0.00    -0.326 N  
HETATM   21  O   UNL     1     -10.854  18.734  65.348  1.00  0.00    -0.563 OA 
HETATM   22  H2  UNL     1      -8.266  18.815  67.152  1.00  0.00     0.000 HD 
HETATM   23  H1  UNL     1      -8.528  19.526  65.551  1.00  0.00     0.000 HD 
ENDBRANCH  18  19
ENDBRANCH  15  18
ENDBRANCH  11  12
ENDBRANCH  10  11
ENDBRANCH   7  10
ENDBRANCH   6   7
ENDBRANCH   4   6
ENDBRANCH   2   4
TORSDOF 8
ENDMDL
MODEL      134
REMARK 921   NORMALIZED FREE ENERGY PREDICTED BY IDOCK:   -3.91 KCAL/MOL
REMARK 922        TOTAL FREE ENERGY PREDICTED BY IDOCK:   -6.32 KCAL/MOL
REMARK 923 INTER-LIGAND FREE ENERGY PREDICTED BY IDOCK:   -5.89 KCAL/MOL
REMARK 924 INTRA-LIGAND FREE ENERGY PREDICTED BY IDOCK:   -0.42 KCAL/MOL
REMARK 927      BINDING AFFINITY PREDICTED BY RF-SCORE:    0.00 PKD
ROOT
HETATM    1  C   UNL     1     -10.928   6.590  67.198  1.00  0.00    -0.480 C  
HETATM    2  C   UNL     1      -9.703   7.420  66.812  1.00  0.00    -0.207 C  
HETATM    3  C   UNL     1      -8.867   6.651  65.785  1.00  0.00    -0.093 C  
ENDROOT
BRANCH   2   4
HETATM    4  N   UNL     1     -10.165   8.708  66.285  1.00  0.00    -0.408 NA 
HETATM    5  H   UNL     1     -11.083   8.612  65.851  1.00  0.00     0.000 HD 
BRANCH   4   6
HETATM    6  C   UNL     1     -10.173   9.781  67.289  1.00  0.00    -0.232 C  
BRANCH   6   7
HETATM    7  C   UNL     1     -10.446  11.140  66.617  1.00  0.00    -0.250 C  
HETATM    8  H   UNL     1     -10.769  11.800  64.787  1.00  0.00     0.000 HD 
HETATM    9  O   UNL     1     -10.600  10.961  65.202  1.00  0.00    -0.269 OA 
BRANCH   7  10
HETATM   10  C   UNL     1     -11.701  11.802  67.200  1.00  0.00    -0.188 C  
BRANCH  10  11
HETATM   11  O   UNL     1     -12.020  12.975  66.437  1.00  0.00    -0.391 OA 
BRANCH  11  12
HETATM   12  C   UNL     1     -11.582  14.170  66.946  1.00  0.00    -0.391 A  
HETATM   13  C   UNL     1     -11.728  14.595  68.266  1.00  0.00    -0.359 A  
HETATM   14  C   UNL     1     -11.284  15.864  68.655  1.00  0.00    -0.360 A  
HETATM   15  C   UNL     1     -10.693  16.732  67.728  1.00  0.00    -0.321 A  
HETATM   16  C   UNL     1     -10.506  16.284  66.415  1.00  0.00    -0.297 A  
HETATM   17  C   UNL     1     -10.954  15.015  66.028  1.00  0.00    -0.334 A  
BRANCH  15  18
HETATM   18  C   UNL     1     -10.329  18.142  68.132  1.00  0.00    -0.393 C  
BRANCH  18  19
HETATM   19  C   UNL     1      -9.248  18.858  67.346  1.00  0.00    -0.286 C  
HETATM   20  N   UNL     1      -9.611  19.791  66.425  1.00  0.00    -0.387 N  
HETATM   21  O   UNL     1      -8.056  18.618  67.526  1.00  0.00    -0.246 OA 
HETATM   22  H2  UNL     1     -10.596  20.005  66.265  1.00  0.00     0.000 HD 
HETATM   23  H1  UNL     1      -8.884  20.272  65.896  1.00  0.00     0.000 HD 
ENDBRANCH  18  19
ENDBRANCH  15  18
ENDBRANCH  11  12
ENDBRANCH  10  11
ENDBRANCH   7  10
ENDBRANCH   6   7
ENDBRANCH   4   6
ENDBRANCH   2   4
TORSDOF 8
ENDMDL
MODEL      135
REMARK 921   NORMALIZED FREE ENERGY PREDICTED BY IDOCK:   -3.90 KCAL/MOL
REMARK 922        TOTAL FREE ENERGY PREDICTED BY IDOCK:   -6.30 KCAL/MOL
REMARK 923 INTER-LIGAND FREE ENERGY PREDICTED BY IDOCK:   -5.79 KCAL/MOL
REMARK 924 INTRA-LIGAND FREE ENERGY PREDICTED BY IDOCK:   -0.51 KCAL/MOL
REMARK 927      BINDING AFFINITY PREDICTED BY RF-SCORE:    0.00 PKD
ROOT
HETATM    1  C   UNL     1      -7.710   4.246  69.839  1.00  0.00    -0.053 C  
HETATM    2  C   UNL     1      -8.251   4.108  68.415  1.00  0.00    -0.083 C  
HETATM    3  C   UNL     1      -7.998   2.686  67.907  1.00  0.00    -0.062 C  
ENDROOT
BRANCH   2   4
HETATM    4  N   UNL     1      -9.680   4.435  68.432  1.00  0.00    -0.134 NA 
HETATM    5  H   UNL     1      -9.870   5.191  69.091  1.00  0.00     0.000 HD 
BRANCH   4   6
HETATM    6  C   UNL     1     -10.223   4.754  67.104  1.00  0.00    -0.130 C  
BRANCH   6   7
HETATM    7  C   UNL     1     -10.550   6.257  67.006  1.00  0.00    -0.318 C  
HETATM    8  H   UNL     1     -11.067   7.699  68.247  1.00  0.00     0.000 HD 
HETATM    9  O   UNL     1     -10.865   6.772  68.308  1.00  0.00    -0.234 OA 
BRANCH   7  10
HETATM   10  C   UNL     1      -9.375   7.039  66.405  1.00  0.00    -0.138 C  
BRANCH  10  11
HETATM   11  O   UNL     1      -9.271   8.316  67.051  1.00  0.00    -0.141 OA 
BRANCH  11  12
HETATM   12  C   UNL     1      -9.613   9.409  66.298  1.00  0.00    -0.234 A  
HETATM   13  C   UNL     1      -9.304   9.599  64.952  1.00  0.00    -0.306 A  
HETATM   14  C   UNL     1      -9.663  10.786  64.304  1.00  0.00    -0.357 A  
HETATM   15  C   UNL     1     -10.332  11.806  64.993  1.00  0.00    -0.325 A  
HETATM   16  C   UNL     1     -10.682  11.592  66.332  1.00  0.00    -0.316 A  
HETATM   17  C   UNL     1     -10.318  10.405  66.979  1.00  0.00    -0.295 A  
BRANCH  15  18
HETATM   18  C   UNL     1     -10.606  13.129  64.315  1.00  0.00    -0.432 C  
BRANCH  18  19
HETATM   19  C   UNL     1     -12.038  13.463  63.943  1.00  0.00    -0.455 C  
HETATM   20  N   UNL     1     -12.412  14.769  63.873  1.00  0.00    -1.049 N  
HETATM   21  O   UNL     1     -12.861  12.583  63.701  1.00  0.00    -0.731 OA 
HETATM   22  H2  UNL     1     -11.741  15.511  64.068  1.00  0.00     0.000 HD 
HETATM   23  H1  UNL     1     -13.376  14.993  63.623  1.00  0.00     0.000 HD 
ENDBRANCH  18  19
ENDBRANCH  15  18
ENDBRANCH  11  12
ENDBRANCH  10  11
ENDBRANCH   7  10
ENDBRANCH   6   7
ENDBRANCH   4   6
ENDBRANCH   2   4
TORSDOF 8
ENDMDL
MODEL      136
REMARK 921   NORMALIZED FREE ENERGY PREDICTED BY IDOCK:   -3.90 KCAL/MOL
REMARK 922        TOTAL FREE ENERGY PREDICTED BY IDOCK:   -6.29 KCAL/MOL
REMARK 923 INTER-LIGAND FREE ENERGY PREDICTED BY IDOCK:   -5.85 KCAL/MOL
REMARK 924 INTRA-LIGAND FREE ENERGY PREDICTED BY IDOCK:   -0.44 KCAL/MOL
REMARK 927      BINDING AFFINITY PREDICTED BY RF-SCORE:    0.00 PKD
ROOT
HETATM    1  C   UNL     1      -9.290   3.735  71.769  1.00  0.00    -0.196 C  
HETATM    2  C   UNL     1     -10.591   4.304  72.337  1.00  0.00    -0.075 C  
HETATM    3  C   UNL     1     -10.822   3.746  73.744  1.00  0.00    -0.320 C  
ENDROOT
BRANCH   2   4
HETATM    4  N   UNL     1     -10.493   5.767  72.340  1.00  0.00    -0.203 NA 
HETATM    5  H   UNL     1      -9.706   6.077  71.770  1.00  0.00     0.000 HD 
BRANCH   4   6
HETATM    6  C   UNL     1     -11.732   6.437  71.923  1.00  0.00    -0.328 C  
BRANCH   6   7
HETATM    7  C   UNL     1     -11.761   7.885  72.451  1.00  0.00    -0.367 C  
HETATM    8  H   UNL     1     -10.450   9.198  73.116  1.00  0.00     0.000 HD 
HETATM    9  O   UNL     1     -10.432   8.305  72.791  1.00  0.00    -0.333 OA 
BRANCH   7  10
HETATM   10  C   UNL     1     -12.360   8.839  71.410  1.00  0.00    -0.306 C  
BRANCH  10  11
HETATM   11  O   UNL     1     -11.644  10.083  71.435  1.00  0.00    -0.368 OA 
BRANCH  11  12
HETATM   12  C   UNL     1     -11.582  10.773  70.252  1.00  0.00    -0.338 A  
HETATM   13  C   UNL     1     -11.909  12.117  70.076  1.00  0.00    -0.383 A  
HETATM   14  C   UNL     1     -11.855  12.698  68.804  1.00  0.00    -0.341 A  
HETATM   15  C   UNL     1     -11.479  11.943  67.686  1.00  0.00    -0.387 A  
HETATM   16  C   UNL     1     -11.106  10.606  67.874  1.00  0.00    -0.371 A  
HETATM   17  C   UNL     1     -11.165  10.026  69.147  1.00  0.00    -0.197 A  
BRANCH  15  18
HETATM   18  C   UNL     1     -11.541  12.549  66.302  1.00  0.00    -0.449 C  
BRANCH  18  19
HETATM   19  C   UNL     1     -10.648  13.736  65.996  1.00  0.00    -0.290 C  
HETATM   20  N   UNL     1     -11.204  14.859  65.467  1.00  0.00    -0.342 N  
HETATM   21  O   UNL     1      -9.440  13.705  66.219  1.00  0.00    -0.260 OA 
HETATM   22  H2  UNL     1     -12.206  14.902  65.280  1.00  0.00     0.000 HD 
HETATM   23  H1  UNL     1     -10.603  15.657  65.262  1.00  0.00     0.000 HD 
ENDBRANCH  18  19
ENDBRANCH  15  18
ENDBRANCH  11  12
ENDBRANCH  10  11
ENDBRANCH   7  10
ENDBRANCH   6   7
ENDBRANCH   4   6
ENDBRANCH   2   4
TORSDOF 8
ENDMDL
MODEL      137
REMARK 921   NORMALIZED FREE ENERGY PREDICTED BY IDOCK:   -3.87 KCAL/MOL
REMARK 922        TOTAL FREE ENERGY PREDICTED BY IDOCK:   -6.26 KCAL/MOL
REMARK 923 INTER-LIGAND FREE ENERGY PREDICTED BY IDOCK:   -4.97 KCAL/MOL
REMARK 924 INTRA-LIGAND FREE ENERGY PREDICTED BY IDOCK:   -1.29 KCAL/MOL
REMARK 927      BINDING AFFINITY PREDICTED BY RF-SCORE:    0.00 PKD
ROOT
HETATM    1  C   UNL     1      -8.207  11.821  68.245  1.00  0.00    -0.157 C  
HETATM    2  C   UNL     1      -8.188  11.573  66.736  1.00  0.00    -0.164 C  
HETATM    3  C   UNL     1      -7.721  10.141  66.459  1.00  0.00    -0.108 C  
ENDROOT
BRANCH   2   4
HETATM    4  N   UNL     1      -9.534  11.819  66.211  1.00  0.00    -0.220 NA 
HETATM    5  H   UNL     1     -10.176  11.080  66.501  1.00  0.00     0.000 HD 
BRANCH   4   6
HETATM    6  C   UNL     1     -10.068  13.141  66.566  1.00  0.00    -0.280 C  
BRANCH   6   7
HETATM    7  C   UNL     1     -11.585  13.054  66.823  1.00  0.00    -0.368 C  
HETATM    8  H   UNL     1     -13.158  12.301  65.902  1.00  0.00     0.000 HD 
HETATM    9  O   UNL     1     -12.222  12.355  65.744  1.00  0.00    -0.620 OA 
BRANCH   7  10
HETATM   10  C   UNL     1     -11.881  12.346  68.151  1.00  0.00    -0.315 C  
BRANCH  10  11
HETATM   11  O   UNL     1     -11.896  10.926  67.942  1.00  0.00    -0.590 OA 
BRANCH  11  12
HETATM   12  C   UNL     1     -11.392  10.156  68.958  1.00  0.00    -0.133 A  
HETATM   13  C   UNL     1     -11.529  10.414  70.321  1.00  0.00    -0.406 A  
HETATM   14  C   UNL     1     -10.922   9.579  71.265  1.00  0.00    -0.440 A  
HETATM   15  C   UNL     1     -10.162   8.474  70.861  1.00  0.00    -0.246 A  
HETATM   16  C   UNL     1     -10.066   8.190  69.493  1.00  0.00    -0.193 A  
HETATM   17  C   UNL     1     -10.671   9.030  68.551  1.00  0.00    -0.140 A  
BRANCH  15  18
HETATM   18  C   UNL     1      -9.413   7.651  71.884  1.00  0.00    -0.183 C  
BRANCH  18  19
HETATM   19  C   UNL     1      -7.966   8.004  72.171  1.00  0.00    -0.121 C  
HETATM   20  N   UNL     1      -7.007   7.060  71.973  1.00  0.00    -0.064 N  
HETATM   21  O   UNL     1      -7.645   9.119  72.573  1.00  0.00    -0.220 OA 
HETATM   22  H2  UNL     1      -7.256   6.130  71.637  1.00  0.00     0.000 HD 
HETATM   23  H1  UNL     1      -6.034   7.298  72.166  1.00  0.00     0.000 HD 
ENDBRANCH  18  19
ENDBRANCH  15  18
ENDBRANCH  11  12
ENDBRANCH  10  11
ENDBRANCH   7  10
ENDBRANCH   6   7
ENDBRANCH   4   6
ENDBRANCH   2   4
TORSDOF 8
ENDMDL
MODEL      138
REMARK 921   NORMALIZED FREE ENERGY PREDICTED BY IDOCK:   -3.86 KCAL/MOL
REMARK 922        TOTAL FREE ENERGY PREDICTED BY IDOCK:   -6.24 KCAL/MOL
REMARK 923 INTER-LIGAND FREE ENERGY PREDICTED BY IDOCK:   -6.08 KCAL/MOL
REMARK 924 INTRA-LIGAND FREE ENERGY PREDICTED BY IDOCK:   -0.16 KCAL/MOL
REMARK 927      BINDING AFFINITY PREDICTED BY RF-SCORE:    0.00 PKD
ROOT
HETATM    1  C   UNL     1      -7.094   9.323  66.544  1.00  0.00    -0.085 C  
HETATM    2  C   UNL     1      -7.715  10.184  67.645  1.00  0.00    -0.091 C  
HETATM    3  C   UNL     1      -7.518  11.664  67.309  1.00  0.00    -0.143 C  
ENDROOT
BRANCH   2   4
HETATM    4  N   UNL     1      -9.134   9.834  67.759  1.00  0.00    -0.131 NA 
HETATM    5  H   UNL     1      -9.251   8.967  68.284  1.00  0.00     0.000 HD 
BRANCH   4   6
HETATM    6  C   UNL     1      -9.956  10.906  68.336  1.00  0.00    -0.178 C  
BRANCH   6   7
HETATM    7  C   UNL     1     -11.296  11.017  67.583  1.00  0.00    -0.281 C  
HETATM    8  H   UNL     1     -13.154  11.508  68.023  1.00  0.00     0.000 HD 
HETATM    9  O   UNL     1     -12.328  11.439  68.487  1.00  0.00    -0.504 OA 
BRANCH   7  10
HETATM   10  C   UNL     1     -11.192  12.003  66.412  1.00  0.00    -0.337 C  
BRANCH  10  11
HETATM   11  O   UNL     1     -12.059  13.120  66.650  1.00  0.00    -0.391 OA 
BRANCH  11  12
HETATM   12  C   UNL     1     -11.450  14.326  66.880  1.00  0.00    -0.363 A  
HETATM   13  C   UNL     1     -11.343  14.962  68.116  1.00  0.00    -0.326 A  
HETATM   14  C   UNL     1     -10.742  16.222  68.214  1.00  0.00    -0.322 A  
HETATM   15  C   UNL     1     -10.241  16.869  67.078  1.00  0.00    -0.297 A  
HETATM   16  C   UNL     1     -10.308  16.206  65.845  1.00  0.00    -0.384 A  
HETATM   17  C   UNL     1     -10.914  14.948  65.749  1.00  0.00    -0.345 A  
BRANCH  15  18
HETATM   18  C   UNL     1      -9.704  18.278  67.178  1.00  0.00    -0.307 C  
BRANCH  18  19
HETATM   19  C   UNL     1     -10.215  19.315  66.197  1.00  0.00    -0.470 C  
HETATM   20  N   UNL     1      -9.903  20.623  66.399  1.00  0.00    -0.584 N  
HETATM   21  O   UNL     1     -10.898  18.999  65.226  1.00  0.00    -0.540 OA 
HETATM   22  H2  UNL     1      -9.334  20.903  67.199  1.00  0.00     0.000 HD 
HETATM   23  H1  UNL     1     -10.247  21.321  65.739  1.00  0.00     0.000 HD 
ENDBRANCH  18  19
ENDBRANCH  15  18
ENDBRANCH  11  12
ENDBRANCH  10  11
ENDBRANCH   7  10
ENDBRANCH   6   7
ENDBRANCH   4   6
ENDBRANCH   2   4
TORSDOF 8
ENDMDL
MODEL      139
REMARK 921   NORMALIZED FREE ENERGY PREDICTED BY IDOCK:   -3.86 KCAL/MOL
REMARK 922        TOTAL FREE ENERGY PREDICTED BY IDOCK:   -6.24 KCAL/MOL
REMARK 923 INTER-LIGAND FREE ENERGY PREDICTED BY IDOCK:   -5.66 KCAL/MOL
REMARK 924 INTRA-LIGAND FREE ENERGY PREDICTED BY IDOCK:   -0.58 KCAL/MOL
REMARK 927      BINDING AFFINITY PREDICTED BY RF-SCORE:    0.00 PKD
ROOT
HETATM    1  C   UNL     1     -10.010   8.303  66.850  1.00  0.00    -0.343 C  
HETATM    2  C   UNL     1     -10.045   6.953  67.568  1.00  0.00    -0.174 C  
HETATM    3  C   UNL     1      -9.099   5.976  66.866  1.00  0.00    -0.126 C  
ENDROOT
BRANCH   2   4
HETATM    4  N   UNL     1      -9.669   7.167  68.969  1.00  0.00    -0.149 NA 
HETATM    5  H   UNL     1      -8.788   6.699  69.181  1.00  0.00     0.000 HD 
BRANCH   4   6
HETATM    6  C   UNL     1      -9.611   8.584  69.350  1.00  0.00    -0.170 C  
BRANCH   6   7
HETATM    7  C   UNL     1     -10.542   8.856  70.547  1.00  0.00    -0.220 C  
HETATM    8  H   UNL     1     -10.342   9.442  72.419  1.00  0.00     0.000 HD 
HETATM    9  O   UNL     1      -9.768   9.275  71.680  1.00  0.00    -0.257 OA 
BRANCH   7  10
HETATM   10  C   UNL     1     -11.586   9.926  70.203  1.00  0.00    -0.218 C  
BRANCH  10  11
HETATM   11  O   UNL     1     -10.947  11.209  70.126  1.00  0.00    -0.138 OA 
BRANCH  11  12
HETATM   12  C   UNL     1     -11.337  12.022  69.094  1.00  0.00    -0.281 A  
HETATM   13  C   UNL     1     -11.648  13.377  69.198  1.00  0.00    -0.365 A  
HETATM   14  C   UNL     1     -12.088  14.091  68.077  1.00  0.00    -0.312 A  
HETATM   15  C   UNL     1     -12.228  13.460  66.835  1.00  0.00    -0.343 A  
HETATM   16  C   UNL     1     -11.869  12.111  66.723  1.00  0.00    -0.304 A  
HETATM   17  C   UNL     1     -11.434  11.398  67.847  1.00  0.00    -0.361 A  
BRANCH  15  18
HETATM   18  C   UNL     1     -12.817  14.211  65.662  1.00  0.00    -0.402 C  
BRANCH  18  19
HETATM   19  C   UNL     1     -11.907  14.557  64.499  1.00  0.00    -0.446 C  
HETATM   20  N   UNL     1     -11.703  13.629  63.525  1.00  0.00    -0.667 N  
HETATM   21  O   UNL     1     -11.356  15.652  64.417  1.00  0.00    -0.382 OA 
HETATM   22  H2  UNL     1     -12.156  12.717  63.576  1.00  0.00     0.000 HD 
HETATM   23  H1  UNL     1     -11.091  13.862  62.743  1.00  0.00     0.000 HD 
ENDBRANCH  18  19
ENDBRANCH  15  18
ENDBRANCH  11  12
ENDBRANCH  10  11
ENDBRANCH   7  10
ENDBRANCH   6   7
ENDBRANCH   4   6
ENDBRANCH   2   4
TORSDOF 8
ENDMDL
MODEL      140
REMARK 921   NORMALIZED FREE ENERGY PREDICTED BY IDOCK:   -3.85 KCAL/MOL
REMARK 922        TOTAL FREE ENERGY PREDICTED BY IDOCK:   -6.22 KCAL/MOL
REMARK 923 INTER-LIGAND FREE ENERGY PREDICTED BY IDOCK:   -5.72 KCAL/MOL
REMARK 924 INTRA-LIGAND FREE ENERGY PREDICTED BY IDOCK:   -0.50 KCAL/MOL
REMARK 927      BINDING AFFINITY PREDICTED BY RF-SCORE:    0.00 PKD
ROOT
HETATM    1  C   UNL     1      -7.976   5.314  70.596  1.00  0.00    -0.103 C  
HETATM    2  C   UNL     1      -8.577   6.275  71.623  1.00  0.00    -0.133 C  
HETATM    3  C   UNL     1      -7.715   7.538  71.706  1.00  0.00    -0.085 C  
ENDROOT
BRANCH   2   4
HETATM    4  N   UNL     1      -9.953   6.579  71.220  1.00  0.00    -0.181 NA 
HETATM    5  H   UNL     1     -10.554   6.686  72.038  1.00  0.00     0.000 HD 
BRANCH   4   6
HETATM    6  C   UNL     1     -10.060   7.749  70.339  1.00  0.00    -0.194 C  
BRANCH   6   7
HETATM    7  C   UNL     1     -11.193   8.678  70.817  1.00  0.00    -0.261 C  
HETATM    8  H   UNL     1     -11.784   9.460  72.527  1.00  0.00     0.000 HD 
HETATM    9  O   UNL     1     -11.085   8.887  72.232  1.00  0.00    -0.339 OA 
BRANCH   7  10
HETATM   10  C   UNL     1     -11.148  10.026  70.085  1.00  0.00    -0.310 C  
BRANCH  10  11
HETATM   11  O   UNL     1     -10.015  10.053  69.204  1.00  0.00    -0.182 OA 
BRANCH  11  12
HETATM   12  C   UNL     1     -10.068  10.954  68.172  1.00  0.00    -0.173 A  
HETATM   13  C   UNL     1      -9.641  12.280  68.227  1.00  0.00    -0.212 A  
HETATM   14  C   UNL     1      -9.797  13.120  67.119  1.00  0.00    -0.235 A  
HETATM   15  C   UNL     1     -10.386  12.649  65.939  1.00  0.00    -0.295 A  
HETATM   16  C   UNL     1     -10.770  11.304  65.872  1.00  0.00    -0.291 A  
HETATM   17  C   UNL     1     -10.617  10.467  66.983  1.00  0.00    -0.305 A  
BRANCH  15  18
HETATM   18  C   UNL     1     -10.657  13.597  64.793  1.00  0.00    -0.436 C  
BRANCH  18  19
HETATM   19  C   UNL     1     -12.100  13.889  64.427  1.00  0.00    -0.443 C  
HETATM   20  N   UNL     1     -13.016  14.030  65.423  1.00  0.00    -0.743 N  
HETATM   21  O   UNL     1     -12.455  14.004  63.257  1.00  0.00    -0.795 OA 
HETATM   22  H2  UNL     1     -12.737  13.940  66.400  1.00  0.00     0.000 HD 
HETATM   23  H1  UNL     1     -13.986  14.226  65.176  1.00  0.00     0.000 HD 
ENDBRANCH  18  19
ENDBRANCH  15  18
ENDBRANCH  11  12
ENDBRANCH  10  11
ENDBRANCH   7  10
ENDBRANCH   6   7
ENDBRANCH   4   6
ENDBRANCH   2   4
TORSDOF 8
ENDMDL
MODEL      141
REMARK 921   NORMALIZED FREE ENERGY PREDICTED BY IDOCK:   -3.85 KCAL/MOL
REMARK 922        TOTAL FREE ENERGY PREDICTED BY IDOCK:   -6.22 KCAL/MOL
REMARK 923 INTER-LIGAND FREE ENERGY PREDICTED BY IDOCK:   -5.55 KCAL/MOL
REMARK 924 INTRA-LIGAND FREE ENERGY PREDICTED BY IDOCK:   -0.67 KCAL/MOL
REMARK 927      BINDING AFFINITY PREDICTED BY RF-SCORE:    0.00 PKD
ROOT
HETATM    1  C   UNL     1      -7.629   4.686  71.539  1.00  0.00    -0.082 C  
HETATM    2  C   UNL     1      -7.375   6.099  72.066  1.00  0.00    -0.093 C  
HETATM    3  C   UNL     1      -5.960   6.541  71.684  1.00  0.00    -0.037 C  
ENDROOT
BRANCH   2   4
HETATM    4  N   UNL     1      -8.395   6.991  71.506  1.00  0.00    -0.112 NA 
HETATM    5  H   UNL     1      -7.987   7.613  70.808  1.00  0.00     0.000 HD 
BRANCH   4   6
HETATM    6  C   UNL     1      -9.555   6.278  70.953  1.00  0.00    -0.176 C  
BRANCH   6   7
HETATM    7  C   UNL     1     -10.840   7.102  71.163  1.00  0.00    -0.239 C  
HETATM    8  H   UNL     1     -11.723   8.028  72.663  1.00  0.00     0.000 HD 
HETATM    9  O   UNL     1     -10.931   7.520  72.533  1.00  0.00    -0.263 OA 
BRANCH   7  10
HETATM   10  C   UNL     1     -10.867   8.328  70.241  1.00  0.00    -0.240 C  
BRANCH  10  11
HETATM   11  O   UNL     1      -9.988   8.108  69.129  1.00  0.00    -0.182 OA 
BRANCH  11  12
HETATM   12  C   UNL     1     -10.164   8.925  68.042  1.00  0.00    -0.213 A  
HETATM   13  C   UNL     1      -9.680   8.686  66.757  1.00  0.00    -0.298 A  
HETATM   14  C   UNL     1      -9.880   9.625  65.739  1.00  0.00    -0.373 A  
HETATM   15  C   UNL     1     -10.562  10.821  65.991  1.00  0.00    -0.224 A  
HETATM   16  C   UNL     1     -11.088  11.037  67.271  1.00  0.00    -0.359 A  
HETATM   17  C   UNL     1     -10.883  10.098  68.289  1.00  0.00    -0.297 A  
BRANCH  15  18
HETATM   18  C   UNL     1     -10.667  11.879  64.916  1.00  0.00    -0.350 C  
BRANCH  18  19
HETATM   19  C   UNL     1     -12.038  12.199  64.352  1.00  0.00    -0.357 C  
HETATM   20  N   UNL     1     -12.431  11.599  63.196  1.00  0.00    -0.949 N  
HETATM   21  O   UNL     1     -12.798  12.981  64.917  1.00  0.00    -0.706 OA 
HETATM   22  H2  UNL     1     -11.813  10.944  62.716  1.00  0.00     0.000 HD 
HETATM   23  H1  UNL     1     -13.353  11.814  62.817  1.00  0.00     0.000 HD 
ENDBRANCH  18  19
ENDBRANCH  15  18
ENDBRANCH  11  12
ENDBRANCH  10  11
ENDBRANCH   7  10
ENDBRANCH   6   7
ENDBRANCH   4   6
ENDBRANCH   2   4
TORSDOF 8
ENDMDL
MODEL      142
REMARK 921   NORMALIZED FREE ENERGY PREDICTED BY IDOCK:   -3.85 KCAL/MOL
REMARK 922        TOTAL FREE ENERGY PREDICTED BY IDOCK:   -6.22 KCAL/MOL
REMARK 923 INTER-LIGAND FREE ENERGY PREDICTED BY IDOCK:   -5.78 KCAL/MOL
REMARK 924 INTRA-LIGAND FREE ENERGY PREDICTED BY IDOCK:   -0.44 KCAL/MOL
REMARK 927      BINDING AFFINITY PREDICTED BY RF-SCORE:    0.00 PKD
ROOT
HETATM    1  C   UNL     1     -12.496  14.128  65.607  1.00  0.00    -0.490 C  
HETATM    2  C   UNL     1     -11.263  14.345  64.730  1.00  0.00    -0.387 C  
HETATM    3  C   UNL     1     -10.620  15.691  65.075  1.00  0.00    -0.422 C  
ENDROOT
BRANCH   2   4
HETATM    4  N   UNL     1     -10.340  13.227  64.948  1.00  0.00    -0.425 NA 
HETATM    5  H   UNL     1      -9.502  13.540  65.439  1.00  0.00     0.000 HD 
BRANCH   4   6
HETATM    6  C   UNL     1     -10.955  12.087  65.643  1.00  0.00    -0.297 C  
BRANCH   6   7
HETATM    7  C   UNL     1     -10.346  10.763  65.142  1.00  0.00    -0.271 C  
HETATM    8  H   UNL     1      -9.426  10.128  63.519  1.00  0.00     0.000 HD 
HETATM    9  O   UNL     1      -9.801  10.945  63.828  1.00  0.00    -0.276 OA 
BRANCH   7  10
HETATM   10  C   UNL     1      -9.254  10.262  66.096  1.00  0.00    -0.158 C  
BRANCH  10  11
HETATM   11  O   UNL     1      -9.201   8.829  66.050  1.00  0.00    -0.193 OA 
BRANCH  11  12
HETATM   12  C   UNL     1      -9.828   8.163  67.071  1.00  0.00    -0.232 A  
HETATM   13  C   UNL     1     -10.429   6.908  66.976  1.00  0.00    -0.374 A  
HETATM   14  C   UNL     1     -11.087   6.353  68.079  1.00  0.00    -0.365 A  
HETATM   15  C   UNL     1     -11.160   7.046  69.294  1.00  0.00    -0.166 A  
HETATM   16  C   UNL     1     -10.515   8.285  69.399  1.00  0.00    -0.224 A  
HETATM   17  C   UNL     1      -9.861   8.840  68.293  1.00  0.00    -0.185 A  
BRANCH  15  18
HETATM   18  C   UNL     1     -11.975   6.491  70.439  1.00  0.00    -0.295 C  
BRANCH  18  19
HETATM   19  C   UNL     1     -11.655   6.962  71.845  1.00  0.00    -0.286 C  
HETATM   20  N   UNL     1     -12.579   7.698  72.519  1.00  0.00    -0.526 N  
HETATM   21  O   UNL     1     -10.586   6.690  72.385  1.00  0.00    -0.204 OA 
HETATM   22  H2  UNL     1     -13.473   7.929  72.086  1.00  0.00     0.000 HD 
HETATM   23  H1  UNL     1     -12.363   8.015  73.465  1.00  0.00     0.000 HD 
ENDBRANCH  18  19
ENDBRANCH  15  18
ENDBRANCH  11  12
ENDBRANCH  10  11
ENDBRANCH   7  10
ENDBRANCH   6   7
ENDBRANCH   4   6
ENDBRANCH   2   4
TORSDOF 8
ENDMDL
MODEL      143
REMARK 921   NORMALIZED FREE ENERGY PREDICTED BY IDOCK:   -3.84 KCAL/MOL
REMARK 922        TOTAL FREE ENERGY PREDICTED BY IDOCK:   -6.21 KCAL/MOL
REMARK 923 INTER-LIGAND FREE ENERGY PREDICTED BY IDOCK:   -5.60 KCAL/MOL
REMARK 924 INTRA-LIGAND FREE ENERGY PREDICTED BY IDOCK:   -0.61 KCAL/MOL
REMARK 927      BINDING AFFINITY PREDICTED BY RF-SCORE:    0.00 PKD
ROOT
HETATM    1  C   UNL     1     -13.546  13.516  72.320  1.00  0.00    -0.690 C  
HETATM    2  C   UNL     1     -12.649  14.507  71.578  1.00  0.00    -0.348 C  
HETATM    3  C   UNL     1     -11.802  15.286  72.589  1.00  0.00    -0.533 C  
ENDROOT
BRANCH   2   4
HETATM    4  N   UNL     1     -11.817  13.757  70.633  1.00  0.00    -0.509 NA 
HETATM    5  H   UNL     1     -12.055  12.765  70.650  1.00  0.00     0.000 HD 
BRANCH   4   6
HETATM    6  C   UNL     1     -11.872  14.282  69.261  1.00  0.00    -0.330 C  
BRANCH   6   7
HETATM    7  C   UNL     1     -11.340  13.234  68.265  1.00  0.00    -0.300 C  
HETATM    8  H   UNL     1      -9.577  12.563  67.692  1.00  0.00     0.000 HD 
HETATM    9  O   UNL     1      -9.905  13.209  68.307  1.00  0.00    -0.223 OA 
BRANCH   7  10
HETATM   10  C   UNL     1     -11.896  11.839  68.580  1.00  0.00    -0.310 C  
BRANCH  10  11
HETATM   11  O   UNL     1     -10.934  11.105  69.352  1.00  0.00    -0.238 OA 
BRANCH  11  12
HETATM   12  C   UNL     1     -10.402   9.989  68.759  1.00  0.00    -0.198 A  
HETATM   13  C   UNL     1     -10.642   9.570  67.451  1.00  0.00    -0.337 A  
HETATM   14  C   UNL     1     -10.082   8.379  66.975  1.00  0.00    -0.354 A  
HETATM   15  C   UNL     1      -9.276   7.586  67.801  1.00  0.00    -0.139 A  
HETATM   16  C   UNL     1      -8.998   8.034  69.098  1.00  0.00    -0.145 A  
HETATM   17  C   UNL     1      -9.564   9.223  69.573  1.00  0.00    -0.178 A  
BRANCH  15  18
HETATM   18  C   UNL     1      -8.775   6.245  67.314  1.00  0.00    -0.105 C  
BRANCH  18  19
HETATM   19  C   UNL     1      -9.674   5.035  67.489  1.00  0.00    -0.157 C  
HETATM   20  N   UNL     1     -10.292   4.511  66.397  1.00  0.00    -0.352 N  
HETATM   21  O   UNL     1      -9.850   4.520  68.590  1.00  0.00    -0.156 OA 
HETATM   22  H2  UNL     1     -10.154   4.925  65.475  1.00  0.00     0.000 HD 
HETATM   23  H1  UNL     1     -10.896   3.698  66.515  1.00  0.00     0.000 HD 
ENDBRANCH  18  19
ENDBRANCH  15  18
ENDBRANCH  11  12
ENDBRANCH  10  11
ENDBRANCH   7  10
ENDBRANCH   6   7
ENDBRANCH   4   6
ENDBRANCH   2   4
TORSDOF 8
ENDMDL
MODEL      144
REMARK 921   NORMALIZED FREE ENERGY PREDICTED BY IDOCK:   -3.84 KCAL/MOL
REMARK 922        TOTAL FREE ENERGY PREDICTED BY IDOCK:   -6.21 KCAL/MOL
REMARK 923 INTER-LIGAND FREE ENERGY PREDICTED BY IDOCK:   -5.31 KCAL/MOL
REMARK 924 INTRA-LIGAND FREE ENERGY PREDICTED BY IDOCK:   -0.90 KCAL/MOL
REMARK 927      BINDING AFFINITY PREDICTED BY RF-SCORE:    0.00 PKD
ROOT
HETATM    1  C   UNL     1      -6.489  18.955  65.290  1.00  0.00    -0.293 C  
HETATM    2  C   UNL     1      -7.303  20.079  65.932  1.00  0.00    -0.309 C  
HETATM    3  C   UNL     1      -8.740  19.603  66.161  1.00  0.00    -0.361 C  
ENDROOT
BRANCH   2   4
HETATM    4  N   UNL     1      -6.648  20.463  67.187  1.00  0.00    -0.217 NA 
HETATM    5  H   UNL     1      -7.337  20.769  67.875  1.00  0.00     0.000 HD 
BRANCH   4   6
HETATM    6  C   UNL     1      -5.788  19.410  67.744  1.00  0.00    -0.196 C  
BRANCH   6   7
HETATM    7  C   UNL     1      -6.322  18.952  69.115  1.00  0.00    -0.268 C  
HETATM    8  H   UNL     1      -7.969  19.198  70.171  1.00  0.00     0.000 HD 
HETATM    9  O   UNL     1      -7.640  19.481  69.325  1.00  0.00    -0.343 OA 
BRANCH   7  10
HETATM   10  C   UNL     1      -6.352  17.421  69.212  1.00  0.00    -0.244 C  
BRANCH  10  11
HETATM   11  O   UNL     1      -6.708  16.869  67.937  1.00  0.00    -0.137 OA 
BRANCH  11  12
HETATM   12  C   UNL     1      -7.906  16.204  67.874  1.00  0.00    -0.141 A  
HETATM   13  C   UNL     1      -8.661  15.784  68.967  1.00  0.00    -0.237 A  
HETATM   14  C   UNL     1      -9.846  15.064  68.775  1.00  0.00    -0.233 A  
HETATM   15  C   UNL     1     -10.292  14.749  67.485  1.00  0.00    -0.238 A  
HETATM   16  C   UNL     1      -9.556  15.214  66.389  1.00  0.00    -0.309 A  
HETATM   17  C   UNL     1      -8.369  15.930  66.584  1.00  0.00    -0.328 A  
BRANCH  15  18
HETATM   18  C   UNL     1     -11.507  13.870  67.294  1.00  0.00    -0.369 C  
BRANCH  18  19
HETATM   19  C   UNL     1     -11.328  12.367  67.382  1.00  0.00    -0.321 C  
HETATM   20  N   UNL     1     -10.169  11.814  66.934  1.00  0.00    -0.206 N  
HETATM   21  O   UNL     1     -12.202  11.642  67.851  1.00  0.00    -0.560 OA 
HETATM   22  H2  UNL     1      -9.432  12.402  66.545  1.00  0.00     0.000 HD 
HETATM   23  H1  UNL     1     -10.049  10.803  66.993  1.00  0.00     0.000 HD 
ENDBRANCH  18  19
ENDBRANCH  15  18
ENDBRANCH  11  12
ENDBRANCH  10  11
ENDBRANCH   7  10
ENDBRANCH   6   7
ENDBRANCH   4   6
ENDBRANCH   2   4
TORSDOF 8
ENDMDL
MODEL      145
REMARK 921   NORMALIZED FREE ENERGY PREDICTED BY IDOCK:   -3.84 KCAL/MOL
REMARK 922        TOTAL FREE ENERGY PREDICTED BY IDOCK:   -6.21 KCAL/MOL
REMARK 923 INTER-LIGAND FREE ENERGY PREDICTED BY IDOCK:   -5.52 KCAL/MOL
REMARK 924 INTRA-LIGAND FREE ENERGY PREDICTED BY IDOCK:   -0.69 KCAL/MOL
REMARK 927      BINDING AFFINITY PREDICTED BY RF-SCORE:    0.00 PKD
ROOT
HETATM    1  C   UNL     1     -12.618   7.015  71.817  1.00  0.00    -0.388 C  
HETATM    2  C   UNL     1     -11.909   8.133  71.051  1.00  0.00    -0.260 C  
HETATM    3  C   UNL     1     -10.671   8.582  71.832  1.00  0.00    -0.394 C  
ENDROOT
BRANCH   2   4
HETATM    4  N   UNL     1     -11.562   7.630  69.718  1.00  0.00    -0.432 NA 
HETATM    5  H   UNL     1     -11.633   8.373  69.023  1.00  0.00     0.000 HD 
BRANCH   4   6
HETATM    6  C   UNL     1     -10.242   6.988  69.661  1.00  0.00    -0.202 C  
BRANCH   6   7
HETATM    7  C   UNL     1      -9.462   7.474  68.424  1.00  0.00    -0.148 C  
HETATM    8  H   UNL     1      -8.323   6.663  67.034  1.00  0.00     0.000 HD 
HETATM    9  O   UNL     1      -8.804   6.364  67.797  1.00  0.00    -0.115 OA 
BRANCH   7  10
HETATM   10  C   UNL     1     -10.395   8.163  67.420  1.00  0.00    -0.281 C  
BRANCH  10  11
HETATM   11  O   UNL     1      -9.747   9.326  66.886  1.00  0.00    -0.164 OA 
BRANCH  11  12
HETATM   12  C   UNL     1     -10.234  10.539  67.300  1.00  0.00    -0.215 A  
HETATM   13  C   UNL     1     -10.687  10.839  68.584  1.00  0.00    -0.242 A  
HETATM   14  C   UNL     1     -11.213  12.103  68.872  1.00  0.00    -0.320 A  
HETATM   15  C   UNL     1     -11.301  13.086  67.879  1.00  0.00    -0.327 A  
HETATM   16  C   UNL     1     -10.802  12.797  66.603  1.00  0.00    -0.288 A  
HETATM   17  C   UNL     1     -10.279  11.531  66.316  1.00  0.00    -0.268 A  
BRANCH  15  18
HETATM   18  C   UNL     1     -11.981  14.405  68.171  1.00  0.00    -0.320 C  
BRANCH  18  19
HETATM   19  C   UNL     1     -12.020  14.891  69.607  1.00  0.00    -0.320 C  
HETATM   20  N   UNL     1     -13.174  14.764  70.314  1.00  0.00    -0.568 N  
HETATM   21  O   UNL     1     -11.033  15.391  70.142  1.00  0.00    -0.266 OA 
HETATM   22  H2  UNL     1     -14.001  14.348  69.886  1.00  0.00     0.000 HD 
HETATM   23  H1  UNL     1     -13.200  15.092  71.280  1.00  0.00     0.000 HD 
ENDBRANCH  18  19
ENDBRANCH  15  18
ENDBRANCH  11  12
ENDBRANCH  10  11
ENDBRANCH   7  10
ENDBRANCH   6   7
ENDBRANCH   4   6
ENDBRANCH   2   4
TORSDOF 8
ENDMDL
MODEL      146
REMARK 921   NORMALIZED FREE ENERGY PREDICTED BY IDOCK:   -3.83 KCAL/MOL
REMARK 922        TOTAL FREE ENERGY PREDICTED BY IDOCK:   -6.19 KCAL/MOL
REMARK 923 INTER-LIGAND FREE ENERGY PREDICTED BY IDOCK:   -6.46 KCAL/MOL
REMARK 924 INTRA-LIGAND FREE ENERGY PREDICTED BY IDOCK:    0.27 KCAL/MOL
REMARK 927      BINDING AFFINITY PREDICTED BY RF-SCORE:    0.00 PKD
ROOT
HETATM    1  C   UNL     1     -10.066  10.379  63.268  1.00  0.00     0.023 C  
HETATM    2  C   UNL     1     -10.627  11.779  63.019  1.00  0.00    -0.138 C  
HETATM    3  C   UNL     1     -12.041  11.874  63.597  1.00  0.00    -0.580 C  
ENDROOT
BRANCH   2   4
HETATM    4  N   UNL     1      -9.720  12.755  63.631  1.00  0.00    -0.642 NA 
HETATM    5  H   UNL     1      -9.602  13.568  63.026  1.00  0.00     0.000 HD 
BRANCH   4   6
HETATM    6  C   UNL     1     -10.128  13.166  64.981  1.00  0.00    -0.222 C  
BRANCH   6   7
HETATM    7  C   UNL     1      -9.852  12.035  65.991  1.00  0.00    -0.237 C  
HETATM    8  H   UNL     1      -8.268  11.121  66.728  1.00  0.00     0.000 HD 
HETATM    9  O   UNL     1      -8.438  11.819  66.105  1.00  0.00    -0.093 OA 
BRANCH   7  10
HETATM   10  C   UNL     1     -10.441  12.369  67.368  1.00  0.00    -0.215 C  
BRANCH  10  11
HETATM   11  O   UNL     1      -9.957  13.650  67.797  1.00  0.00    -0.225 OA 
BRANCH  11  12
HETATM   12  C   UNL     1     -10.681  14.278  68.777  1.00  0.00    -0.254 A  
HETATM   13  C   UNL     1     -10.461  15.571  69.249  1.00  0.00    -0.245 A  
HETATM   14  C   UNL     1     -11.236  16.084  70.295  1.00  0.00    -0.397 A  
HETATM   15  C   UNL     1     -12.241  15.311  70.889  1.00  0.00    -0.409 A  
HETATM   16  C   UNL     1     -12.491  14.031  70.380  1.00  0.00    -0.418 A  
HETATM   17  C   UNL     1     -11.711  13.518  69.337  1.00  0.00    -0.381 A  
BRANCH  15  18
HETATM   18  C   UNL     1     -12.990  15.832  72.094  1.00  0.00    -0.513 C  
BRANCH  18  19
HETATM   19  C   UNL     1     -13.006  14.985  73.352  1.00  0.00    -0.498 C  
HETATM   20  N   UNL     1     -12.511  15.509  74.505  1.00  0.00    -0.743 N  
HETATM   21  O   UNL     1     -13.459  13.843  73.351  1.00  0.00    -0.269 OA 
HETATM   22  H2  UNL     1     -12.134  16.457  74.524  1.00  0.00     0.000 HD 
HETATM   23  H1  UNL     1     -12.522  14.939  75.351  1.00  0.00     0.000 HD 
ENDBRANCH  18  19
ENDBRANCH  15  18
ENDBRANCH  11  12
ENDBRANCH  10  11
ENDBRANCH   7  10
ENDBRANCH   6   7
ENDBRANCH   4   6
ENDBRANCH   2   4
TORSDOF 8
ENDMDL
MODEL      147
REMARK 921   NORMALIZED FREE ENERGY PREDICTED BY IDOCK:   -3.81 KCAL/MOL
REMARK 922        TOTAL FREE ENERGY PREDICTED BY IDOCK:   -6.16 KCAL/MOL
REMARK 923 INTER-LIGAND FREE ENERGY PREDICTED BY IDOCK:   -5.60 KCAL/MOL
REMARK 924 INTRA-LIGAND FREE ENERGY PREDICTED BY IDOCK:   -0.56 KCAL/MOL
REMARK 927      BINDING AFFINITY PREDICTED BY RF-SCORE:    0.00 PKD
ROOT
HETATM    1  C   UNL     1      -8.759  16.364  68.704  1.00  0.00    -0.234 C  
HETATM    2  C   UNL     1      -7.953  15.888  67.494  1.00  0.00    -0.145 C  
HETATM    3  C   UNL     1      -6.505  15.627  67.916  1.00  0.00    -0.166 C  
ENDROOT
BRANCH   2   4
HETATM    4  N   UNL     1      -8.592  14.682  66.960  1.00  0.00    -0.231 NA 
HETATM    5  H   UNL     1      -8.356  14.553  65.976  1.00  0.00     0.000 HD 
BRANCH   4   6
HETATM    6  C   UNL     1      -8.288  13.468  67.731  1.00  0.00    -0.181 C  
BRANCH   6   7
HETATM    7  C   UNL     1      -8.674  12.212  66.927  1.00  0.00    -0.194 C  
HETATM    8  H   UNL     1      -7.770  10.579  66.291  1.00  0.00     0.000 HD 
HETATM    9  O   UNL     1      -7.532  11.354  66.787  1.00  0.00    -0.141 OA 
BRANCH   7  10
HETATM   10  C   UNL     1      -9.819  11.451  67.608  1.00  0.00    -0.176 C  
BRANCH  10  11
HETATM   11  O   UNL     1     -11.069  12.072  67.276  1.00  0.00    -0.252 OA 
BRANCH  11  12
HETATM   12  C   UNL     1     -11.540  13.005  68.162  1.00  0.00    -0.341 A  
HETATM   13  C   UNL     1     -11.809  14.341  67.871  1.00  0.00    -0.393 A  
HETATM   14  C   UNL     1     -12.238  15.213  68.878  1.00  0.00    -0.138 A  
HETATM   15  C   UNL     1     -12.398  14.765  70.195  1.00  0.00    -0.381 A  
HETATM   16  C   UNL     1     -12.172  13.411  70.474  1.00  0.00    -0.425 A  
HETATM   17  C   UNL     1     -11.739  12.542  69.466  1.00  0.00    -0.375 A  
BRANCH  15  18
HETATM   18  C   UNL     1     -12.744  15.742  71.295  1.00  0.00    -0.498 C  
BRANCH  18  19
HETATM   19  C   UNL     1     -12.955  15.202  72.696  1.00  0.00    -0.400 C  
HETATM   20  N   UNL     1     -11.931  15.272  73.589  1.00  0.00    -0.459 N  
HETATM   21  O   UNL     1     -14.027  14.710  73.041  1.00  0.00    -0.471 OA 
HETATM   22  H2  UNL     1     -11.036  15.680  73.320  1.00  0.00     0.000 HD 
HETATM   23  H1  UNL     1     -12.073  14.909  74.532  1.00  0.00     0.000 HD 
ENDBRANCH  18  19
ENDBRANCH  15  18
ENDBRANCH  11  12
ENDBRANCH  10  11
ENDBRANCH   7  10
ENDBRANCH   6   7
ENDBRANCH   4   6
ENDBRANCH   2   4
TORSDOF 8
ENDMDL
MODEL      148
REMARK 921   NORMALIZED FREE ENERGY PREDICTED BY IDOCK:   -3.78 KCAL/MOL
REMARK 922        TOTAL FREE ENERGY PREDICTED BY IDOCK:   -6.12 KCAL/MOL
REMARK 923 INTER-LIGAND FREE ENERGY PREDICTED BY IDOCK:   -5.66 KCAL/MOL
REMARK 924 INTRA-LIGAND FREE ENERGY PREDICTED BY IDOCK:   -0.46 KCAL/MOL
REMARK 927      BINDING AFFINITY PREDICTED BY RF-SCORE:    0.00 PKD
ROOT
HETATM    1  C   UNL     1      -8.654  17.197  68.675  1.00  0.00    -0.260 C  
HETATM    2  C   UNL     1      -9.316  16.852  67.340  1.00  0.00    -0.235 C  
HETATM    3  C   UNL     1      -8.240  16.493  66.312  1.00  0.00    -0.360 C  
ENDROOT
BRANCH   2   4
HETATM    4  N   UNL     1     -10.251  15.745  67.562  1.00  0.00    -0.260 NA 
HETATM    5  H   UNL     1     -10.304  15.146  66.737  1.00  0.00     0.000 HD 
BRANCH   4   6
HETATM    6  C   UNL     1      -9.946  14.953  68.761  1.00  0.00    -0.228 C  
BRANCH   6   7
HETATM    7  C   UNL     1     -11.215  14.758  69.612  1.00  0.00    -0.275 C  
HETATM    8  H   UNL     1     -12.765  15.852  70.151  1.00  0.00     0.000 HD 
HETATM    9  O   UNL     1     -11.982  15.972  69.626  1.00  0.00    -0.299 OA 
BRANCH   7  10
HETATM   10  C   UNL     1     -12.072  13.606  69.070  1.00  0.00    -0.309 C  
BRANCH  10  11
HETATM   11  O   UNL     1     -11.228  12.486  68.766  1.00  0.00    -0.240 OA 
BRANCH  11  12
HETATM   12  C   UNL     1     -11.089  12.171  67.439  1.00  0.00    -0.276 A  
HETATM   13  C   UNL     1     -10.019  11.480  66.874  1.00  0.00    -0.231 A  
HETATM   14  C   UNL     1      -9.965  11.265  65.492  1.00  0.00    -0.293 A  
HETATM   15  C   UNL     1     -10.979  11.742  64.652  1.00  0.00    -0.368 A  
HETATM   16  C   UNL     1     -12.076  12.394  65.229  1.00  0.00    -0.451 A  
HETATM   17  C   UNL     1     -12.125  12.612  66.610  1.00  0.00    -0.267 A  
BRANCH  15  18
HETATM   18  C   UNL     1     -10.849  11.609  63.152  1.00  0.00    -0.281 C  
BRANCH  18  19
HETATM   19  C   UNL     1      -9.616  10.926  62.594  1.00  0.00    -0.255 C  
HETATM   20  N   UNL     1      -9.661   9.592  62.335  1.00  0.00    -0.476 N  
HETATM   21  O   UNL     1      -8.582  11.551  62.368  1.00  0.00    -0.298 OA 
HETATM   22  H2  UNL     1     -10.513   9.058  62.514  1.00  0.00     0.000 HD 
HETATM   23  H1  UNL     1      -8.831   9.133  61.960  1.00  0.00     0.000 HD 
ENDBRANCH  18  19
ENDBRANCH  15  18
ENDBRANCH  11  12
ENDBRANCH  10  11
ENDBRANCH   7  10
ENDBRANCH   6   7
ENDBRANCH   4   6
ENDBRANCH   2   4
TORSDOF 8
ENDMDL
MODEL      149
REMARK 921   NORMALIZED FREE ENERGY PREDICTED BY IDOCK:   -3.78 KCAL/MOL
REMARK 922        TOTAL FREE ENERGY PREDICTED BY IDOCK:   -6.12 KCAL/MOL
REMARK 923 INTER-LIGAND FREE ENERGY PREDICTED BY IDOCK:   -5.67 KCAL/MOL
REMARK 924 INTRA-LIGAND FREE ENERGY PREDICTED BY IDOCK:   -0.44 KCAL/MOL
REMARK 927      BINDING AFFINITY PREDICTED BY RF-SCORE:    0.00 PKD
ROOT
HETATM    1  C   UNL     1      -8.316   7.577  66.389  1.00  0.00    -0.126 C  
HETATM    2  C   UNL     1      -7.497   7.953  65.154  1.00  0.00    -0.082 C  
HETATM    3  C   UNL     1      -7.926   7.080  63.971  1.00  0.00    -0.075 C  
ENDROOT
BRANCH   2   4
HETATM    4  N   UNL     1      -7.701   9.379  64.882  1.00  0.00    -0.108 NA 
HETATM    5  H   UNL     1      -6.813   9.838  64.678  1.00  0.00     0.000 HD 
BRANCH   4   6
HETATM    6  C   UNL     1      -8.678   9.638  63.816  1.00  0.00    -0.223 C  
BRANCH   6   7
HETATM    7  C   UNL     1      -9.914  10.361  64.385  1.00  0.00    -0.318 C  
HETATM    8  H   UNL     1     -10.475  11.089  66.129  1.00  0.00     0.000 HD 
HETATM    9  O   UNL     1      -9.713  10.643  65.778  1.00  0.00    -0.198 OA 
BRANCH   7  10
HETATM   10  C   UNL     1     -10.191  11.663  63.623  1.00  0.00    -0.412 C  
BRANCH  10  11
HETATM   11  O   UNL     1     -11.440  12.217  64.064  1.00  0.00    -0.352 OA 
BRANCH  11  12
HETATM   12  C   UNL     1     -11.365  13.240  64.973  1.00  0.00    -0.305 A  
HETATM   13  C   UNL     1     -10.461  14.301  64.931  1.00  0.00    -0.454 A  
HETATM   14  C   UNL     1     -10.448  15.260  65.951  1.00  0.00    -0.345 A  
HETATM   15  C   UNL     1     -11.335  15.170  67.031  1.00  0.00    -0.277 A  
HETATM   16  C   UNL     1     -12.272  14.130  67.045  1.00  0.00    -0.374 A  
HETATM   17  C   UNL     1     -12.280  13.170  66.026  1.00  0.00    -0.478 A  
BRANCH  15  18
HETATM   18  C   UNL     1     -11.230  16.143  68.184  1.00  0.00    -0.311 C  
BRANCH  18  19
HETATM   19  C   UNL     1     -11.571  15.647  69.576  1.00  0.00    -0.357 C  
HETATM   20  N   UNL     1     -12.798  15.925  70.092  1.00  0.00    -0.659 N  
HETATM   21  O   UNL     1     -10.767  14.999  70.242  1.00  0.00    -0.218 OA 
HETATM   22  H2  UNL     1     -13.478  16.459  69.550  1.00  0.00     0.000 HD 
HETATM   23  H1  UNL     1     -13.027  15.591  71.028  1.00  0.00     0.000 HD 
ENDBRANCH  18  19
ENDBRANCH  15  18
ENDBRANCH  11  12
ENDBRANCH  10  11
ENDBRANCH   7  10
ENDBRANCH   6   7
ENDBRANCH   4   6
ENDBRANCH   2   4
TORSDOF 8
ENDMDL
MODEL      150
REMARK 921   NORMALIZED FREE ENERGY PREDICTED BY IDOCK:   -3.77 KCAL/MOL
REMARK 922        TOTAL FREE ENERGY PREDICTED BY IDOCK:   -6.11 KCAL/MOL
REMARK 923 INTER-LIGAND FREE ENERGY PREDICTED BY IDOCK:   -5.69 KCAL/MOL
REMARK 924 INTRA-LIGAND FREE ENERGY PREDICTED BY IDOCK:   -0.42 KCAL/MOL
REMARK 927      BINDING AFFINITY PREDICTED BY RF-SCORE:    0.00 PKD
ROOT
HETATM    1  C   UNL     1     -10.909  19.228  67.161  1.00  0.00    -0.543 C  
HETATM    2  C   UNL     1      -9.918  18.492  68.063  1.00  0.00    -0.355 C  
HETATM    3  C   UNL     1      -9.075  19.511  68.836  1.00  0.00    -0.337 C  
ENDROOT
BRANCH   2   4
HETATM    4  N   UNL     1     -10.675  17.616  68.962  1.00  0.00    -0.326 NA 
HETATM    5  H   UNL     1     -11.548  18.060  69.248  1.00  0.00     0.000 HD 
BRANCH   4   6
HETATM    6  C   UNL     1     -10.929  16.282  68.402  1.00  0.00    -0.351 C  
BRANCH   6   7
HETATM    7  C   UNL     1     -11.576  15.370  69.462  1.00  0.00    -0.332 C  
HETATM    8  H   UNL     1     -13.002  15.528  70.816  1.00  0.00     0.000 HD 
HETATM    9  O   UNL     1     -12.603  16.090  70.161  1.00  0.00    -0.259 OA 
BRANCH   7  10
HETATM   10  C   UNL     1     -12.168  14.109  68.819  1.00  0.00    -0.199 C  
BRANCH  10  11
HETATM   11  O   UNL     1     -11.481  13.833  67.590  1.00  0.00    -0.289 OA 
BRANCH  11  12
HETATM   12  C   UNL     1     -11.071  12.539  67.400  1.00  0.00    -0.272 A  
HETATM   13  C   UNL     1     -10.142  12.111  66.453  1.00  0.00    -0.242 A  
HETATM   14  C   UNL     1      -9.843  10.751  66.319  1.00  0.00    -0.262 A  
HETATM   15  C   UNL     1     -10.472   9.795  67.126  1.00  0.00    -0.316 A  
HETATM   16  C   UNL     1     -11.369  10.233  68.108  1.00  0.00    -0.233 A  
HETATM   17  C   UNL     1     -11.670  11.594  68.237  1.00  0.00    -0.374 A  
BRANCH  15  18
HETATM   18  C   UNL     1     -10.231   8.322  66.890  1.00  0.00    -0.388 C  
BRANCH  18  19
HETATM   19  C   UNL     1     -10.278   7.385  68.082  1.00  0.00    -0.187 C  
HETATM   20  N   UNL     1      -9.293   7.459  69.017  1.00  0.00    -0.146 N  
HETATM   21  O   UNL     1     -11.185   6.568  68.221  1.00  0.00    -0.277 OA 
HETATM   22  H2  UNL     1      -8.535   8.134  68.918  1.00  0.00     0.000 HD 
HETATM   23  H1  UNL     1      -9.325   6.829  69.819  1.00  0.00     0.000 HD 
ENDBRANCH  18  19
ENDBRANCH  15  18
ENDBRANCH  11  12
ENDBRANCH  10  11
ENDBRANCH   7  10
ENDBRANCH   6   7
ENDBRANCH   4   6
ENDBRANCH   2   4
TORSDOF 8
ENDMDL
MODEL      151
REMARK 921   NORMALIZED FREE ENERGY PREDICTED BY IDOCK:   -3.77 KCAL/MOL
REMARK 922        TOTAL FREE ENERGY PREDICTED BY IDOCK:   -6.11 KCAL/MOL
REMARK 923 INTER-LIGAND FREE ENERGY PREDICTED BY IDOCK:   -5.59 KCAL/MOL
REMARK 924 INTRA-LIGAND FREE ENERGY PREDICTED BY IDOCK:   -0.52 KCAL/MOL
REMARK 927      BINDING AFFINITY PREDICTED BY RF-SCORE:    0.00 PKD
ROOT
HETATM    1  C   UNL     1      -7.239  15.551  67.221  1.00  0.00    -0.242 C  
HETATM    2  C   UNL     1      -8.257  15.296  68.333  1.00  0.00    -0.146 C  
HETATM    3  C   UNL     1      -8.937  16.614  68.716  1.00  0.00    -0.253 C  
ENDROOT
BRANCH   2   4
HETATM    4  N   UNL     1      -9.223  14.303  67.854  1.00  0.00    -0.187 NA 
HETATM    5  H   UNL     1     -10.072  14.322  68.420  1.00  0.00     0.000 HD 
BRANCH   4   6
HETATM    6  C   UNL     1      -9.546  14.440  66.428  1.00  0.00    -0.299 C  
BRANCH   6   7
HETATM    7  C   UNL     1     -10.959  15.028  66.252  1.00  0.00    -0.338 C  
HETATM    8  H   UNL     1     -12.045  15.739  64.768  1.00  0.00     0.000 HD 
HETATM    9  O   UNL     1     -11.174  15.377  64.877  1.00  0.00    -0.401 OA 
BRANCH   7  10
HETATM   10  C   UNL     1     -12.032  14.033  66.712  1.00  0.00    -0.444 C  
BRANCH  10  11
HETATM   11  O   UNL     1     -11.434  12.744  66.912  1.00  0.00    -0.303 OA 
BRANCH  11  12
HETATM   12  C   UNL     1     -11.696  12.130  68.109  1.00  0.00    -0.341 A  
HETATM   13  C   UNL     1     -12.050  12.774  69.294  1.00  0.00    -0.224 A  
HETATM   14  C   UNL     1     -12.240  12.039  70.469  1.00  0.00    -0.414 A  
HETATM   15  C   UNL     1     -12.075  10.649  70.481  1.00  0.00    -0.448 A  
HETATM   16  C   UNL     1     -11.765  10.000  69.279  1.00  0.00     0.028 A  
HETATM   17  C   UNL     1     -11.571  10.738  68.105  1.00  0.00    -0.276 A  
BRANCH  15  18
HETATM   18  C   UNL     1     -12.165   9.882  71.781  1.00  0.00    -0.425 C  
BRANCH  18  19
HETATM   19  C   UNL     1     -11.695   8.441  71.800  1.00  0.00    -0.310 C  
HETATM   20  N   UNL     1     -10.396   8.176  72.103  1.00  0.00    -0.250 N  
HETATM   21  O   UNL     1     -12.460   7.512  71.553  1.00  0.00    -0.318 OA 
HETATM   22  H2  UNL     1      -9.748   8.936  72.314  1.00  0.00     0.000 HD 
HETATM   23  H1  UNL     1     -10.079   7.206  72.116  1.00  0.00     0.000 HD 
ENDBRANCH  18  19
ENDBRANCH  15  18
ENDBRANCH  11  12
ENDBRANCH  10  11
ENDBRANCH   7  10
ENDBRANCH   6   7
ENDBRANCH   4   6
ENDBRANCH   2   4
TORSDOF 8
ENDMDL
MODEL      152
REMARK 921   NORMALIZED FREE ENERGY PREDICTED BY IDOCK:   -3.77 KCAL/MOL
REMARK 922        TOTAL FREE ENERGY PREDICTED BY IDOCK:   -6.10 KCAL/MOL
REMARK 923 INTER-LIGAND FREE ENERGY PREDICTED BY IDOCK:   -5.39 KCAL/MOL
REMARK 924 INTRA-LIGAND FREE ENERGY PREDICTED BY IDOCK:   -0.71 KCAL/MOL
REMARK 927      BINDING AFFINITY PREDICTED BY RF-SCORE:    0.00 PKD
ROOT
HETATM    1  C   UNL     1      -8.491   5.080  66.476  1.00  0.00    -0.110 C  
HETATM    2  C   UNL     1      -8.708   4.723  65.005  1.00  0.00    -0.147 C  
HETATM    3  C   UNL     1     -10.018   3.945  64.855  1.00  0.00    -0.198 C  
ENDROOT
BRANCH   2   4
HETATM    4  N   UNL     1      -8.719   5.965  64.226  1.00  0.00    -0.350 NA 
HETATM    5  H   UNL     1      -9.130   6.727  64.766  1.00  0.00     0.000 HD 
BRANCH   4   6
HETATM    6  C   UNL     1      -7.395   6.346  63.714  1.00  0.00    -0.073 C  
BRANCH   6   7
HETATM    7  C   UNL     1      -7.283   7.879  63.607  1.00  0.00    -0.090 C  
HETATM    8  H   UNL     1      -8.025   9.296  62.455  1.00  0.00     0.000 HD 
HETATM    9  O   UNL     1      -8.094   8.351  62.521  1.00  0.00    -0.152 OA 
BRANCH   7  10
HETATM   10  C   UNL     1      -7.714   8.557  64.914  1.00  0.00    -0.105 C  
BRANCH  10  11
HETATM   11  O   UNL     1      -9.129   8.789  64.888  1.00  0.00    -0.096 OA 
BRANCH  11  12
HETATM   12  C   UNL     1      -9.542  10.069  65.154  1.00  0.00    -0.291 A  
HETATM   13  C   UNL     1      -9.815  10.589  66.418  1.00  0.00    -0.260 A  
HETATM   14  C   UNL     1     -10.283  11.901  66.558  1.00  0.00    -0.232 A  
HETATM   15  C   UNL     1     -10.489  12.712  65.436  1.00  0.00    -0.306 A  
HETATM   16  C   UNL     1     -10.169  12.202  64.171  1.00  0.00    -0.370 A  
HETATM   17  C   UNL     1      -9.706  10.888  64.034  1.00  0.00    -0.351 A  
BRANCH  15  18
HETATM   18  C   UNL     1     -11.107  14.083  65.591  1.00  0.00    -0.302 C  
BRANCH  18  19
HETATM   19  C   UNL     1     -12.344  14.411  64.776  1.00  0.00    -0.414 C  
HETATM   20  N   UNL     1     -12.263  15.367  63.812  1.00  0.00    -0.955 N  
HETATM   21  O   UNL     1     -13.410  13.831  64.966  1.00  0.00    -0.586 OA 
HETATM   22  H2  UNL     1     -11.384  15.855  63.640  1.00  0.00     0.000 HD 
HETATM   23  H1  UNL     1     -13.095  15.587  63.264  1.00  0.00     0.000 HD 
ENDBRANCH  18  19
ENDBRANCH  15  18
ENDBRANCH  11  12
ENDBRANCH  10  11
ENDBRANCH   7  10
ENDBRANCH   6   7
ENDBRANCH   4   6
ENDBRANCH   2   4
TORSDOF 8
ENDMDL
MODEL      153
REMARK 921   NORMALIZED FREE ENERGY PREDICTED BY IDOCK:   -3.77 KCAL/MOL
REMARK 922        TOTAL FREE ENERGY PREDICTED BY IDOCK:   -6.10 KCAL/MOL
REMARK 923 INTER-LIGAND FREE ENERGY PREDICTED BY IDOCK:   -5.60 KCAL/MOL
REMARK 924 INTRA-LIGAND FREE ENERGY PREDICTED BY IDOCK:   -0.50 KCAL/MOL
REMARK 927      BINDING AFFINITY PREDICTED BY RF-SCORE:    0.00 PKD
ROOT
HETATM    1  C   UNL     1      -8.121   7.284  68.081  1.00  0.00    -0.124 C  
HETATM    2  C   UNL     1      -9.293   8.116  68.605  1.00  0.00    -0.143 C  
HETATM    3  C   UNL     1      -9.504   7.823  70.093  1.00  0.00    -0.160 C  
ENDROOT
BRANCH   2   4
HETATM    4  N   UNL     1      -8.997   9.532  68.364  1.00  0.00    -0.127 NA 
HETATM    5  H   UNL     1      -8.884   9.713  67.367  1.00  0.00     0.000 HD 
BRANCH   4   6
HETATM    6  C   UNL     1      -9.987  10.445  68.950  1.00  0.00    -0.199 C  
BRANCH   6   7
HETATM    7  C   UNL     1     -11.258  10.486  68.080  1.00  0.00    -0.294 C  
HETATM    8  H   UNL     1     -13.116  11.116  68.279  1.00  0.00     0.000 HD 
HETATM    9  O   UNL     1     -12.332  11.090  68.816  1.00  0.00    -0.533 OA 
BRANCH   7  10
HETATM   10  C   UNL     1     -11.013  11.265  66.781  1.00  0.00    -0.281 C  
BRANCH  10  11
HETATM   11  O   UNL     1     -11.947  12.350  66.691  1.00  0.00    -0.562 OA 
BRANCH  11  12
HETATM   12  C   UNL     1     -11.412  13.612  66.656  1.00  0.00    -0.343 A  
HETATM   13  C   UNL     1     -10.594  14.122  65.650  1.00  0.00    -0.317 A  
HETATM   14  C   UNL     1     -10.064  15.413  65.753  1.00  0.00    -0.391 A  
HETATM   15  C   UNL     1     -10.341  16.214  66.868  1.00  0.00    -0.297 A  
HETATM   16  C   UNL     1     -11.202  15.716  67.854  1.00  0.00    -0.328 A  
HETATM   17  C   UNL     1     -11.726  14.423  67.750  1.00  0.00    -0.407 A  
BRANCH  15  18
HETATM   18  C   UNL     1      -9.667  17.558  67.025  1.00  0.00    -0.284 C  
BRANCH  18  19
HETATM   19  C   UNL     1      -8.689  17.743  68.169  1.00  0.00    -0.266 C  
HETATM   20  N   UNL     1      -7.943  16.681  68.576  1.00  0.00    -0.212 N  
HETATM   21  O   UNL     1      -8.555  18.828  68.730  1.00  0.00    -0.336 OA 
HETATM   22  H2  UNL     1      -8.040  15.775  68.118  1.00  0.00     0.000 HD 
HETATM   23  H1  UNL     1      -7.285  16.806  69.345  1.00  0.00     0.000 HD 
ENDBRANCH  18  19
ENDBRANCH  15  18
ENDBRANCH  11  12
ENDBRANCH  10  11
ENDBRANCH   7  10
ENDBRANCH   6   7
ENDBRANCH   4   6
ENDBRANCH   2   4
TORSDOF 8
ENDMDL
MODEL      154
REMARK 921   NORMALIZED FREE ENERGY PREDICTED BY IDOCK:   -3.74 KCAL/MOL
REMARK 922        TOTAL FREE ENERGY PREDICTED BY IDOCK:   -6.06 KCAL/MOL
REMARK 923 INTER-LIGAND FREE ENERGY PREDICTED BY IDOCK:   -5.64 KCAL/MOL
REMARK 924 INTRA-LIGAND FREE ENERGY PREDICTED BY IDOCK:   -0.42 KCAL/MOL
REMARK 927      BINDING AFFINITY PREDICTED BY RF-SCORE:    0.00 PKD
ROOT
HETATM    1  C   UNL     1      -7.032   8.846  71.223  1.00  0.00    -0.094 C  
HETATM    2  C   UNL     1      -7.394   7.741  70.230  1.00  0.00    -0.067 C  
HETATM    3  C   UNL     1      -6.775   6.418  70.688  1.00  0.00    -0.057 C  
ENDROOT
BRANCH   2   4
HETATM    4  N   UNL     1      -8.856   7.659  70.144  1.00  0.00    -0.145 NA 
HETATM    5  H   UNL     1      -9.268   8.592  70.108  1.00  0.00     0.000 HD 
BRANCH   4   6
HETATM    6  C   UNL     1      -9.331   6.836  69.024  1.00  0.00    -0.134 C  
BRANCH   6   7
HETATM    7  C   UNL     1      -8.878   7.443  67.682  1.00  0.00    -0.127 C  
HETATM    8  H   UNL     1      -7.981   6.806  66.047  1.00  0.00     0.000 HD 
HETATM    9  O   UNL     1      -8.260   6.431  66.874  1.00  0.00    -0.108 OA 
BRANCH   7  10
HETATM   10  C   UNL     1     -10.063   8.061  66.929  1.00  0.00    -0.292 C  
BRANCH  10  11
HETATM   11  O   UNL     1      -9.572   8.909  65.880  1.00  0.00    -0.253 OA 
BRANCH  11  12
HETATM   12  C   UNL     1     -10.133  10.157  65.793  1.00  0.00    -0.254 A  
HETATM   13  C   UNL     1     -10.140  10.969  64.660  1.00  0.00    -0.370 A  
HETATM   14  C   UNL     1     -10.700  12.250  64.711  1.00  0.00    -0.338 A  
HETATM   15  C   UNL     1     -11.258  12.743  65.897  1.00  0.00    -0.334 A  
HETATM   16  C   UNL     1     -11.291  11.907  67.020  1.00  0.00    -0.392 A  
HETATM   17  C   UNL     1     -10.727  10.627  66.968  1.00  0.00    -0.317 A  
BRANCH  15  18
HETATM   18  C   UNL     1     -11.750  14.170  65.971  1.00  0.00    -0.389 C  
BRANCH  18  19
HETATM   19  C   UNL     1     -11.542  15.066  64.765  1.00  0.00    -0.395 C  
HETATM   20  N   UNL     1     -12.424  14.995  63.732  1.00  0.00    -1.049 N  
HETATM   21  O   UNL     1     -10.601  15.854  64.705  1.00  0.00    -0.525 OA 
HETATM   22  H2  UNL     1     -13.213  14.350  63.768  1.00  0.00     0.000 HD 
HETATM   23  H1  UNL     1     -12.284  15.598  62.921  1.00  0.00     0.000 HD 
ENDBRANCH  18  19
ENDBRANCH  15  18
ENDBRANCH  11  12
ENDBRANCH  10  11
ENDBRANCH   7  10
ENDBRANCH   6   7
ENDBRANCH   4   6
ENDBRANCH   2   4
TORSDOF 8
ENDMDL
MODEL      155
REMARK 921   NORMALIZED FREE ENERGY PREDICTED BY IDOCK:   -3.72 KCAL/MOL
REMARK 922        TOTAL FREE ENERGY PREDICTED BY IDOCK:   -6.03 KCAL/MOL
REMARK 923 INTER-LIGAND FREE ENERGY PREDICTED BY IDOCK:   -5.37 KCAL/MOL
REMARK 924 INTRA-LIGAND FREE ENERGY PREDICTED BY IDOCK:   -0.67 KCAL/MOL
REMARK 927      BINDING AFFINITY PREDICTED BY RF-SCORE:    0.00 PKD
ROOT
HETATM    1  C   UNL     1      -9.230   5.514  67.464  1.00  0.00    -0.110 C  
HETATM    2  C   UNL     1      -8.892   5.161  66.015  1.00  0.00    -0.137 C  
HETATM    3  C   UNL     1      -9.904   4.141  65.487  1.00  0.00    -0.210 C  
ENDROOT
BRANCH   2   4
HETATM    4  N   UNL     1      -8.898   6.396  65.225  1.00  0.00    -0.364 NA 
HETATM    5  H   UNL     1      -9.364   7.148  65.734  1.00  0.00     0.000 HD 
BRANCH   4   6
HETATM    6  C   UNL     1      -7.561   6.816  64.785  1.00  0.00    -0.104 C  
BRANCH   6   7
HETATM    7  C   UNL     1      -7.592   8.278  64.298  1.00  0.00    -0.122 C  
HETATM    8  H   UNL     1      -8.533   9.309  62.906  1.00  0.00     0.000 HD 
HETATM    9  O   UNL     1      -8.514   8.407  63.206  1.00  0.00    -0.124 OA 
BRANCH   7  10
HETATM   10  C   UNL     1      -7.990   9.230  65.434  1.00  0.00    -0.108 C  
BRANCH  10  11
HETATM   11  O   UNL     1      -9.386   9.068  65.725  1.00  0.00    -0.223 OA 
BRANCH  11  12
HETATM   12  C   UNL     1     -10.138  10.213  65.756  1.00  0.00    -0.254 A  
HETATM   13  C   UNL     1     -10.452  11.011  64.656  1.00  0.00    -0.398 A  
HETATM   14  C   UNL     1     -11.186  12.190  64.823  1.00  0.00    -0.373 A  
HETATM   15  C   UNL     1     -11.615  12.594  66.094  1.00  0.00    -0.445 A  
HETATM   16  C   UNL     1     -11.340  11.766  67.189  1.00  0.00    -0.387 A  
HETATM   17  C   UNL     1     -10.601  10.589  67.020  1.00  0.00    -0.310 A  
BRANCH  15  18
HETATM   18  C   UNL     1     -12.302  13.928  66.277  1.00  0.00    -0.489 C  
BRANCH  18  19
HETATM   19  C   UNL     1     -11.656  14.951  67.191  1.00  0.00    -0.315 C  
HETATM   20  N   UNL     1     -12.101  15.063  68.471  1.00  0.00    -0.584 N  
HETATM   21  O   UNL     1     -10.741  15.672  66.802  1.00  0.00    -0.308 OA 
HETATM   22  H2  UNL     1     -12.858  14.469  68.811  1.00  0.00     0.000 HD 
HETATM   23  H1  UNL     1     -11.666  15.751  69.086  1.00  0.00     0.000 HD 
ENDBRANCH  18  19
ENDBRANCH  15  18
ENDBRANCH  11  12
ENDBRANCH  10  11
ENDBRANCH   7  10
ENDBRANCH   6   7
ENDBRANCH   4   6
ENDBRANCH   2   4
TORSDOF 8
ENDMDL
MODEL      156
REMARK 921   NORMALIZED FREE ENERGY PREDICTED BY IDOCK:   -3.72 KCAL/MOL
REMARK 922        TOTAL FREE ENERGY PREDICTED BY IDOCK:   -6.03 KCAL/MOL
REMARK 923 INTER-LIGAND FREE ENERGY PREDICTED BY IDOCK:   -5.27 KCAL/MOL
REMARK 924 INTRA-LIGAND FREE ENERGY PREDICTED BY IDOCK:   -0.76 KCAL/MOL
REMARK 927      BINDING AFFINITY PREDICTED BY RF-SCORE:    0.00 PKD
ROOT
HETATM    1  C   UNL     1      -9.151   2.732  67.343  1.00  0.00    -0.208 C  
HETATM    2  C   UNL     1      -9.066   4.233  67.063  1.00  0.00    -0.136 C  
HETATM    3  C   UNL     1     -10.269   4.665  66.220  1.00  0.00    -0.306 C  
ENDROOT
BRANCH   2   4
HETATM    4  N   UNL     1      -9.016   4.940  68.346  1.00  0.00    -0.106 NA 
HETATM    5  H   UNL     1      -9.251   5.925  68.226  1.00  0.00     0.000 HD 
BRANCH   4   6
HETATM    6  C   UNL     1      -9.856   4.327  69.384  1.00  0.00    -0.135 C  
BRANCH   6   7
HETATM    7  C   UNL     1     -10.492   5.416  70.270  1.00  0.00    -0.285 C  
HETATM    8  H   UNL     1      -9.872   6.714  71.618  1.00  0.00     0.000 HD 
HETATM    9  O   UNL     1      -9.480   6.043  71.071  1.00  0.00    -0.166 OA 
BRANCH   7  10
HETATM   10  C   UNL     1     -11.211   6.470  69.419  1.00  0.00    -0.356 C  
BRANCH  10  11
HETATM   11  O   UNL     1     -10.283   7.500  69.049  1.00  0.00    -0.194 OA 
BRANCH  11  12
HETATM   12  C   UNL     1     -10.722   8.791  69.181  1.00  0.00    -0.131 A  
HETATM   13  C   UNL     1     -10.736   9.754  68.173  1.00  0.00    -0.280 A  
HETATM   14  C   UNL     1     -11.160  11.059  68.445  1.00  0.00    -0.308 A  
HETATM   15  C   UNL     1     -11.573  11.425  69.732  1.00  0.00    -0.407 A  
HETATM   16  C   UNL     1     -11.603  10.444  70.731  1.00  0.00    -0.450 A  
HETATM   17  C   UNL     1     -11.174   9.140  70.457  1.00  0.00    -0.309 A  
BRANCH  15  18
HETATM   18  C   UNL     1     -11.914  12.865  70.041  1.00  0.00    -0.380 C  
BRANCH  18  19
HETATM   19  C   UNL     1     -11.420  13.941  69.093  1.00  0.00    -0.299 C  
HETATM   20  N   UNL     1     -12.325  14.607  68.325  1.00  0.00    -0.593 N  
HETATM   21  O   UNL     1     -10.228  14.224  69.007  1.00  0.00    -0.220 OA 
HETATM   22  H2  UNL     1     -13.319  14.386  68.387  1.00  0.00     0.000 HD 
HETATM   23  H1  UNL     1     -11.992  15.330  67.687  1.00  0.00     0.000 HD 
ENDBRANCH  18  19
ENDBRANCH  15  18
ENDBRANCH  11  12
ENDBRANCH  10  11
ENDBRANCH   7  10
ENDBRANCH   6   7
ENDBRANCH   4   6
ENDBRANCH   2   4
TORSDOF 8
ENDMDL
MODEL      157
REMARK 921   NORMALIZED FREE ENERGY PREDICTED BY IDOCK:   -3.71 KCAL/MOL
REMARK 922        TOTAL FREE ENERGY PREDICTED BY IDOCK:   -6.01 KCAL/MOL
REMARK 923 INTER-LIGAND FREE ENERGY PREDICTED BY IDOCK:   -5.72 KCAL/MOL
REMARK 924 INTRA-LIGAND FREE ENERGY PREDICTED BY IDOCK:   -0.30 KCAL/MOL
REMARK 927      BINDING AFFINITY PREDICTED BY RF-SCORE:    0.00 PKD
ROOT
HETATM    1  C   UNL     1     -12.044  15.986  72.476  1.00  0.00    -0.635 C  
HETATM    2  C   UNL     1     -12.143  15.341  71.093  1.00  0.00    -0.348 C  
HETATM    3  C   UNL     1     -11.322  16.155  70.089  1.00  0.00    -0.347 C  
ENDROOT
BRANCH   2   4
HETATM    4  N   UNL     1     -11.666  13.958  71.195  1.00  0.00    -0.413 NA 
HETATM    5  H   UNL     1     -11.176  13.809  72.077  1.00  0.00     0.000 HD 
BRANCH   4   6
HETATM    6  C   UNL     1     -12.727  12.958  71.013  1.00  0.00    -0.251 C  
BRANCH   6   7
HETATM    7  C   UNL     1     -12.159  11.688  70.352  1.00  0.00    -0.373 C  
HETATM    8  H   UNL     1     -12.840   9.913  69.830  1.00  0.00     0.000 HD 
HETATM    9  O   UNL     1     -13.190  10.697  70.238  1.00  0.00    -0.156 OA 
BRANCH   7  10
HETATM   10  C   UNL     1     -11.578  11.999  68.967  1.00  0.00    -0.313 C  
BRANCH  10  11
HETATM   11  O   UNL     1     -12.082  11.052  68.014  1.00  0.00    -0.615 OA 
BRANCH  11  12
HETATM   12  C   UNL     1     -11.146  10.377  67.273  1.00  0.00    -0.179 A  
HETATM   13  C   UNL     1     -10.547   9.169  67.624  1.00  0.00    -0.307 A  
HETATM   14  C   UNL     1      -9.563   8.603  66.807  1.00  0.00    -0.269 A  
HETATM   15  C   UNL     1      -9.157   9.239  65.627  1.00  0.00    -0.268 A  
HETATM   16  C   UNL     1      -9.794  10.429  65.254  1.00  0.00    -0.361 A  
HETATM   17  C   UNL     1     -10.776  10.995  66.075  1.00  0.00    -0.242 A  
BRANCH  15  18
HETATM   18  C   UNL     1      -8.009   8.680  64.817  1.00  0.00    -0.141 C  
BRANCH  18  19
HETATM   19  C   UNL     1      -8.118   7.258  64.302  1.00  0.00    -0.049 C  
HETATM   20  N   UNL     1      -8.196   7.048  62.960  1.00  0.00    -0.320 N  
HETATM   21  O   UNL     1      -8.134   6.297  65.067  1.00  0.00    -0.128 OA 
HETATM   22  H2  UNL     1      -8.180   7.834  62.311  1.00  0.00     0.000 HD 
HETATM   23  H1  UNL     1      -8.269   6.091  62.614  1.00  0.00     0.000 HD 
ENDBRANCH  18  19
ENDBRANCH  15  18
ENDBRANCH  11  12
ENDBRANCH  10  11
ENDBRANCH   7  10
ENDBRANCH   6   7
ENDBRANCH   4   6
ENDBRANCH   2   4
TORSDOF 8
ENDMDL
MODEL      158
REMARK 921   NORMALIZED FREE ENERGY PREDICTED BY IDOCK:   -3.70 KCAL/MOL
REMARK 922        TOTAL FREE ENERGY PREDICTED BY IDOCK:   -6.01 KCAL/MOL
REMARK 923 INTER-LIGAND FREE ENERGY PREDICTED BY IDOCK:   -5.16 KCAL/MOL
REMARK 924 INTRA-LIGAND FREE ENERGY PREDICTED BY IDOCK:   -0.85 KCAL/MOL
REMARK 927      BINDING AFFINITY PREDICTED BY RF-SCORE:    0.00 PKD
ROOT
HETATM    1  C   UNL     1      -7.701  14.579  67.856  1.00  0.00    -0.147 C  
HETATM    2  C   UNL     1      -6.940  13.286  67.559  1.00  0.00    -0.144 C  
HETATM    3  C   UNL     1      -6.488  12.645  68.874  1.00  0.00    -0.091 C  
ENDROOT
BRANCH   2   4
HETATM    4  N   UNL     1      -7.821  12.398  66.794  1.00  0.00    -0.395 NA 
HETATM    5  H   UNL     1      -8.131  12.851  65.934  1.00  0.00     0.000 HD 
BRANCH   4   6
HETATM    6  C   UNL     1      -7.223  11.087  66.506  1.00  0.00    -0.143 C  
BRANCH   6   7
HETATM    7  C   UNL     1      -7.976  10.397  65.353  1.00  0.00    -0.147 C  
HETATM    8  H   UNL     1      -7.519   9.211  63.845  1.00  0.00     0.000 HD 
HETATM    9  O   UNL     1      -7.055   9.637  64.557  1.00  0.00    -0.109 OA 
BRANCH   7  10
HETATM   10  C   UNL     1      -9.084   9.481  65.887  1.00  0.00    -0.184 C  
BRANCH  10  11
HETATM   11  O   UNL     1     -10.364  10.006  65.505  1.00  0.00    -0.241 OA 
BRANCH  11  12
HETATM   12  C   UNL     1     -10.887  10.982  66.313  1.00  0.00    -0.170 A  
HETATM   13  C   UNL     1     -11.361  12.223  65.888  1.00  0.00    -0.406 A  
HETATM   14  C   UNL     1     -11.824  13.160  66.818  1.00  0.00    -0.444 A  
HETATM   15  C   UNL     1     -11.816  12.875  68.189  1.00  0.00    -0.380 A  
HETATM   16  C   UNL     1     -11.384  11.610  68.608  1.00  0.00    -0.326 A  
HETATM   17  C   UNL     1     -10.917  10.676  67.676  1.00  0.00    -0.370 A  
BRANCH  15  18
HETATM   18  C   UNL     1     -12.205  13.938  69.190  1.00  0.00    -0.305 C  
BRANCH  18  19
HETATM   19  C   UNL     1     -11.296  15.141  69.351  1.00  0.00    -0.294 C  
HETATM   20  N   UNL     1     -10.354  15.128  70.332  1.00  0.00    -0.507 N  
HETATM   21  O   UNL     1     -11.391  16.121  68.616  1.00  0.00    -0.354 OA 
HETATM   22  H2  UNL     1     -10.260  14.321  70.949  1.00  0.00     0.000 HD 
HETATM   23  H1  UNL     1      -9.743  15.937  70.440  1.00  0.00     0.000 HD 
ENDBRANCH  18  19
ENDBRANCH  15  18
ENDBRANCH  11  12
ENDBRANCH  10  11
ENDBRANCH   7  10
ENDBRANCH   6   7
ENDBRANCH   4   6
ENDBRANCH   2   4
TORSDOF 8
ENDMDL
MODEL      159
REMARK 921   NORMALIZED FREE ENERGY PREDICTED BY IDOCK:   -3.70 KCAL/MOL
REMARK 922        TOTAL FREE ENERGY PREDICTED BY IDOCK:   -6.00 KCAL/MOL
REMARK 923 INTER-LIGAND FREE ENERGY PREDICTED BY IDOCK:   -5.55 KCAL/MOL
REMARK 924 INTRA-LIGAND FREE ENERGY PREDICTED BY IDOCK:   -0.45 KCAL/MOL
REMARK 927      BINDING AFFINITY PREDICTED BY RF-SCORE:    0.00 PKD
ROOT
HETATM    1  C   UNL     1     -12.063  13.951  65.465  1.00  0.00    -0.425 C  
HETATM    2  C   UNL     1     -11.188  12.834  64.892  1.00  0.00    -0.297 C  
HETATM    3  C   UNL     1     -11.307  12.824  63.366  1.00  0.00    -0.395 C  
ENDROOT
BRANCH   2   4
HETATM    4  N   UNL     1      -9.808  13.059  65.331  1.00  0.00    -0.474 NA 
HETATM    5  H   UNL     1      -9.503  14.003  65.094  1.00  0.00     0.000 HD 
BRANCH   4   6
HETATM    6  C   UNL     1      -9.596  12.786  66.759  1.00  0.00    -0.244 C  
BRANCH   6   7
HETATM    7  C   UNL     1      -9.547  11.267  67.013  1.00  0.00    -0.178 C  
HETATM    8  H   UNL     1      -8.178   9.849  66.979  1.00  0.00     0.000 HD 
HETATM    9  O   UNL     1      -8.209  10.786  66.823  1.00  0.00    -0.126 OA 
BRANCH   7  10
HETATM   10  C   UNL     1     -10.027  10.929  68.430  1.00  0.00    -0.178 C  
BRANCH  10  11
HETATM   11  O   UNL     1      -8.905  10.535  69.233  1.00  0.00    -0.166 OA 
BRANCH  11  12
HETATM   12  C   UNL     1      -9.183   9.759  70.328  1.00  0.00    -0.172 A  
HETATM   13  C   UNL     1      -8.263   8.982  71.030  1.00  0.00    -0.220 A  
HETATM   14  C   UNL     1      -8.679   8.188  72.104  1.00  0.00    -0.234 A  
HETATM   15  C   UNL     1     -10.025   8.153  72.491  1.00  0.00    -0.372 A  
HETATM   16  C   UNL     1     -10.938   8.971  71.814  1.00  0.00    -0.443 A  
HETATM   17  C   UNL     1     -10.519   9.762  70.737  1.00  0.00    -0.339 A  
BRANCH  15  18
HETATM   18  C   UNL     1     -10.481   7.201  73.573  1.00  0.00    -0.422 C  
BRANCH  18  19
HETATM   19  C   UNL     1     -10.825   5.778  73.181  1.00  0.00    -0.276 C  
HETATM   20  N   UNL     1     -12.129   5.390  73.187  1.00  0.00    -0.437 N  
HETATM   21  O   UNL     1      -9.956   4.973  72.855  1.00  0.00    -0.154 OA 
HETATM   22  H2  UNL     1     -12.863   6.046  73.451  1.00  0.00     0.000 HD 
HETATM   23  H1  UNL     1     -12.360   4.432  72.923  1.00  0.00     0.000 HD 
ENDBRANCH  18  19
ENDBRANCH  15  18
ENDBRANCH  11  12
ENDBRANCH  10  11
ENDBRANCH   7  10
ENDBRANCH   6   7
ENDBRANCH   4   6
ENDBRANCH   2   4
TORSDOF 8
ENDMDL
MODEL      160
REMARK 921   NORMALIZED FREE ENERGY PREDICTED BY IDOCK:   -3.67 KCAL/MOL
REMARK 922        TOTAL FREE ENERGY PREDICTED BY IDOCK:   -5.95 KCAL/MOL
REMARK 923 INTER-LIGAND FREE ENERGY PREDICTED BY IDOCK:   -5.42 KCAL/MOL
REMARK 924 INTRA-LIGAND FREE ENERGY PREDICTED BY IDOCK:   -0.53 KCAL/MOL
REMARK 927      BINDING AFFINITY PREDICTED BY RF-SCORE:    0.00 PKD
ROOT
HETATM    1  C   UNL     1     -12.172  14.323  64.270  1.00  0.00    -0.451 C  
HETATM    2  C   UNL     1     -10.729  14.200  64.761  1.00  0.00    -0.419 C  
HETATM    3  C   UNL     1     -10.292  15.520  65.400  1.00  0.00    -0.422 C  
ENDROOT
BRANCH   2   4
HETATM    4  N   UNL     1     -10.659  13.084  65.709  1.00  0.00    -0.273 NA 
HETATM    5  H   UNL     1      -9.735  13.032  66.138  1.00  0.00     0.000 HD 
BRANCH   4   6
HETATM    6  C   UNL     1     -11.708  13.123  66.737  1.00  0.00    -0.385 C  
BRANCH   6   7
HETATM    7  C   UNL     1     -11.085  13.025  68.143  1.00  0.00    -0.256 C  
HETATM    8  H   UNL     1     -10.921  14.189  69.726  1.00  0.00     0.000 HD 
HETATM    9  O   UNL     1     -11.306  14.249  68.859  1.00  0.00    -0.244 OA 
BRANCH   7  10
HETATM   10  C   UNL     1     -11.675  11.847  68.927  1.00  0.00    -0.323 C  
BRANCH  10  11
HETATM   11  O   UNL     1     -10.620  10.954  69.314  1.00  0.00    -0.213 OA 
BRANCH  11  12
HETATM   12  C   UNL     1     -10.597   9.733  68.691  1.00  0.00    -0.221 A  
HETATM   13  C   UNL     1     -10.594   9.522  67.313  1.00  0.00    -0.317 A  
HETATM   14  C   UNL     1     -10.624   8.223  66.796  1.00  0.00    -0.226 A  
HETATM   15  C   UNL     1     -10.661   7.112  67.648  1.00  0.00    -0.314 A  
HETATM   16  C   UNL     1     -10.616   7.327  69.031  1.00  0.00    -0.214 A  
HETATM   17  C   UNL     1     -10.591   8.628  69.546  1.00  0.00    -0.218 A  
BRANCH  15  18
HETATM   18  C   UNL     1     -10.814   5.720  67.078  1.00  0.00    -0.328 C  
BRANCH  18  19
HETATM   19  C   UNL     1      -9.594   4.819  67.044  1.00  0.00    -0.171 C  
HETATM   20  N   UNL     1      -9.755   3.485  67.255  1.00  0.00    -0.318 N  
HETATM   21  O   UNL     1      -8.471   5.267  66.827  1.00  0.00    -0.108 OA 
HETATM   22  H2  UNL     1     -10.682   3.097  67.433  1.00  0.00     0.000 HD 
HETATM   23  H1  UNL     1      -8.935   2.879  67.232  1.00  0.00     0.000 HD 
ENDBRANCH  18  19
ENDBRANCH  15  18
ENDBRANCH  11  12
ENDBRANCH  10  11
ENDBRANCH   7  10
ENDBRANCH   6   7
ENDBRANCH   4   6
ENDBRANCH   2   4
TORSDOF 8
ENDMDL
MODEL      161
REMARK 921   NORMALIZED FREE ENERGY PREDICTED BY IDOCK:   -3.67 KCAL/MOL
REMARK 922        TOTAL FREE ENERGY PREDICTED BY IDOCK:   -5.95 KCAL/MOL
REMARK 923 INTER-LIGAND FREE ENERGY PREDICTED BY IDOCK:   -5.31 KCAL/MOL
REMARK 924 INTRA-LIGAND FREE ENERGY PREDICTED BY IDOCK:   -0.64 KCAL/MOL
REMARK 927      BINDING AFFINITY PREDICTED BY RF-SCORE:    0.00 PKD
ROOT
HETATM    1  C   UNL     1      -9.455   3.096  67.909  1.00  0.00    -0.215 C  
HETATM    2  C   UNL     1      -9.253   4.490  67.312  1.00  0.00    -0.136 C  
HETATM    3  C   UNL     1     -10.256   4.711  66.177  1.00  0.00    -0.308 C  
ENDROOT
BRANCH   2   4
HETATM    4  N   UNL     1      -9.414   5.478  68.383  1.00  0.00    -0.114 NA 
HETATM    5  H   UNL     1      -9.824   6.339  68.022  1.00  0.00     0.000 HD 
BRANCH   4   6
HETATM    6  C   UNL     1     -10.184   4.976  69.530  1.00  0.00    -0.216 C  
BRANCH   6   7
HETATM    7  C   UNL     1     -10.535   6.132  70.487  1.00  0.00    -0.234 C  
HETATM    8  H   UNL     1      -9.563   7.308  71.736  1.00  0.00     0.000 HD 
HETATM    9  O   UNL     1      -9.347   6.595  71.145  1.00  0.00    -0.162 OA 
BRANCH   7  10
HETATM   10  C   UNL     1     -11.198   7.291  69.732  1.00  0.00    -0.126 C  
BRANCH  10  11
HETATM   11  O   UNL     1     -10.194   8.228  69.316  1.00  0.00    -0.196 OA 
BRANCH  11  12
HETATM   12  C   UNL     1     -10.637   9.338  68.645  1.00  0.00    -0.187 A  
HETATM   13  C   UNL     1     -10.547   9.547  67.270  1.00  0.00    -0.317 A  
HETATM   14  C   UNL     1     -10.988  10.749  66.706  1.00  0.00    -0.214 A  
HETATM   15  C   UNL     1     -11.522  11.765  67.509  1.00  0.00    -0.373 A  
HETATM   16  C   UNL     1     -11.654  11.532  68.884  1.00  0.00    -0.384 A  
HETATM   17  C   UNL     1     -11.208  10.330  69.446  1.00  0.00    -0.292 A  
BRANCH  15  18
HETATM   18  C   UNL     1     -11.883  13.103  66.905  1.00  0.00    -0.444 C  
BRANCH  18  19
HETATM   19  C   UNL     1     -11.702  13.290  65.411  1.00  0.00    -0.343 C  
HETATM   20  N   UNL     1     -12.779  13.144  64.594  1.00  0.00    -0.699 N  
HETATM   21  O   UNL     1     -10.608  13.573  64.928  1.00  0.00    -0.349 OA 
HETATM   22  H2  UNL     1     -13.694  12.912  64.979  1.00  0.00     0.000 HD 
HETATM   23  H1  UNL     1     -12.656  13.270  63.589  1.00  0.00     0.000 HD 
ENDBRANCH  18  19
ENDBRANCH  15  18
ENDBRANCH  11  12
ENDBRANCH  10  11
ENDBRANCH   7  10
ENDBRANCH   6   7
ENDBRANCH   4   6
ENDBRANCH   2   4
TORSDOF 8
ENDMDL
MODEL      162
REMARK 921   NORMALIZED FREE ENERGY PREDICTED BY IDOCK:   -3.67 KCAL/MOL
REMARK 922        TOTAL FREE ENERGY PREDICTED BY IDOCK:   -5.95 KCAL/MOL
REMARK 923 INTER-LIGAND FREE ENERGY PREDICTED BY IDOCK:   -4.89 KCAL/MOL
REMARK 924 INTRA-LIGAND FREE ENERGY PREDICTED BY IDOCK:   -1.06 KCAL/MOL
REMARK 927      BINDING AFFINITY PREDICTED BY RF-SCORE:    0.00 PKD
ROOT
HETATM    1  C   UNL     1      -7.671  11.723  68.521  1.00  0.00    -0.137 C  
HETATM    2  C   UNL     1      -6.933  10.449  68.107  1.00  0.00    -0.073 C  
HETATM    3  C   UNL     1      -5.468  10.780  67.810  1.00  0.00    -0.039 C  
ENDROOT
BRANCH   2   4
HETATM    4  N   UNL     1      -7.063   9.469  69.189  1.00  0.00    -0.061 NA 
HETATM    5  H   UNL     1      -6.146   9.151  69.502  1.00  0.00     0.000 HD 
BRANCH   4   6
HETATM    6  C   UNL     1      -7.860   9.953  70.325  1.00  0.00    -0.129 C  
BRANCH   6   7
HETATM    7  C   UNL     1      -8.830   8.856  70.805  1.00  0.00    -0.208 C  
HETATM    8  H   UNL     1      -8.972   7.640  72.350  1.00  0.00     0.000 HD 
HETATM    9  O   UNL     1      -8.374   8.316  72.054  1.00  0.00    -0.137 OA 
BRANCH   7  10
HETATM   10  C   UNL     1     -10.253   9.409  70.964  1.00  0.00    -0.299 C  
BRANCH  10  11
HETATM   11  O   UNL     1     -11.055   8.990  69.850  1.00  0.00    -0.223 OA 
BRANCH  11  12
HETATM   12  C   UNL     1     -10.956   9.746  68.711  1.00  0.00    -0.148 A  
HETATM   13  C   UNL     1     -10.415   9.323  67.498  1.00  0.00    -0.338 A  
HETATM   14  C   UNL     1     -10.321  10.208  66.417  1.00  0.00    -0.258 A  
HETATM   15  C   UNL     1     -10.762  11.532  66.534  1.00  0.00    -0.318 A  
HETATM   16  C   UNL     1     -11.348  11.939  67.739  1.00  0.00    -0.361 A  
HETATM   17  C   UNL     1     -11.437  11.053  68.819  1.00  0.00    -0.372 A  
BRANCH  15  18
HETATM   18  C   UNL     1     -10.545  12.509  65.401  1.00  0.00    -0.310 C  
BRANCH  18  19
HETATM   19  C   UNL     1     -11.613  12.617  64.331  1.00  0.00    -0.357 C  
HETATM   20  N   UNL     1     -12.864  13.015  64.687  1.00  0.00    -0.732 N  
HETATM   21  O   UNL     1     -11.372  12.359  63.154  1.00  0.00    -0.386 OA 
HETATM   22  H2  UNL     1     -13.080  13.236  65.659  1.00  0.00     0.000 HD 
HETATM   23  H1  UNL     1     -13.583  13.088  63.966  1.00  0.00     0.000 HD 
ENDBRANCH  18  19
ENDBRANCH  15  18
ENDBRANCH  11  12
ENDBRANCH  10  11
ENDBRANCH   7  10
ENDBRANCH   6   7
ENDBRANCH   4   6
ENDBRANCH   2   4
TORSDOF 8
ENDMDL
MODEL      163
REMARK 921   NORMALIZED FREE ENERGY PREDICTED BY IDOCK:   -3.65 KCAL/MOL
REMARK 922        TOTAL FREE ENERGY PREDICTED BY IDOCK:   -5.92 KCAL/MOL
REMARK 923 INTER-LIGAND FREE ENERGY PREDICTED BY IDOCK:   -5.06 KCAL/MOL
REMARK 924 INTRA-LIGAND FREE ENERGY PREDICTED BY IDOCK:   -0.86 KCAL/MOL
REMARK 927      BINDING AFFINITY PREDICTED BY RF-SCORE:    0.00 PKD
ROOT
HETATM    1  C   UNL     1      -5.800  21.334  67.085  1.00  0.00    -0.403 C  
HETATM    2  C   UNL     1      -7.083  20.525  66.884  1.00  0.00    -0.290 C  
HETATM    3  C   UNL     1      -6.931  19.621  65.659  1.00  0.00    -0.325 C  
ENDROOT
BRANCH   2   4
HETATM    4  N   UNL     1      -7.336  19.754  68.105  1.00  0.00    -0.297 NA 
HETATM    5  H   UNL     1      -7.438  18.762  67.890  1.00  0.00     0.000 HD 
BRANCH   4   6
HETATM    6  C   UNL     1      -6.322  19.959  69.148  1.00  0.00    -0.318 C  
BRANCH   6   7
HETATM    7  C   UNL     1      -5.635  18.625  69.497  1.00  0.00    -0.226 C  
HETATM    8  H   UNL     1      -4.750  17.834  71.071  1.00  0.00     0.000 HD 
HETATM    9  O   UNL     1      -5.174  18.656  70.856  1.00  0.00    -0.243 OA 
BRANCH   7  10
HETATM   10  C   UNL     1      -6.591  17.442  69.297  1.00  0.00    -0.240 C  
BRANCH  10  11
HETATM   11  O   UNL     1      -6.252  16.753  68.085  1.00  0.00    -0.126 OA 
BRANCH  11  12
HETATM   12  C   UNL     1      -7.227  15.957  67.543  1.00  0.00    -0.177 A  
HETATM   13  C   UNL     1      -8.263  16.388  66.716  1.00  0.00    -0.286 A  
HETATM   14  C   UNL     1      -9.233  15.485  66.267  1.00  0.00    -0.364 A  
HETATM   15  C   UNL     1      -9.187  14.137  66.643  1.00  0.00    -0.272 A  
HETATM   16  C   UNL     1      -8.118  13.698  67.436  1.00  0.00    -0.184 A  
HETATM   17  C   UNL     1      -7.152  14.605  67.887  1.00  0.00    -0.170 A  
BRANCH  15  18
HETATM   18  C   UNL     1     -10.305  13.198  66.251  1.00  0.00    -0.291 C  
BRANCH  18  19
HETATM   19  C   UNL     1      -9.944  11.905  65.545  1.00  0.00    -0.238 C  
HETATM   20  N   UNL     1      -9.178  11.959  64.423  1.00  0.00    -0.367 N  
HETATM   21  O   UNL     1     -10.326  10.815  65.966  1.00  0.00    -0.248 OA 
HETATM   22  H2  UNL     1      -8.850  12.855  64.063  1.00  0.00     0.000 HD 
HETATM   23  H1  UNL     1      -8.935  11.089  63.949  1.00  0.00     0.000 HD 
ENDBRANCH  18  19
ENDBRANCH  15  18
ENDBRANCH  11  12
ENDBRANCH  10  11
ENDBRANCH   7  10
ENDBRANCH   6   7
ENDBRANCH   4   6
ENDBRANCH   2   4
TORSDOF 8
ENDMDL
MODEL      164
REMARK 921   NORMALIZED FREE ENERGY PREDICTED BY IDOCK:   -3.63 KCAL/MOL
REMARK 922        TOTAL FREE ENERGY PREDICTED BY IDOCK:   -5.90 KCAL/MOL
REMARK 923 INTER-LIGAND FREE ENERGY PREDICTED BY IDOCK:   -5.33 KCAL/MOL
REMARK 924 INTRA-LIGAND FREE ENERGY PREDICTED BY IDOCK:   -0.57 KCAL/MOL
REMARK 927      BINDING AFFINITY PREDICTED BY RF-SCORE:    0.00 PKD
ROOT
HETATM    1  C   UNL     1     -12.422   6.924  71.566  1.00  0.00    -0.420 C  
HETATM    2  C   UNL     1     -10.927   6.886  71.889  1.00  0.00    -0.235 C  
HETATM    3  C   UNL     1     -10.684   7.522  73.260  1.00  0.00    -0.437 C  
ENDROOT
BRANCH   2   4
HETATM    4  N   UNL     1     -10.483   5.489  71.849  1.00  0.00    -0.219 NA 
HETATM    5  H   UNL     1     -11.209   4.890  71.455  1.00  0.00     0.000 HD 
BRANCH   4   6
HETATM    6  C   UNL     1      -9.211   5.301  71.138  1.00  0.00    -0.145 C  
BRANCH   6   7
HETATM    7  C   UNL     1      -8.984   6.446  70.132  1.00  0.00    -0.154 C  
HETATM    8  H   UNL     1      -7.438   7.403  69.369  1.00  0.00     0.000 HD 
HETATM    9  O   UNL     1      -7.578   6.696  69.989  1.00  0.00    -0.095 OA 
BRANCH   7  10
HETATM   10  C   UNL     1      -9.596   6.111  68.766  1.00  0.00    -0.125 C  
BRANCH  10  11
HETATM   11  O   UNL     1     -10.623   7.064  68.456  1.00  0.00    -0.200 OA 
BRANCH  11  12
HETATM   12  C   UNL     1     -10.308   8.015  67.521  1.00  0.00    -0.261 A  
HETATM   13  C   UNL     1      -9.459   7.834  66.430  1.00  0.00    -0.245 A  
HETATM   14  C   UNL     1      -9.171   8.901  65.571  1.00  0.00    -0.242 A  
HETATM   15  C   UNL     1      -9.725  10.168  65.792  1.00  0.00    -0.307 A  
HETATM   16  C   UNL     1     -10.615  10.335  66.861  1.00  0.00    -0.282 A  
HETATM   17  C   UNL     1     -10.897   9.267  67.721  1.00  0.00    -0.192 A  
BRANCH  15  18
HETATM   18  C   UNL     1      -9.313  11.340  64.929  1.00  0.00    -0.181 C  
BRANCH  18  19
HETATM   19  C   UNL     1     -10.215  11.735  63.776  1.00  0.00    -0.399 C  
HETATM   20  N   UNL     1     -10.431  10.842  62.773  1.00  0.00    -0.781 N  
HETATM   21  O   UNL     1     -10.754  12.838  63.731  1.00  0.00    -0.413 OA 
HETATM   22  H2  UNL     1      -9.993   9.921  62.796  1.00  0.00     0.000 HD 
HETATM   23  H1  UNL     1     -11.037  11.109  61.997  1.00  0.00     0.000 HD 
ENDBRANCH  18  19
ENDBRANCH  15  18
ENDBRANCH  11  12
ENDBRANCH  10  11
ENDBRANCH   7  10
ENDBRANCH   6   7
ENDBRANCH   4   6
ENDBRANCH   2   4
TORSDOF 8
ENDMDL
MODEL      165
REMARK 921   NORMALIZED FREE ENERGY PREDICTED BY IDOCK:   -3.63 KCAL/MOL
REMARK 922        TOTAL FREE ENERGY PREDICTED BY IDOCK:   -5.90 KCAL/MOL
REMARK 923 INTER-LIGAND FREE ENERGY PREDICTED BY IDOCK:   -5.47 KCAL/MOL
REMARK 924 INTRA-LIGAND FREE ENERGY PREDICTED BY IDOCK:   -0.43 KCAL/MOL
REMARK 927      BINDING AFFINITY PREDICTED BY RF-SCORE:    0.00 PKD
ROOT
HETATM    1  C   UNL     1      -5.465  21.016  66.344  1.00  0.00    -0.260 C  
HETATM    2  C   UNL     1      -6.883  20.652  66.785  1.00  0.00    -0.283 C  
HETATM    3  C   UNL     1      -7.578  19.863  65.672  1.00  0.00    -0.242 C  
ENDROOT
BRANCH   2   4
HETATM    4  N   UNL     1      -6.796  19.880  68.028  1.00  0.00    -0.265 NA 
HETATM    5  H   UNL     1      -7.711  19.516  68.293  1.00  0.00     0.000 HD 
BRANCH   4   6
HETATM    6  C   UNL     1      -5.801  18.800  67.977  1.00  0.00    -0.202 C  
BRANCH   6   7
HETATM    7  C   UNL     1      -6.395  17.497  68.545  1.00  0.00    -0.179 C  
HETATM    8  H   UNL     1      -6.431  16.575  70.288  1.00  0.00     0.000 HD 
HETATM    9  O   UNL     1      -6.065  17.379  69.937  1.00  0.00    -0.247 OA 
BRANCH   7  10
HETATM   10  C   UNL     1      -7.918  17.460  68.365  1.00  0.00    -0.259 C  
BRANCH  10  11
HETATM   11  O   UNL     1      -8.490  16.553  69.320  1.00  0.00    -0.196 OA 
BRANCH  11  12
HETATM   12  C   UNL     1      -9.233  15.521  68.809  1.00  0.00    -0.210 A  
HETATM   13  C   UNL     1      -8.723  14.343  68.264  1.00  0.00    -0.180 A  
HETATM   14  C   UNL     1      -9.584  13.382  67.724  1.00  0.00    -0.213 A  
HETATM   15  C   UNL     1     -10.970  13.585  67.715  1.00  0.00    -0.284 A  
HETATM   16  C   UNL     1     -11.481  14.747  68.305  1.00  0.00    -0.338 A  
HETATM   17  C   UNL     1     -10.617  15.709  68.841  1.00  0.00    -0.228 A  
BRANCH  15  18
HETATM   18  C   UNL     1     -11.879  12.596  67.021  1.00  0.00    -0.415 C  
BRANCH  18  19
HETATM   19  C   UNL     1     -11.806  12.488  65.511  1.00  0.00    -0.439 C  
HETATM   20  N   UNL     1     -12.844  12.953  64.766  1.00  0.00    -0.744 N  
HETATM   21  O   UNL     1     -10.831  11.995  64.949  1.00  0.00    -0.282 OA 
HETATM   22  H2  UNL     1     -13.660  13.368  65.217  1.00  0.00     0.000 HD 
HETATM   23  H1  UNL     1     -12.794  12.880  63.750  1.00  0.00     0.000 HD 
ENDBRANCH  18  19
ENDBRANCH  15  18
ENDBRANCH  11  12
ENDBRANCH  10  11
ENDBRANCH   7  10
ENDBRANCH   6   7
ENDBRANCH   4   6
ENDBRANCH   2   4
TORSDOF 8
ENDMDL
MODEL      166
REMARK 921   NORMALIZED FREE ENERGY PREDICTED BY IDOCK:   -3.63 KCAL/MOL
REMARK 922        TOTAL FREE ENERGY PREDICTED BY IDOCK:   -5.89 KCAL/MOL
REMARK 923 INTER-LIGAND FREE ENERGY PREDICTED BY IDOCK:   -5.49 KCAL/MOL
REMARK 924 INTRA-LIGAND FREE ENERGY PREDICTED BY IDOCK:   -0.41 KCAL/MOL
REMARK 927      BINDING AFFINITY PREDICTED BY RF-SCORE:    0.00 PKD
ROOT
HETATM    1  C   UNL     1      -5.739   6.368  71.139  1.00  0.00    -0.027 C  
HETATM    2  C   UNL     1      -7.069   6.408  70.386  1.00  0.00    -0.068 C  
HETATM    3  C   UNL     1      -7.776   5.057  70.523  1.00  0.00    -0.070 C  
ENDROOT
BRANCH   2   4
HETATM    4  N   UNL     1      -7.875   7.504  70.933  1.00  0.00    -0.093 NA 
HETATM    5  H   UNL     1      -7.462   8.407  70.700  1.00  0.00     0.000 HD 
BRANCH   4   6
HETATM    6  C   UNL     1      -9.285   7.455  70.523  1.00  0.00    -0.157 C  
BRANCH   6   7
HETATM    7  C   UNL     1      -9.900   8.867  70.548  1.00  0.00    -0.200 C  
HETATM    8  H   UNL     1      -9.280  10.697  70.941  1.00  0.00     0.000 HD 
HETATM    9  O   UNL     1      -8.901   9.826  70.926  1.00  0.00    -0.134 OA 
BRANCH   7  10
HETATM   10  C   UNL     1     -10.488   9.238  69.181  1.00  0.00    -0.217 C  
BRANCH  10  11
HETATM   11  O   UNL     1      -9.686  10.263  68.578  1.00  0.00    -0.152 OA 
BRANCH  11  12
HETATM   12  C   UNL     1     -10.363  11.255  67.915  1.00  0.00    -0.182 A  
HETATM   13  C   UNL     1     -10.745  12.481  68.456  1.00  0.00    -0.263 A  
HETATM   14  C   UNL     1     -11.481  13.394  67.693  1.00  0.00    -0.353 A  
HETATM   15  C   UNL     1     -11.853  13.092  66.377  1.00  0.00    -0.455 A  
HETATM   16  C   UNL     1     -11.428  11.879  65.821  1.00  0.00    -0.326 A  
HETATM   17  C   UNL     1     -10.694  10.966  66.589  1.00  0.00    -0.289 A  
BRANCH  15  18
HETATM   18  C   UNL     1     -12.750  14.033  65.605  1.00  0.00    -0.515 C  
BRANCH  18  19
HETATM   19  C   UNL     1     -12.309  14.475  64.223  1.00  0.00    -0.369 C  
HETATM   20  N   UNL     1     -11.510  15.570  64.106  1.00  0.00    -0.794 N  
HETATM   21  O   UNL     1     -12.653  13.866  63.213  1.00  0.00    -0.824 OA 
HETATM   22  H2  UNL     1     -11.213  16.085  64.935  1.00  0.00     0.000 HD 
HETATM   23  H1  UNL     1     -11.213  15.867  63.176  1.00  0.00     0.000 HD 
ENDBRANCH  18  19
ENDBRANCH  15  18
ENDBRANCH  11  12
ENDBRANCH  10  11
ENDBRANCH   7  10
ENDBRANCH   6   7
ENDBRANCH   4   6
ENDBRANCH   2   4
TORSDOF 8
ENDMDL
MODEL      167
REMARK 921   NORMALIZED FREE ENERGY PREDICTED BY IDOCK:   -3.58 KCAL/MOL
REMARK 922        TOTAL FREE ENERGY PREDICTED BY IDOCK:   -5.83 KCAL/MOL
REMARK 923 INTER-LIGAND FREE ENERGY PREDICTED BY IDOCK:   -5.37 KCAL/MOL
REMARK 924 INTRA-LIGAND FREE ENERGY PREDICTED BY IDOCK:   -0.45 KCAL/MOL
REMARK 927      BINDING AFFINITY PREDICTED BY RF-SCORE:    0.00 PKD
ROOT
HETATM    1  C   UNL     1      -9.947   4.429  70.859  1.00  0.00    -0.242 C  
HETATM    2  C   UNL     1     -10.727   5.652  71.344  1.00  0.00    -0.244 C  
HETATM    3  C   UNL     1     -11.001   5.521  72.844  1.00  0.00    -0.332 C  
ENDROOT
BRANCH   2   4
HETATM    4  N   UNL     1      -9.942   6.851  71.034  1.00  0.00    -0.189 NA 
HETATM    5  H   UNL     1      -9.001   6.599  70.732  1.00  0.00     0.000 HD 
BRANCH   4   6
HETATM    6  C   UNL     1     -10.586   7.734  70.052  1.00  0.00    -0.238 C  
BRANCH   6   7
HETATM    7  C   UNL     1      -9.995   7.496  68.649  1.00  0.00    -0.172 C  
HETATM    8  H   UNL     1     -10.549   6.579  66.994  1.00  0.00     0.000 HD 
HETATM    9  O   UNL     1     -10.913   6.726  67.859  1.00  0.00    -0.252 OA 
BRANCH   7  10
HETATM   10  C   UNL     1      -9.688   8.825  67.947  1.00  0.00    -0.157 C  
BRANCH  10  11
HETATM   11  O   UNL     1     -10.910   9.405  67.468  1.00  0.00    -0.269 OA 
BRANCH  11  12
HETATM   12  C   UNL     1     -10.895  10.758  67.247  1.00  0.00    -0.288 A  
HETATM   13  C   UNL     1     -10.019  11.434  66.399  1.00  0.00    -0.247 A  
HETATM   14  C   UNL     1     -10.068  12.829  66.297  1.00  0.00    -0.267 A  
HETATM   15  C   UNL     1     -10.991  13.571  67.044  1.00  0.00    -0.297 A  
HETATM   16  C   UNL     1     -11.901  12.885  67.858  1.00  0.00    -0.388 A  
HETATM   17  C   UNL     1     -11.847  11.490  67.962  1.00  0.00    -0.287 A  
BRANCH  15  18
HETATM   18  C   UNL     1     -10.954  15.082  67.016  1.00  0.00    -0.318 C  
BRANCH  18  19
HETATM   19  C   UNL     1     -10.316  15.764  65.821  1.00  0.00    -0.369 C  
HETATM   20  N   UNL     1      -9.070  16.293  65.953  1.00  0.00    -0.285 N  
HETATM   21  O   UNL     1     -10.897  15.843  64.741  1.00  0.00    -0.533 OA 
HETATM   22  H2  UNL     1      -8.573  16.232  66.841  1.00  0.00     0.000 HD 
HETATM   23  H1  UNL     1      -8.641  16.751  65.148  1.00  0.00     0.000 HD 
ENDBRANCH  18  19
ENDBRANCH  15  18
ENDBRANCH  11  12
ENDBRANCH  10  11
ENDBRANCH   7  10
ENDBRANCH   6   7
ENDBRANCH   4   6
ENDBRANCH   2   4
TORSDOF 8
ENDMDL
MODEL      168
REMARK 921   NORMALIZED FREE ENERGY PREDICTED BY IDOCK:   -3.57 KCAL/MOL
REMARK 922        TOTAL FREE ENERGY PREDICTED BY IDOCK:   -5.82 KCAL/MOL
REMARK 923 INTER-LIGAND FREE ENERGY PREDICTED BY IDOCK:   -5.37 KCAL/MOL
REMARK 924 INTRA-LIGAND FREE ENERGY PREDICTED BY IDOCK:   -0.44 KCAL/MOL
REMARK 927      BINDING AFFINITY PREDICTED BY RF-SCORE:    0.00 PKD
ROOT
HETATM    1  C   UNL     1      -9.045  15.720  69.385  1.00  0.00    -0.254 C  
HETATM    2  C   UNL     1     -10.406  15.651  68.691  1.00  0.00    -0.216 C  
HETATM    3  C   UNL     1     -10.754  17.024  68.109  1.00  0.00    -0.374 C  
ENDROOT
BRANCH   2   4
HETATM    4  N   UNL     1     -10.342  14.619  67.652  1.00  0.00    -0.233 NA 
HETATM    5  H   UNL     1     -10.355  13.687  68.067  1.00  0.00     0.000 HD 
BRANCH   4   6
HETATM    6  C   UNL     1     -11.391  14.749  66.632  1.00  0.00    -0.347 C  
BRANCH   6   7
HETATM    7  C   UNL     1     -11.518  13.443  65.824  1.00  0.00    -0.320 C  
HETATM    8  H   UNL     1     -11.725  12.940  63.929  1.00  0.00     0.000 HD 
HETATM    9  O   UNL     1     -11.647  13.746  64.427  1.00  0.00    -0.380 OA 
BRANCH   7  10
HETATM   10  C   UNL     1     -10.303  12.533  66.051  1.00  0.00    -0.256 C  
BRANCH  10  11
HETATM   11  O   UNL     1     -10.673  11.170  65.796  1.00  0.00    -0.250 OA 
BRANCH  11  12
HETATM   12  C   UNL     1     -10.581  10.306  66.855  1.00  0.00    -0.217 A  
HETATM   13  C   UNL     1     -10.067   9.011  66.807  1.00  0.00    -0.344 A  
HETATM   14  C   UNL     1     -10.075   8.202  67.949  1.00  0.00    -0.246 A  
HETATM   15  C   UNL     1     -10.601   8.674  69.158  1.00  0.00    -0.193 A  
HETATM   16  C   UNL     1     -11.072   9.991  69.215  1.00  0.00    -0.248 A  
HETATM   17  C   UNL     1     -11.067  10.796  68.070  1.00  0.00    -0.359 A  
BRANCH  15  18
HETATM   18  C   UNL     1     -10.713   7.751  70.350  1.00  0.00    -0.238 C  
BRANCH  18  19
HETATM   19  C   UNL     1     -10.430   8.319  71.728  1.00  0.00    -0.259 C  
HETATM   20  N   UNL     1      -9.190   8.811  71.995  1.00  0.00    -0.268 N  
HETATM   21  O   UNL     1     -11.294   8.347  72.601  1.00  0.00    -0.372 OA 
HETATM   22  H2  UNL     1      -8.463   8.798  71.280  1.00  0.00     0.000 HD 
HETATM   23  H1  UNL     1      -9.000   9.193  72.922  1.00  0.00     0.000 HD 
ENDBRANCH  18  19
ENDBRANCH  15  18
ENDBRANCH  11  12
ENDBRANCH  10  11
ENDBRANCH   7  10
ENDBRANCH   6   7
ENDBRANCH   4   6
ENDBRANCH   2   4
TORSDOF 8
ENDMDL
MODEL      169
REMARK 921   NORMALIZED FREE ENERGY PREDICTED BY IDOCK:   -3.57 KCAL/MOL
REMARK 922        TOTAL FREE ENERGY PREDICTED BY IDOCK:   -5.82 KCAL/MOL
REMARK 923 INTER-LIGAND FREE ENERGY PREDICTED BY IDOCK:   -5.49 KCAL/MOL
REMARK 924 INTRA-LIGAND FREE ENERGY PREDICTED BY IDOCK:   -0.33 KCAL/MOL
REMARK 927      BINDING AFFINITY PREDICTED BY RF-SCORE:    0.00 PKD
ROOT
HETATM    1  C   UNL     1      -7.910   5.263  73.323  1.00  0.00    -0.104 C  
HETATM    2  C   UNL     1      -8.796   5.430  72.087  1.00  0.00    -0.130 C  
HETATM    3  C   UNL     1      -8.715   4.168  71.225  1.00  0.00    -0.134 C  
ENDROOT
BRANCH   2   4
HETATM    4  N   UNL     1     -10.166   5.698  72.535  1.00  0.00    -0.185 NA 
HETATM    5  H   UNL     1     -10.182   6.459  73.214  1.00  0.00     0.000 HD 
BRANCH   4   6
HETATM    6  C   UNL     1     -11.101   5.963  71.433  1.00  0.00    -0.248 C  
BRANCH   6   7
HETATM    7  C   UNL     1     -12.130   7.032  71.849  1.00  0.00    -0.323 C  
HETATM    8  H   UNL     1     -12.304   8.380  73.277  1.00  0.00     0.000 HD 
HETATM    9  O   UNL     1     -11.669   7.721  73.020  1.00  0.00    -0.277 OA 
BRANCH   7  10
HETATM   10  C   UNL     1     -12.373   8.035  70.714  1.00  0.00     0.044 C  
BRANCH  10  11
HETATM   11  O   UNL     1     -11.355   9.046  70.745  1.00  0.00    -0.261 OA 
BRANCH  11  12
HETATM   12  C   UNL     1     -11.786  10.340  70.889  1.00  0.00    -0.379 A  
HETATM   13  C   UNL     1     -12.567  10.826  71.936  1.00  0.00    -0.262 A  
HETATM   14  C   UNL     1     -12.989  12.160  71.945  1.00  0.00    -0.419 A  
HETATM   15  C   UNL     1     -12.642  13.028  70.903  1.00  0.00    -0.364 A  
HETATM   16  C   UNL     1     -11.819  12.549  69.876  1.00  0.00    -0.373 A  
HETATM   17  C   UNL     1     -11.401  11.213  69.868  1.00  0.00    -0.348 A  
BRANCH  15  18
HETATM   18  C   UNL     1     -13.204  14.432  70.863  1.00  0.00    -0.347 C  
BRANCH  18  19
HETATM   19  C   UNL     1     -12.264  15.573  70.525  1.00  0.00    -0.404 C  
HETATM   20  N   UNL     1     -11.724  16.302  71.538  1.00  0.00    -0.623 N  
HETATM   21  O   UNL     1     -11.979  15.848  69.362  1.00  0.00    -0.354 OA 
HETATM   22  H2  UNL     1     -11.947  16.085  72.509  1.00  0.00     0.000 HD 
HETATM   23  H1  UNL     1     -11.091  17.070  71.311  1.00  0.00     0.000 HD 
ENDBRANCH  18  19
ENDBRANCH  15  18
ENDBRANCH  11  12
ENDBRANCH  10  11
ENDBRANCH   7  10
ENDBRANCH   6   7
ENDBRANCH   4   6
ENDBRANCH   2   4
TORSDOF 8
ENDMDL
MODEL      170
REMARK 921   NORMALIZED FREE ENERGY PREDICTED BY IDOCK:   -3.57 KCAL/MOL
REMARK 922        TOTAL FREE ENERGY PREDICTED BY IDOCK:   -5.81 KCAL/MOL
REMARK 923 INTER-LIGAND FREE ENERGY PREDICTED BY IDOCK:   -5.14 KCAL/MOL
REMARK 924 INTRA-LIGAND FREE ENERGY PREDICTED BY IDOCK:   -0.68 KCAL/MOL
REMARK 927      BINDING AFFINITY PREDICTED BY RF-SCORE:    0.00 PKD
ROOT
HETATM    1  C   UNL     1      -8.009  12.106  68.493  1.00  0.00    -0.119 C  
HETATM    2  C   UNL     1      -8.009  10.991  67.446  1.00  0.00    -0.119 C  
HETATM    3  C   UNL     1      -6.577  10.741  66.966  1.00  0.00    -0.085 C  
ENDROOT
BRANCH   2   4
HETATM    4  N   UNL     1      -8.600   9.793  68.048  1.00  0.00    -0.122 NA 
HETATM    5  H   UNL     1      -8.099   8.955  67.753  1.00  0.00     0.000 HD 
BRANCH   4   6
HETATM    6  C   UNL     1      -8.689   9.858  69.513  1.00  0.00    -0.190 C  
BRANCH   6   7
HETATM    7  C   UNL     1      -9.954   9.130  70.006  1.00  0.00    -0.199 C  
HETATM    8  H   UNL     1     -10.365   7.527  71.078  1.00  0.00     0.000 HD 
HETATM    9  O   UNL     1      -9.584   7.976  70.774  1.00  0.00    -0.161 OA 
BRANCH   7  10
HETATM   10  C   UNL     1     -10.831  10.061  70.854  1.00  0.00    -0.206 C  
BRANCH  10  11
HETATM   11  O   UNL     1     -12.001  10.426  70.107  1.00  0.00    -0.270 OA 
BRANCH  11  12
HETATM   12  C   UNL     1     -11.900  11.551  69.329  1.00  0.00    -0.348 A  
HETATM   13  C   UNL     1     -11.860  11.575  67.936  1.00  0.00    -0.255 A  
HETATM   14  C   UNL     1     -11.701  12.787  67.253  1.00  0.00    -0.440 A  
HETATM   15  C   UNL     1     -11.575  13.993  67.953  1.00  0.00    -0.377 A  
HETATM   16  C   UNL     1     -11.663  13.970  69.351  1.00  0.00    -0.365 A  
HETATM   17  C   UNL     1     -11.818  12.756  70.031  1.00  0.00    -0.352 A  
BRANCH  15  18
HETATM   18  C   UNL     1     -11.284  15.277  67.210  1.00  0.00    -0.306 C  
BRANCH  18  19
HETATM   19  C   UNL     1     -10.075  15.321  66.296  1.00  0.00    -0.281 C  
HETATM   20  N   UNL     1      -9.111  14.371  66.432  1.00  0.00    -0.462 N  
HETATM   21  O   UNL     1      -9.951  16.189  65.436  1.00  0.00    -0.482 OA 
HETATM   22  H2  UNL     1      -9.200  13.641  67.139  1.00  0.00     0.000 HD 
HETATM   23  H1  UNL     1      -8.298  14.400  65.817  1.00  0.00     0.000 HD 
ENDBRANCH  18  19
ENDBRANCH  15  18
ENDBRANCH  11  12
ENDBRANCH  10  11
ENDBRANCH   7  10
ENDBRANCH   6   7
ENDBRANCH   4   6
ENDBRANCH   2   4
TORSDOF 8
ENDMDL
MODEL      171
REMARK 921   NORMALIZED FREE ENERGY PREDICTED BY IDOCK:   -3.56 KCAL/MOL
REMARK 922        TOTAL FREE ENERGY PREDICTED BY IDOCK:   -5.80 KCAL/MOL
REMARK 923 INTER-LIGAND FREE ENERGY PREDICTED BY IDOCK:   -5.24 KCAL/MOL
REMARK 924 INTRA-LIGAND FREE ENERGY PREDICTED BY IDOCK:   -0.56 KCAL/MOL
REMARK 927      BINDING AFFINITY PREDICTED BY RF-SCORE:    0.00 PKD
ROOT
HETATM    1  C   UNL     1      -7.200   9.892  67.813  1.00  0.00    -0.088 C  
HETATM    2  C   UNL     1      -7.638   9.611  66.374  1.00  0.00    -0.101 C  
HETATM    3  C   UNL     1      -6.781   8.485  65.789  1.00  0.00    -0.063 C  
ENDROOT
BRANCH   2   4
HETATM    4  N   UNL     1      -9.062   9.265  66.385  1.00  0.00    -0.151 NA 
HETATM    5  H   UNL     1      -9.253   8.541  67.078  1.00  0.00     0.000 HD 
BRANCH   4   6
HETATM    6  C   UNL     1      -9.944  10.423  66.585  1.00  0.00    -0.210 C  
BRANCH   6   7
HETATM    7  C   UNL     1      -9.522  11.584  65.664  1.00  0.00    -0.222 C  
HETATM    8  H   UNL     1     -10.118  12.344  63.945  1.00  0.00     0.000 HD 
HETATM    9  O   UNL     1     -10.379  11.628  64.513  1.00  0.00    -0.264 OA 
BRANCH   7  10
HETATM   10  C   UNL     1      -9.575  12.925  66.406  1.00  0.00    -0.252 C  
BRANCH  10  11
HETATM   11  O   UNL     1      -9.592  12.687  67.821  1.00  0.00    -0.185 OA 
BRANCH  11  12
HETATM   12  C   UNL     1     -10.437  13.474  68.561  1.00  0.00    -0.244 A  
HETATM   13  C   UNL     1     -10.311  14.849  68.751  1.00  0.00    -0.245 A  
HETATM   14  C   UNL     1     -11.210  15.535  69.575  1.00  0.00    -0.300 A  
HETATM   15  C   UNL     1     -12.246  14.857  70.227  1.00  0.00    -0.389 A  
HETATM   16  C   UNL     1     -12.398  13.483  69.997  1.00  0.00    -0.315 A  
HETATM   17  C   UNL     1     -11.495  12.799  69.176  1.00  0.00    -0.361 A  
BRANCH  15  18
HETATM   18  C   UNL     1     -13.136  15.587  71.207  1.00  0.00    -0.581 C  
BRANCH  18  19
HETATM   19  C   UNL     1     -12.683  15.691  72.651  1.00  0.00    -0.437 C  
HETATM   20  N   UNL     1     -11.689  16.564  72.967  1.00  0.00    -0.329 N  
HETATM   21  O   UNL     1     -13.194  15.009  73.536  1.00  0.00    -0.502 OA 
HETATM   22  H2  UNL     1     -11.256  17.140  72.245  1.00  0.00     0.000 HD 
HETATM   23  H1  UNL     1     -11.384  16.634  73.938  1.00  0.00     0.000 HD 
ENDBRANCH  18  19
ENDBRANCH  15  18
ENDBRANCH  11  12
ENDBRANCH  10  11
ENDBRANCH   7  10
ENDBRANCH   6   7
ENDBRANCH   4   6
ENDBRANCH   2   4
TORSDOF 8
ENDMDL
MODEL      172
REMARK 921   NORMALIZED FREE ENERGY PREDICTED BY IDOCK:   -3.55 KCAL/MOL
REMARK 922        TOTAL FREE ENERGY PREDICTED BY IDOCK:   -5.79 KCAL/MOL
REMARK 923 INTER-LIGAND FREE ENERGY PREDICTED BY IDOCK:   -5.28 KCAL/MOL
REMARK 924 INTRA-LIGAND FREE ENERGY PREDICTED BY IDOCK:   -0.51 KCAL/MOL
REMARK 927      BINDING AFFINITY PREDICTED BY RF-SCORE:    0.00 PKD
ROOT
HETATM    1  C   UNL     1      -7.031   9.618  66.152  1.00  0.00    -0.093 C  
HETATM    2  C   UNL     1      -7.712  10.402  67.275  1.00  0.00    -0.099 C  
HETATM    3  C   UNL     1      -7.434  11.897  67.098  1.00  0.00    -0.146 C  
ENDROOT
BRANCH   2   4
HETATM    4  N   UNL     1      -9.147  10.105  67.239  1.00  0.00    -0.138 NA 
HETATM    5  H   UNL     1      -9.310   9.100  67.311  1.00  0.00     0.000 HD 
BRANCH   4   6
HETATM    6  C   UNL     1      -9.921  10.831  68.256  1.00  0.00    -0.168 C  
BRANCH   6   7
HETATM    7  C   UNL     1     -11.369  11.045  67.775  1.00  0.00    -0.292 C  
HETATM    8  H   UNL     1     -13.169  11.015  68.580  1.00  0.00     0.000 HD 
HETATM    9  O   UNL     1     -12.275  10.883  68.876  1.00  0.00    -0.494 OA 
BRANCH   7  10
HETATM   10  C   UNL     1     -11.545  12.437  67.154  1.00  0.00    -0.365 C  
BRANCH  10  11
HETATM   11  O   UNL     1     -11.872  13.381  68.184  1.00  0.00    -0.339 OA 
BRANCH  11  12
HETATM   12  C   UNL     1     -11.391  14.654  68.018  1.00  0.00    -0.311 A  
HETATM   13  C   UNL     1     -10.929  15.200  66.821  1.00  0.00    -0.321 A  
HETATM   14  C   UNL     1     -10.410  16.499  66.789  1.00  0.00    -0.296 A  
HETATM   15  C   UNL     1     -10.339  17.272  67.954  1.00  0.00    -0.360 A  
HETATM   16  C   UNL     1     -10.846  16.737  69.145  1.00  0.00    -0.287 A  
HETATM   17  C   UNL     1     -11.361  15.436  69.175  1.00  0.00    -0.323 A  
BRANCH  15  18
HETATM   18  C   UNL     1      -9.667  18.626  67.930  1.00  0.00    -0.350 C  
BRANCH  18  19
HETATM   19  C   UNL     1      -8.242  18.731  68.438  1.00  0.00    -0.341 C  
HETATM   20  N   UNL     1      -7.349  17.763  68.099  1.00  0.00    -0.230 N  
HETATM   21  O   UNL     1      -7.879  19.669  69.143  1.00  0.00    -0.328 OA 
HETATM   22  H2  UNL     1      -7.633  16.979  67.512  1.00  0.00     0.000 HD 
HETATM   23  H1  UNL     1      -6.390  17.834  68.442  1.00  0.00     0.000 HD 
ENDBRANCH  18  19
ENDBRANCH  15  18
ENDBRANCH  11  12
ENDBRANCH  10  11
ENDBRANCH   7  10
ENDBRANCH   6   7
ENDBRANCH   4   6
ENDBRANCH   2   4
TORSDOF 8
ENDMDL
MODEL      173
REMARK 921   NORMALIZED FREE ENERGY PREDICTED BY IDOCK:   -3.55 KCAL/MOL
REMARK 922        TOTAL FREE ENERGY PREDICTED BY IDOCK:   -5.78 KCAL/MOL
REMARK 923 INTER-LIGAND FREE ENERGY PREDICTED BY IDOCK:   -4.87 KCAL/MOL
REMARK 924 INTRA-LIGAND FREE ENERGY PREDICTED BY IDOCK:   -0.91 KCAL/MOL
REMARK 927      BINDING AFFINITY PREDICTED BY RF-SCORE:    0.00 PKD
ROOT
HETATM    1  C   UNL     1      -8.610   5.602  65.929  1.00  0.00    -0.144 C  
HETATM    2  C   UNL     1      -9.692   4.555  65.657  1.00  0.00    -0.199 C  
HETATM    3  C   UNL     1      -9.132   3.467  64.738  1.00  0.00    -0.135 C  
ENDROOT
BRANCH   2   4
HETATM    4  N   UNL     1     -10.137   4.009  66.942  1.00  0.00    -0.283 NA 
HETATM    5  H   UNL     1     -11.130   3.776  66.912  1.00  0.00     0.000 HD 
BRANCH   4   6
HETATM    6  C   UNL     1      -9.346   2.855  67.393  1.00  0.00    -0.161 C  
BRANCH   6   7
HETATM    7  C   UNL     1      -8.775   3.113  68.800  1.00  0.00    -0.098 C  
HETATM    8  H   UNL     1      -7.090   3.795  69.564  1.00  0.00     0.000 HD 
HETATM    9  O   UNL     1      -7.443   3.635  68.696  1.00  0.00    -0.053 OA 
BRANCH   7  10
HETATM   10  C   UNL     1      -9.660   4.092  69.584  1.00  0.00    -0.200 C  
BRANCH  10  11
HETATM   11  O   UNL     1      -9.132   5.420  69.455  1.00  0.00    -0.110 OA 
BRANCH  11  12
HETATM   12  C   UNL     1      -9.871   6.426  70.023  1.00  0.00    -0.168 A  
HETATM   13  C   UNL     1      -9.388   7.679  70.396  1.00  0.00    -0.160 A  
HETATM   14  C   UNL     1     -10.231   8.606  71.018  1.00  0.00    -0.278 A  
HETATM   15  C   UNL     1     -11.570   8.294  71.282  1.00  0.00    -0.318 A  
HETATM   16  C   UNL     1     -12.064   7.052  70.862  1.00  0.00    -0.403 A  
HETATM   17  C   UNL     1     -11.217   6.125  70.244  1.00  0.00    -0.439 A  
BRANCH  15  18
HETATM   18  C   UNL     1     -12.438   9.257  72.060  1.00  0.00    -0.451 C  
BRANCH  18  19
HETATM   19  C   UNL     1     -12.851  10.554  71.393  1.00  0.00    -0.447 C  
HETATM   20  N   UNL     1     -13.230  11.603  72.171  1.00  0.00    -0.545 N  
HETATM   21  O   UNL     1     -12.847  10.677  70.170  1.00  0.00    -0.276 OA 
HETATM   22  H2  UNL     1     -13.236  11.519  73.187  1.00  0.00     0.000 HD 
HETATM   23  H1  UNL     1     -13.508  12.476  71.721  1.00  0.00     0.000 HD 
ENDBRANCH  18  19
ENDBRANCH  15  18
ENDBRANCH  11  12
ENDBRANCH  10  11
ENDBRANCH   7  10
ENDBRANCH   6   7
ENDBRANCH   4   6
ENDBRANCH   2   4
TORSDOF 8
ENDMDL
MODEL      174
REMARK 921   NORMALIZED FREE ENERGY PREDICTED BY IDOCK:   -3.54 KCAL/MOL
REMARK 922        TOTAL FREE ENERGY PREDICTED BY IDOCK:   -5.77 KCAL/MOL
REMARK 923 INTER-LIGAND FREE ENERGY PREDICTED BY IDOCK:   -5.32 KCAL/MOL
REMARK 924 INTRA-LIGAND FREE ENERGY PREDICTED BY IDOCK:   -0.45 KCAL/MOL
REMARK 927      BINDING AFFINITY PREDICTED BY RF-SCORE:    0.00 PKD
ROOT
HETATM    1  C   UNL     1      -8.616   6.729  65.777  1.00  0.00    -0.144 C  
HETATM    2  C   UNL     1      -7.542   7.725  66.216  1.00  0.00    -0.087 C  
HETATM    3  C   UNL     1      -6.312   7.580  65.316  1.00  0.00    -0.038 C  
ENDROOT
BRANCH   2   4
HETATM    4  N   UNL     1      -8.110   9.074  66.151  1.00  0.00    -0.109 NA 
HETATM    5  H   UNL     1      -7.374   9.772  66.043  1.00  0.00     0.000 HD 
BRANCH   4   6
HETATM    6  C   UNL     1      -9.131   9.229  65.105  1.00  0.00    -0.206 C  
BRANCH   6   7
HETATM    7  C   UNL     1     -10.276  10.131  65.605  1.00  0.00    -0.218 C  
HETATM    8  H   UNL     1     -10.715  11.114  67.256  1.00  0.00     0.000 HD 
HETATM    9  O   UNL     1     -10.009  10.558  66.948  1.00  0.00    -0.186 OA 
BRANCH   7  10
HETATM   10  C   UNL     1     -10.454  11.353  64.694  1.00  0.00    -0.315 C  
BRANCH  10  11
HETATM   11  O   UNL     1     -11.570  12.130  65.150  1.00  0.00    -0.339 OA 
BRANCH  11  12
HETATM   12  C   UNL     1     -11.290  13.397  65.592  1.00  0.00    -0.298 A  
HETATM   13  C   UNL     1     -10.540  14.351  64.905  1.00  0.00    -0.456 A  
HETATM   14  C   UNL     1     -10.277  15.597  65.486  1.00  0.00    -0.414 A  
HETATM   15  C   UNL     1     -10.755  15.907  66.765  1.00  0.00    -0.281 A  
HETATM   16  C   UNL     1     -11.548  14.965  67.432  1.00  0.00    -0.347 A  
HETATM   17  C   UNL     1     -11.806  13.718  66.851  1.00  0.00    -0.447 A  
BRANCH  15  18
HETATM   18  C   UNL     1     -10.364  17.208  67.429  1.00  0.00    -0.333 C  
BRANCH  18  19
HETATM   19  C   UNL     1      -9.800  18.317  66.562  1.00  0.00    -0.361 C  
HETATM   20  N   UNL     1     -10.659  19.122  65.882  1.00  0.00    -0.471 N  
HETATM   21  O   UNL     1      -8.589  18.504  66.465  1.00  0.00    -0.270 OA 
HETATM   22  H2  UNL     1     -11.667  18.982  65.954  1.00  0.00     0.000 HD 
HETATM   23  H1  UNL     1     -10.279  19.868  65.299  1.00  0.00     0.000 HD 
ENDBRANCH  18  19
ENDBRANCH  15  18
ENDBRANCH  11  12
ENDBRANCH  10  11
ENDBRANCH   7  10
ENDBRANCH   6   7
ENDBRANCH   4   6
ENDBRANCH   2   4
TORSDOF 8
ENDMDL
MODEL      175
REMARK 921   NORMALIZED FREE ENERGY PREDICTED BY IDOCK:   -3.54 KCAL/MOL
REMARK 922        TOTAL FREE ENERGY PREDICTED BY IDOCK:   -5.76 KCAL/MOL
REMARK 923 INTER-LIGAND FREE ENERGY PREDICTED BY IDOCK:   -5.01 KCAL/MOL
REMARK 924 INTRA-LIGAND FREE ENERGY PREDICTED BY IDOCK:   -0.75 KCAL/MOL
REMARK 927      BINDING AFFINITY PREDICTED BY RF-SCORE:    0.00 PKD
ROOT
HETATM    1  C   UNL     1     -10.871   6.113  67.335  1.00  0.00    -0.431 C  
HETATM    2  C   UNL     1     -10.649   7.621  67.203  1.00  0.00    -0.340 C  
HETATM    3  C   UNL     1      -9.889   8.135  68.428  1.00  0.00    -0.186 C  
ENDROOT
BRANCH   2   4
HETATM    4  N   UNL     1      -9.914   7.871  65.959  1.00  0.00    -0.405 NA 
HETATM    5  H   UNL     1     -10.497   8.371  65.289  1.00  0.00     0.000 HD 
BRANCH   4   6
HETATM    6  C   UNL     1      -8.639   8.571  66.165  1.00  0.00    -0.138 C  
BRANCH   6   7
HETATM    7  C   UNL     1      -8.008   8.944  64.810  1.00  0.00    -0.129 C  
HETATM    8  H   UNL     1      -7.955   8.183  62.991  1.00  0.00     0.000 HD 
HETATM    9  O   UNL     1      -8.344   7.953  63.827  1.00  0.00    -0.056 OA 
BRANCH   7  10
HETATM   10  C   UNL     1      -8.483  10.326  64.341  1.00  0.00    -0.179 C  
BRANCH  10  11
HETATM   11  O   UNL     1      -9.607  10.738  65.133  1.00  0.00    -0.210 OA 
BRANCH  11  12
HETATM   12  C   UNL     1      -9.646  12.061  65.491  1.00  0.00    -0.159 A  
HETATM   13  C   UNL     1     -10.327  13.068  64.810  1.00  0.00    -0.356 A  
HETATM   14  C   UNL     1     -10.248  14.396  65.245  1.00  0.00    -0.416 A  
HETATM   15  C   UNL     1      -9.483  14.738  66.367  1.00  0.00    -0.328 A  
HETATM   16  C   UNL     1      -8.839  13.717  67.077  1.00  0.00    -0.233 A  
HETATM   17  C   UNL     1      -8.916  12.390  66.636  1.00  0.00    -0.184 A  
BRANCH  15  18
HETATM   18  C   UNL     1      -9.309  16.189  66.756  1.00  0.00    -0.255 C  
BRANCH  18  19
HETATM   19  C   UNL     1     -10.480  16.907  67.399  1.00  0.00    -0.310 C  
HETATM   20  N   UNL     1     -10.702  18.212  67.089  1.00  0.00    -0.342 N  
HETATM   21  O   UNL     1     -11.230  16.335  68.186  1.00  0.00    -0.350 OA 
HETATM   22  H2  UNL     1     -10.091  18.701  66.435  1.00  0.00     0.000 HD 
HETATM   23  H1  UNL     1     -11.490  18.695  67.522  1.00  0.00     0.000 HD 
ENDBRANCH  18  19
ENDBRANCH  15  18
ENDBRANCH  11  12
ENDBRANCH  10  11
ENDBRANCH   7  10
ENDBRANCH   6   7
ENDBRANCH   4   6
ENDBRANCH   2   4
TORSDOF 8
ENDMDL
MODEL      176
REMARK 921   NORMALIZED FREE ENERGY PREDICTED BY IDOCK:   -3.51 KCAL/MOL
REMARK 922        TOTAL FREE ENERGY PREDICTED BY IDOCK:   -5.72 KCAL/MOL
REMARK 923 INTER-LIGAND FREE ENERGY PREDICTED BY IDOCK:   -4.72 KCAL/MOL
REMARK 924 INTRA-LIGAND FREE ENERGY PREDICTED BY IDOCK:   -1.00 KCAL/MOL
REMARK 927      BINDING AFFINITY PREDICTED BY RF-SCORE:    0.00 PKD
ROOT
HETATM    1  C   UNL     1      -8.456  19.813  66.563  1.00  0.00    -0.380 C  
HETATM    2  C   UNL     1      -8.778  19.471  68.018  1.00  0.00    -0.324 C  
HETATM    3  C   UNL     1     -10.112  18.723  68.085  1.00  0.00    -0.427 C  
ENDROOT
BRANCH   2   4
HETATM    4  N   UNL     1      -7.676  18.670  68.558  1.00  0.00    -0.308 NA 
HETATM    5  H   UNL     1      -7.899  17.675  68.519  1.00  0.00     0.000 HD 
BRANCH   4   6
HETATM    6  C   UNL     1      -6.385  18.939  67.910  1.00  0.00    -0.204 C  
BRANCH   6   7
HETATM    7  C   UNL     1      -5.351  17.868  68.308  1.00  0.00    -0.155 C  
HETATM    8  H   UNL     1      -5.056  16.654  69.833  1.00  0.00     0.000 HD 
HETATM    9  O   UNL     1      -5.693  17.315  69.587  1.00  0.00    -0.198 OA 
BRANCH   7  10
HETATM   10  C   UNL     1      -5.280  16.752  67.258  1.00  0.00    -0.139 C  
BRANCH  10  11
HETATM   11  O   UNL     1      -6.502  16.725  66.507  1.00  0.00    -0.213 OA 
BRANCH  11  12
HETATM   12  C   UNL     1      -7.431  15.793  66.889  1.00  0.00    -0.169 A  
HETATM   13  C   UNL     1      -7.232  14.782  67.828  1.00  0.00    -0.192 A  
HETATM   14  C   UNL     1      -8.244  13.854  68.096  1.00  0.00    -0.158 A  
HETATM   15  C   UNL     1      -9.472  13.918  67.425  1.00  0.00    -0.226 A  
HETATM   16  C   UNL     1      -9.686  14.963  66.518  1.00  0.00    -0.294 A  
HETATM   17  C   UNL     1      -8.670  15.888  66.248  1.00  0.00    -0.372 A  
BRANCH  15  18
HETATM   18  C   UNL     1     -10.511  12.841  67.635  1.00  0.00    -0.224 C  
BRANCH  18  19
HETATM   19  C   UNL     1     -10.037  11.438  67.962  1.00  0.00    -0.180 C  
HETATM   20  N   UNL     1     -10.131  10.993  69.244  1.00  0.00    -0.398 N  
HETATM   21  O   UNL     1      -9.577  10.698  67.096  1.00  0.00    -0.161 OA 
HETATM   22  H2  UNL     1     -10.514  11.594  69.974  1.00  0.00     0.000 HD 
HETATM   23  H1  UNL     1      -9.812  10.049  69.463  1.00  0.00     0.000 HD 
ENDBRANCH  18  19
ENDBRANCH  15  18
ENDBRANCH  11  12
ENDBRANCH  10  11
ENDBRANCH   7  10
ENDBRANCH   6   7
ENDBRANCH   4   6
ENDBRANCH   2   4
TORSDOF 8
ENDMDL
MODEL      177
REMARK 921   NORMALIZED FREE ENERGY PREDICTED BY IDOCK:   -3.49 KCAL/MOL
REMARK 922        TOTAL FREE ENERGY PREDICTED BY IDOCK:   -5.70 KCAL/MOL
REMARK 923 INTER-LIGAND FREE ENERGY PREDICTED BY IDOCK:   -5.03 KCAL/MOL
REMARK 924 INTRA-LIGAND FREE ENERGY PREDICTED BY IDOCK:   -0.67 KCAL/MOL
REMARK 927      BINDING AFFINITY PREDICTED BY RF-SCORE:    0.00 PKD
ROOT
HETATM    1  C   UNL     1     -13.021  10.418  71.471  1.00  0.00    -0.562 C  
HETATM    2  C   UNL     1     -12.993   8.956  71.922  1.00  0.00    -0.382 C  
HETATM    3  C   UNL     1     -14.410   8.508  72.290  1.00  0.00    -0.483 C  
ENDROOT
BRANCH   2   4
HETATM    4  N   UNL     1     -12.429   8.149  70.836  1.00  0.00    -0.502 NA 
HETATM    5  H   UNL     1     -12.107   8.745  70.073  1.00  0.00     0.000 HD 
BRANCH   4   6
HETATM    6  C   UNL     1     -11.360   7.243  71.276  1.00  0.00    -0.264 C  
BRANCH   6   7
HETATM    7  C   UNL     1     -10.275   8.025  72.041  1.00  0.00    -0.226 C  
HETATM    8  H   UNL     1      -8.809   7.601  73.289  1.00  0.00     0.000 HD 
HETATM    9  O   UNL     1      -9.478   7.118  72.817  1.00  0.00    -0.141 OA 
BRANCH   7  10
HETATM   10  C   UNL     1      -9.380   8.814  71.076  1.00  0.00    -0.222 C  
BRANCH  10  11
HETATM   11  O   UNL     1      -9.162   8.041  69.887  1.00  0.00    -0.151 OA 
BRANCH  11  12
HETATM   12  C   UNL     1      -9.252   8.717  68.697  1.00  0.00    -0.138 A  
HETATM   13  C   UNL     1      -9.372  10.098  68.553  1.00  0.00    -0.151 A  
HETATM   14  C   UNL     1      -9.509  10.668  67.282  1.00  0.00    -0.178 A  
HETATM   15  C   UNL     1      -9.533   9.865  66.135  1.00  0.00    -0.254 A  
HETATM   16  C   UNL     1      -9.365   8.482  66.281  1.00  0.00    -0.287 A  
HETATM   17  C   UNL     1      -9.232   7.915  67.553  1.00  0.00    -0.152 A  
BRANCH  15  18
HETATM   18  C   UNL     1      -9.802  10.481  64.781  1.00  0.00    -0.387 C  
BRANCH  18  19
HETATM   19  C   UNL     1      -8.699  10.441  63.741  1.00  0.00    -0.193 C  
HETATM   20  N   UNL     1      -9.035  10.481  62.423  1.00  0.00    -0.246 N  
HETATM   21  O   UNL     1      -7.515  10.377  64.062  1.00  0.00    -0.108 OA 
HETATM   22  H2  UNL     1     -10.013  10.538  62.140  1.00  0.00     0.000 HD 
HETATM   23  H1  UNL     1      -8.292  10.454  61.724  1.00  0.00     0.000 HD 
ENDBRANCH  18  19
ENDBRANCH  15  18
ENDBRANCH  11  12
ENDBRANCH  10  11
ENDBRANCH   7  10
ENDBRANCH   6   7
ENDBRANCH   4   6
ENDBRANCH   2   4
TORSDOF 8
ENDMDL
MODEL      178
REMARK 921   NORMALIZED FREE ENERGY PREDICTED BY IDOCK:   -3.47 KCAL/MOL
REMARK 922        TOTAL FREE ENERGY PREDICTED BY IDOCK:   -5.67 KCAL/MOL
REMARK 923 INTER-LIGAND FREE ENERGY PREDICTED BY IDOCK:   -5.34 KCAL/MOL
REMARK 924 INTRA-LIGAND FREE ENERGY PREDICTED BY IDOCK:   -0.32 KCAL/MOL
REMARK 927      BINDING AFFINITY PREDICTED BY RF-SCORE:    0.00 PKD
ROOT
HETATM    1  C   UNL     1     -11.969   8.216  71.547  1.00  0.00    -0.334 C  
HETATM    2  C   UNL     1     -10.871   9.136  71.011  1.00  0.00    -0.291 C  
HETATM    3  C   UNL     1     -10.145   8.447  69.853  1.00  0.00    -0.195 C  
ENDROOT
BRANCH   2   4
HETATM    4  N   UNL     1     -11.490  10.398  70.594  1.00  0.00    -0.336 NA 
HETATM    5  H   UNL     1     -10.836  11.174  70.702  1.00  0.00     0.000 HD 
BRANCH   4   6
HETATM    6  C   UNL     1     -12.033  10.360  69.230  1.00  0.00    -0.033 C  
BRANCH   6   7
HETATM    7  C   UNL     1     -11.381  11.454  68.363  1.00  0.00    -0.281 C  
HETATM    8  H   UNL     1     -11.120  11.797  66.439  1.00  0.00     0.000 HD 
HETATM    9  O   UNL     1     -11.523  11.122  66.974  1.00  0.00    -0.442 OA 
BRANCH   7  10
HETATM   10  C   UNL     1     -12.010  12.826  68.639  1.00  0.00    -0.233 C  
BRANCH  10  11
HETATM   11  O   UNL     1     -12.187  13.528  67.400  1.00  0.00    -0.339 OA 
BRANCH  11  12
HETATM   12  C   UNL     1     -11.267  14.504  67.117  1.00  0.00    -0.333 A  
HETATM   13  C   UNL     1     -10.507  14.593  65.952  1.00  0.00    -0.325 A  
HETATM   14  C   UNL     1      -9.559  15.611  65.801  1.00  0.00    -0.361 A  
HETATM   15  C   UNL     1      -9.351  16.553  66.816  1.00  0.00    -0.262 A  
HETATM   16  C   UNL     1     -10.149  16.489  67.964  1.00  0.00    -0.255 A  
HETATM   17  C   UNL     1     -11.094  15.468  68.115  1.00  0.00    -0.325 A  
BRANCH  15  18
HETATM   18  C   UNL     1      -8.242  17.573  66.691  1.00  0.00    -0.288 C  
BRANCH  18  19
HETATM   19  C   UNL     1      -6.809  17.077  66.654  1.00  0.00    -0.244 C  
HETATM   20  N   UNL     1      -5.823  17.939  66.284  1.00  0.00    -0.172 N  
HETATM   21  O   UNL     1      -6.522  15.921  66.953  1.00  0.00    -0.294 OA 
HETATM   22  H2  UNL     1      -6.045  18.903  66.036  1.00  0.00     0.000 HD 
HETATM   23  H1  UNL     1      -4.860  17.605  66.259  1.00  0.00     0.000 HD 
ENDBRANCH  18  19
ENDBRANCH  15  18
ENDBRANCH  11  12
ENDBRANCH  10  11
ENDBRANCH   7  10
ENDBRANCH   6   7
ENDBRANCH   4   6
ENDBRANCH   2   4
TORSDOF 8
ENDMDL
MODEL      179
REMARK 921   NORMALIZED FREE ENERGY PREDICTED BY IDOCK:   -3.47 KCAL/MOL
REMARK 922        TOTAL FREE ENERGY PREDICTED BY IDOCK:   -5.66 KCAL/MOL
REMARK 923 INTER-LIGAND FREE ENERGY PREDICTED BY IDOCK:   -4.82 KCAL/MOL
REMARK 924 INTRA-LIGAND FREE ENERGY PREDICTED BY IDOCK:   -0.84 KCAL/MOL
REMARK 927      BINDING AFFINITY PREDICTED BY RF-SCORE:    0.00 PKD
ROOT
HETATM    1  C   UNL     1      -7.963   6.845  65.926  1.00  0.00    -0.112 C  
HETATM    2  C   UNL     1      -9.305   6.116  66.006  1.00  0.00    -0.057 C  
HETATM    3  C   UNL     1      -9.069   4.604  65.963  1.00  0.00    -0.131 C  
ENDROOT
BRANCH   2   4
HETATM    4  N   UNL     1      -9.981   6.528  67.240  1.00  0.00    -0.136 NA 
HETATM    5  H   UNL     1     -10.994   6.475  67.133  1.00  0.00     0.000 HD 
BRANCH   4   6
HETATM    6  C   UNL     1      -9.543   5.778  68.425  1.00  0.00    -0.125 C  
BRANCH   6   7
HETATM    7  C   UNL     1      -8.799   6.707  69.404  1.00  0.00    -0.134 C  
HETATM    8  H   UNL     1      -6.945   6.944  70.031  1.00  0.00     0.000 HD 
HETATM    9  O   UNL     1      -7.404   6.371  69.428  1.00  0.00    -0.086 OA 
BRANCH   7  10
HETATM   10  C   UNL     1      -8.975   8.179  69.008  1.00  0.00    -0.144 C  
BRANCH  10  11
HETATM   11  O   UNL     1     -10.296   8.614  69.363  1.00  0.00    -0.210 OA 
BRANCH  11  12
HETATM   12  C   UNL     1     -10.724   9.786  68.794  1.00  0.00    -0.215 A  
HETATM   13  C   UNL     1     -11.743  10.602  69.282  1.00  0.00    -0.336 A  
HETATM   14  C   UNL     1     -12.127  11.750  68.580  1.00  0.00    -0.164 A  
HETATM   15  C   UNL     1     -11.502  12.098  67.377  1.00  0.00    -0.415 A  
HETATM   16  C   UNL     1     -10.447  11.302  66.915  1.00  0.00    -0.286 A  
HETATM   17  C   UNL     1     -10.067  10.151  67.616  1.00  0.00    -0.231 A  
BRANCH  15  18
HETATM   18  C   UNL     1     -12.006  13.273  66.569  1.00  0.00    -0.448 C  
BRANCH  18  19
HETATM   19  C   UNL     1     -11.895  13.206  65.058  1.00  0.00    -0.354 C  
HETATM   20  N   UNL     1     -10.883  13.876  64.442  1.00  0.00    -0.584 N  
HETATM   21  O   UNL     1     -12.693  12.561  64.383  1.00  0.00    -0.656 OA 
HETATM   22  H2  UNL     1     -10.210  14.414  64.989  1.00  0.00     0.000 HD 
HETATM   23  H1  UNL     1     -10.809  13.831  63.426  1.00  0.00     0.000 HD 
ENDBRANCH  18  19
ENDBRANCH  15  18
ENDBRANCH  11  12
ENDBRANCH  10  11
ENDBRANCH   7  10
ENDBRANCH   6   7
ENDBRANCH   4   6
ENDBRANCH   2   4
TORSDOF 8
ENDMDL
MODEL      180
REMARK 921   NORMALIZED FREE ENERGY PREDICTED BY IDOCK:   -3.47 KCAL/MOL
REMARK 922        TOTAL FREE ENERGY PREDICTED BY IDOCK:   -5.66 KCAL/MOL
REMARK 923 INTER-LIGAND FREE ENERGY PREDICTED BY IDOCK:   -5.26 KCAL/MOL
REMARK 924 INTRA-LIGAND FREE ENERGY PREDICTED BY IDOCK:   -0.40 KCAL/MOL
REMARK 927      BINDING AFFINITY PREDICTED BY RF-SCORE:    0.00 PKD
ROOT
HETATM    1  C   UNL     1     -10.585  16.396  68.177  1.00  0.00    -0.318 C  
HETATM    2  C   UNL     1     -11.333  15.212  68.790  1.00  0.00    -0.300 C  
HETATM    3  C   UNL     1     -12.130  15.686  70.009  1.00  0.00    -0.379 C  
ENDROOT
BRANCH   2   4
HETATM    4  N   UNL     1     -12.202  14.632  67.762  1.00  0.00    -0.596 NA 
HETATM    5  H   UNL     1     -11.995  15.032  66.846  1.00  0.00     0.000 HD 
BRANCH   4   6
HETATM    6  C   UNL     1     -12.151  13.165  67.712  1.00  0.00    -0.215 C  
BRANCH   6   7
HETATM    7  C   UNL     1     -10.705  12.686  67.482  1.00  0.00    -0.225 C  
HETATM    8  H   UNL     1      -9.270  11.877  68.565  1.00  0.00     0.000 HD 
HETATM    9  O   UNL     1     -10.162  12.172  68.707  1.00  0.00    -0.201 OA 
BRANCH   7  10
HETATM   10  C   UNL     1     -10.647  11.608  66.392  1.00  0.00    -0.258 C  
BRANCH  10  11
HETATM   11  O   UNL     1      -9.478  10.798  66.584  1.00  0.00    -0.170 OA 
BRANCH  11  12
HETATM   12  C   UNL     1      -9.676   9.442  66.619  1.00  0.00    -0.219 A  
HETATM   13  C   UNL     1     -10.638   8.780  67.380  1.00  0.00    -0.304 A  
HETATM   14  C   UNL     1     -10.708   7.382  67.373  1.00  0.00    -0.348 A  
HETATM   15  C   UNL     1      -9.813   6.624  66.609  1.00  0.00    -0.208 A  
HETATM   16  C   UNL     1      -8.879   7.294  65.809  1.00  0.00    -0.095 A  
HETATM   17  C   UNL     1      -8.808   8.692  65.821  1.00  0.00    -0.231 A  
BRANCH  15  18
HETATM   18  C   UNL     1      -9.821   5.115  66.703  1.00  0.00    -0.208 C  
BRANCH  18  19
HETATM   19  C   UNL     1     -10.170   4.318  65.461  1.00  0.00    -0.207 C  
HETATM   20  N   UNL     1     -11.471   4.242  65.072  1.00  0.00    -0.639 N  
HETATM   21  O   UNL     1      -9.306   3.748  64.799  1.00  0.00    -0.136 OA 
HETATM   22  H2  UNL     1     -12.201   4.712  65.608  1.00  0.00     0.000 HD 
HETATM   23  H1  UNL     1     -11.706   3.706  64.236  1.00  0.00     0.000 HD 
ENDBRANCH  18  19
ENDBRANCH  15  18
ENDBRANCH  11  12
ENDBRANCH  10  11
ENDBRANCH   7  10
ENDBRANCH   6   7
ENDBRANCH   4   6
ENDBRANCH   2   4
TORSDOF 8
ENDMDL
MODEL      181
REMARK 921   NORMALIZED FREE ENERGY PREDICTED BY IDOCK:   -3.45 KCAL/MOL
REMARK 922        TOTAL FREE ENERGY PREDICTED BY IDOCK:   -5.63 KCAL/MOL
REMARK 923 INTER-LIGAND FREE ENERGY PREDICTED BY IDOCK:   -5.02 KCAL/MOL
REMARK 924 INTRA-LIGAND FREE ENERGY PREDICTED BY IDOCK:   -0.61 KCAL/MOL
REMARK 927      BINDING AFFINITY PREDICTED BY RF-SCORE:    0.00 PKD
ROOT
HETATM    1  C   UNL     1      -7.419   9.777  66.546  1.00  0.00    -0.095 C  
HETATM    2  C   UNL     1      -7.767  10.806  67.623  1.00  0.00    -0.104 C  
HETATM    3  C   UNL     1      -7.060  12.128  67.316  1.00  0.00    -0.144 C  
ENDROOT
BRANCH   2   4
HETATM    4  N   UNL     1      -9.224  10.961  67.659  1.00  0.00    -0.151 NA 
HETATM    5  H   UNL     1      -9.654  10.219  68.212  1.00  0.00     0.000 HD 
BRANCH   4   6
HETATM    6  C   UNL     1      -9.661  12.282  68.132  1.00  0.00    -0.213 C  
BRANCH   6   7
HETATM    7  C   UNL     1     -11.037  12.636  67.536  1.00  0.00    -0.272 C  
HETATM    8  H   UNL     1     -12.710  13.459  68.176  1.00  0.00     0.000 HD 
HETATM    9  O   UNL     1     -11.862  13.240  68.543  1.00  0.00    -0.323 OA 
BRANCH   7  10
HETATM   10  C   UNL     1     -10.893  13.586  66.340  1.00  0.00    -0.290 C  
BRANCH  10  11
HETATM   11  O   UNL     1     -11.221  14.922  66.749  1.00  0.00    -0.335 OA 
BRANCH  11  12
HETATM   12  C   UNL     1     -10.221  15.854  66.644  1.00  0.00    -0.288 A  
HETATM   13  C   UNL     1      -8.866  15.577  66.464  1.00  0.00    -0.348 A  
HETATM   14  C   UNL     1      -7.931  16.617  66.424  1.00  0.00    -0.360 A  
HETATM   15  C   UNL     1      -8.334  17.950  66.569  1.00  0.00    -0.290 A  
HETATM   16  C   UNL     1      -9.700  18.227  66.701  1.00  0.00    -0.339 A  
HETATM   17  C   UNL     1     -10.633  17.185  66.745  1.00  0.00    -0.192 A  
BRANCH  15  18
HETATM   18  C   UNL     1      -7.302  19.053  66.644  1.00  0.00    -0.235 C  
BRANCH  18  19
HETATM   19  C   UNL     1      -7.449  20.102  67.730  1.00  0.00    -0.292 C  
HETATM   20  N   UNL     1      -7.595  19.697  69.020  1.00  0.00    -0.333 N  
HETATM   21  O   UNL     1      -7.433  21.302  67.470  1.00  0.00    -0.420 OA 
HETATM   22  H2  UNL     1      -7.607  18.704  69.253  1.00  0.00     0.000 HD 
HETATM   23  H1  UNL     1      -7.694  20.402  69.751  1.00  0.00     0.000 HD 
ENDBRANCH  18  19
ENDBRANCH  15  18
ENDBRANCH  11  12
ENDBRANCH  10  11
ENDBRANCH   7  10
ENDBRANCH   6   7
ENDBRANCH   4   6
ENDBRANCH   2   4
TORSDOF 8
ENDMDL
MODEL      182
REMARK 921   NORMALIZED FREE ENERGY PREDICTED BY IDOCK:   -3.44 KCAL/MOL
REMARK 922        TOTAL FREE ENERGY PREDICTED BY IDOCK:   -5.62 KCAL/MOL
REMARK 923 INTER-LIGAND FREE ENERGY PREDICTED BY IDOCK:   -5.19 KCAL/MOL
REMARK 924 INTRA-LIGAND FREE ENERGY PREDICTED BY IDOCK:   -0.43 KCAL/MOL
REMARK 927      BINDING AFFINITY PREDICTED BY RF-SCORE:    0.00 PKD
ROOT
HETATM    1  C   UNL     1     -11.367  16.754  68.417  1.00  0.00    -0.068 C  
HETATM    2  C   UNL     1     -11.359  15.677  69.504  1.00  0.00    -0.327 C  
HETATM    3  C   UNL     1     -11.695  16.312  70.856  1.00  0.00    -0.270 C  
ENDROOT
BRANCH   2   4
HETATM    4  N   UNL     1     -12.327  14.640  69.132  1.00  0.00    -0.573 NA 
HETATM    5  H   UNL     1     -12.326  14.490  68.123  1.00  0.00     0.000 HD 
BRANCH   4   6
HETATM    6  C   UNL     1     -12.129  13.372  69.847  1.00  0.00    -0.322 C  
BRANCH   6   7
HETATM    7  C   UNL     1     -11.687  12.268  68.867  1.00  0.00    -0.328 C  
HETATM    8  H   UNL     1      -9.987  11.619  68.106  1.00  0.00     0.000 HD 
HETATM    9  O   UNL     1     -10.260  12.300  68.711  1.00  0.00    -0.195 OA 
BRANCH   7  10
HETATM   10  C   UNL     1     -12.128  10.884  69.359  1.00  0.00    -0.290 C  
BRANCH  10  11
HETATM   11  O   UNL     1     -11.030   9.966  69.249  1.00  0.00    -0.224 OA 
BRANCH  11  12
HETATM   12  C   UNL     1     -11.037   8.903  70.114  1.00  0.00    -0.201 A  
HETATM   13  C   UNL     1     -10.817   7.570  69.767  1.00  0.00    -0.234 A  
HETATM   14  C   UNL     1     -10.903   6.563  70.735  1.00  0.00    -0.311 A  
HETATM   15  C   UNL     1     -11.215   6.871  72.065  1.00  0.00    -0.292 A  
HETATM   16  C   UNL     1     -11.389   8.215  72.419  1.00  0.00    -0.456 A  
HETATM   17  C   UNL     1     -11.307   9.220  71.448  1.00  0.00    -0.434 A  
BRANCH  15  18
HETATM   18  C   UNL     1     -11.423   5.765  73.074  1.00  0.00    -0.199 C  
BRANCH  18  19
HETATM   19  C   UNL     1     -10.249   4.865  73.407  1.00  0.00    -0.173 C  
HETATM   20  N   UNL     1     -10.439   3.519  73.435  1.00  0.00    -0.164 N  
HETATM   21  O   UNL     1      -9.135   5.325  73.646  1.00  0.00    -0.124 OA 
HETATM   22  H2  UNL     1     -11.356   3.120  73.236  1.00  0.00     0.000 HD 
HETATM   23  H1  UNL     1      -9.648   2.913  73.659  1.00  0.00     0.000 HD 
ENDBRANCH  18  19
ENDBRANCH  15  18
ENDBRANCH  11  12
ENDBRANCH  10  11
ENDBRANCH   7  10
ENDBRANCH   6   7
ENDBRANCH   4   6
ENDBRANCH   2   4
TORSDOF 8
ENDMDL
MODEL      183
REMARK 921   NORMALIZED FREE ENERGY PREDICTED BY IDOCK:   -3.44 KCAL/MOL
REMARK 922        TOTAL FREE ENERGY PREDICTED BY IDOCK:   -5.62 KCAL/MOL
REMARK 923 INTER-LIGAND FREE ENERGY PREDICTED BY IDOCK:   -5.07 KCAL/MOL
REMARK 924 INTRA-LIGAND FREE ENERGY PREDICTED BY IDOCK:   -0.55 KCAL/MOL
REMARK 927      BINDING AFFINITY PREDICTED BY RF-SCORE:    0.00 PKD
ROOT
HETATM    1  C   UNL     1      -7.431  11.663  68.634  1.00  0.00    -0.117 C  
HETATM    2  C   UNL     1      -7.905  10.905  67.394  1.00  0.00    -0.113 C  
HETATM    3  C   UNL     1      -7.428   9.452  67.469  1.00  0.00    -0.091 C  
ENDROOT
BRANCH   2   4
HETATM    4  N   UNL     1      -9.367  10.997  67.327  1.00  0.00    -0.156 NA 
HETATM    5  H   UNL     1      -9.783  10.799  68.238  1.00  0.00     0.000 HD 
BRANCH   4   6
HETATM    6  C   UNL     1      -9.849  12.281  66.802  1.00  0.00    -0.209 C  
BRANCH   6   7
HETATM    7  C   UNL     1     -11.018  12.805  67.658  1.00  0.00    -0.244 C  
HETATM    8  H   UNL     1     -12.974  12.568  67.718  1.00  0.00     0.000 HD 
HETATM    9  O   UNL     1     -12.253  12.245  67.190  1.00  0.00    -0.506 OA 
BRANCH   7  10
HETATM   10  C   UNL     1     -10.816  12.459  69.139  1.00  0.00    -0.097 C  
BRANCH  10  11
HETATM   11  O   UNL     1     -12.081  12.120  69.727  1.00  0.00    -0.290 OA 
BRANCH  11  12
HETATM   12  C   UNL     1     -12.146  10.914  70.375  1.00  0.00    -0.363 A  
HETATM   13  C   UNL     1     -12.951  10.625  71.476  1.00  0.00    -0.566 A  
HETATM   14  C   UNL     1     -12.891   9.367  72.087  1.00  0.00    -0.480 A  
HETATM   15  C   UNL     1     -12.020   8.380  71.610  1.00  0.00    -0.357 A  
HETATM   16  C   UNL     1     -11.248   8.658  70.475  1.00  0.00    -0.266 A  
HETATM   17  C   UNL     1     -11.307   9.918  69.869  1.00  0.00    -0.273 A  
BRANCH  15  18
HETATM   18  C   UNL     1     -11.877   7.069  72.350  1.00  0.00    -0.215 C  
BRANCH  18  19
HETATM   19  C   UNL     1     -10.603   6.822  73.136  1.00  0.00    -0.287 C  
HETATM   20  N   UNL     1      -9.873   7.889  73.557  1.00  0.00    -0.256 N  
HETATM   21  O   UNL     1     -10.222   5.685  73.400  1.00  0.00    -0.182 OA 
HETATM   22  H2  UNL     1     -10.177   8.840  73.349  1.00  0.00     0.000 HD 
HETATM   23  H1  UNL     1      -9.016   7.723  74.086  1.00  0.00     0.000 HD 
ENDBRANCH  18  19
ENDBRANCH  15  18
ENDBRANCH  11  12
ENDBRANCH  10  11
ENDBRANCH   7  10
ENDBRANCH   6   7
ENDBRANCH   4   6
ENDBRANCH   2   4
TORSDOF 8
ENDMDL
MODEL      184
REMARK 921   NORMALIZED FREE ENERGY PREDICTED BY IDOCK:   -3.42 KCAL/MOL
REMARK 922        TOTAL FREE ENERGY PREDICTED BY IDOCK:   -5.59 KCAL/MOL
REMARK 923 INTER-LIGAND FREE ENERGY PREDICTED BY IDOCK:   -5.03 KCAL/MOL
REMARK 924 INTRA-LIGAND FREE ENERGY PREDICTED BY IDOCK:   -0.56 KCAL/MOL
REMARK 927      BINDING AFFINITY PREDICTED BY RF-SCORE:    0.00 PKD
ROOT
HETATM    1  C   UNL     1      -6.841  20.248  66.037  1.00  0.00    -0.281 C  
HETATM    2  C   UNL     1      -8.124  20.401  66.855  1.00  0.00    -0.265 C  
HETATM    3  C   UNL     1      -9.299  19.794  66.083  1.00  0.00    -0.439 C  
ENDROOT
BRANCH   2   4
HETATM    4  N   UNL     1      -7.925  19.745  68.151  1.00  0.00    -0.311 NA 
HETATM    5  H   UNL     1      -8.801  19.701  68.672  1.00  0.00     0.000 HD 
BRANCH   4   6
HETATM    6  C   UNL     1      -7.315  18.412  68.044  1.00  0.00    -0.247 C  
BRANCH   6   7
HETATM    7  C   UNL     1      -8.021  17.423  68.992  1.00  0.00    -0.110 C  
HETATM    8  H   UNL     1      -9.870  16.828  69.330  1.00  0.00     0.000 HD 
HETATM    9  O   UNL     1      -9.434  17.438  68.746  1.00  0.00    -0.278 OA 
BRANCH   7  10
HETATM   10  C   UNL     1      -7.474  16.001  68.812  1.00  0.00    -0.176 C  
BRANCH  10  11
HETATM   11  O   UNL     1      -7.498  15.653  67.420  1.00  0.00    -0.166 OA 
BRANCH  11  12
HETATM   12  C   UNL     1      -8.220  14.537  67.083  1.00  0.00    -0.188 A  
HETATM   13  C   UNL     1      -7.912  13.228  67.449  1.00  0.00    -0.175 A  
HETATM   14  C   UNL     1      -8.699  12.163  66.998  1.00  0.00    -0.190 A  
HETATM   15  C   UNL     1      -9.805  12.389  66.168  1.00  0.00    -0.263 A  
HETATM   16  C   UNL     1     -10.138  13.710  65.841  1.00  0.00    -0.320 A  
HETATM   17  C   UNL     1      -9.346  14.773  66.291  1.00  0.00    -0.310 A  
BRANCH  15  18
HETATM   18  C   UNL     1     -10.574  11.224  65.590  1.00  0.00    -0.303 C  
BRANCH  18  19
HETATM   19  C   UNL     1      -9.793  10.087  64.960  1.00  0.00    -0.304 C  
HETATM   20  N   UNL     1      -9.541   8.973  65.698  1.00  0.00    -0.437 N  
HETATM   21  O   UNL     1      -9.388  10.151  63.802  1.00  0.00    -0.262 OA 
HETATM   22  H2  UNL     1      -9.873   8.903  66.660  1.00  0.00     0.000 HD 
HETATM   23  H1  UNL     1      -9.015   8.208  65.273  1.00  0.00     0.000 HD 
ENDBRANCH  18  19
ENDBRANCH  15  18
ENDBRANCH  11  12
ENDBRANCH  10  11
ENDBRANCH   7  10
ENDBRANCH   6   7
ENDBRANCH   4   6
ENDBRANCH   2   4
TORSDOF 8
ENDMDL
MODEL      185
REMARK 921   NORMALIZED FREE ENERGY PREDICTED BY IDOCK:   -3.41 KCAL/MOL
REMARK 922        TOTAL FREE ENERGY PREDICTED BY IDOCK:   -5.58 KCAL/MOL
REMARK 923 INTER-LIGAND FREE ENERGY PREDICTED BY IDOCK:   -4.99 KCAL/MOL
REMARK 924 INTRA-LIGAND FREE ENERGY PREDICTED BY IDOCK:   -0.59 KCAL/MOL
REMARK 927      BINDING AFFINITY PREDICTED BY RF-SCORE:    0.00 PKD
ROOT
HETATM    1  C   UNL     1      -9.972  10.865  63.285  1.00  0.00    -0.399 C  
HETATM    2  C   UNL     1     -10.423  12.296  63.583  1.00  0.00    -0.450 C  
HETATM    3  C   UNL     1     -11.939  12.404  63.396  1.00  0.00    -0.595 C  
ENDROOT
BRANCH   2   4
HETATM    4  N   UNL     1     -10.016  12.633  64.950  1.00  0.00    -0.471 NA 
HETATM    5  H   UNL     1     -10.675  13.287  65.373  1.00  0.00     0.000 HD 
BRANCH   4   6
HETATM    6  C   UNL     1      -9.825  11.457  65.810  1.00  0.00    -0.232 C  
BRANCH   6   7
HETATM    7  C   UNL     1     -10.605  11.625  67.128  1.00  0.00    -0.232 C  
HETATM    8  H   UNL     1     -12.444  12.101  67.658  1.00  0.00     0.000 HD 
HETATM    9  O   UNL     1     -11.962  11.997  66.845  1.00  0.00    -0.612 OA 
BRANCH   7  10
HETATM   10  C   UNL     1     -10.580  10.332  67.953  1.00  0.00    -0.239 C  
BRANCH  10  11
HETATM   11  O   UNL     1     -11.055   9.243  67.148  1.00  0.00    -0.020 OA 
BRANCH  11  12
HETATM   12  C   UNL     1     -10.376   8.057  67.267  1.00  0.00    -0.301 A  
HETATM   13  C   UNL     1     -10.849   6.806  66.874  1.00  0.00    -0.402 A  
HETATM   14  C   UNL     1     -10.081   5.657  67.097  1.00  0.00    -0.215 A  
HETATM   15  C   UNL     1      -8.831   5.740  67.722  1.00  0.00    -0.105 A  
HETATM   16  C   UNL     1      -8.339   7.004  68.073  1.00  0.00    -0.119 A  
HETATM   17  C   UNL     1      -9.111   8.151  67.853  1.00  0.00    -0.136 A  
BRANCH  15  18
HETATM   18  C   UNL     1      -8.067   4.482  68.065  1.00  0.00    -0.091 C  
BRANCH  18  19
HETATM   19  C   UNL     1      -8.760   3.426  68.904  1.00  0.00    -0.095 C  
HETATM   20  N   UNL     1      -9.294   2.339  68.285  1.00  0.00    -0.204 N  
HETATM   21  O   UNL     1      -8.844   3.529  70.126  1.00  0.00    -0.072 OA 
HETATM   22  H2  UNL     1      -9.230   2.236  67.272  1.00  0.00     0.000 HD 
HETATM   23  H1  UNL     1      -9.760   1.629  68.850  1.00  0.00     0.000 HD 
ENDBRANCH  18  19
ENDBRANCH  15  18
ENDBRANCH  11  12
ENDBRANCH  10  11
ENDBRANCH   7  10
ENDBRANCH   6   7
ENDBRANCH   4   6
ENDBRANCH   2   4
TORSDOF 8
ENDMDL
MODEL      186
REMARK 921   NORMALIZED FREE ENERGY PREDICTED BY IDOCK:   -3.39 KCAL/MOL
REMARK 922        TOTAL FREE ENERGY PREDICTED BY IDOCK:   -5.54 KCAL/MOL
REMARK 923 INTER-LIGAND FREE ENERGY PREDICTED BY IDOCK:   -4.93 KCAL/MOL
REMARK 924 INTRA-LIGAND FREE ENERGY PREDICTED BY IDOCK:   -0.61 KCAL/MOL
REMARK 927      BINDING AFFINITY PREDICTED BY RF-SCORE:    0.00 PKD
ROOT
HETATM    1  C   UNL     1     -11.960  13.698  63.996  1.00  0.00    -0.478 C  
HETATM    2  C   UNL     1     -10.753  14.131  64.831  1.00  0.00    -0.428 C  
HETATM    3  C   UNL     1     -10.938  15.582  65.284  1.00  0.00    -0.391 C  
ENDROOT
BRANCH   2   4
HETATM    4  N   UNL     1     -10.627  13.215  65.969  1.00  0.00    -0.277 NA 
HETATM    5  H   UNL     1      -9.831  13.472  66.553  1.00  0.00     0.000 HD 
BRANCH   4   6
HETATM    6  C   UNL     1     -11.852  13.111  66.774  1.00  0.00    -0.385 C  
BRANCH   6   7
HETATM    7  C   UNL     1     -11.501  12.989  68.269  1.00  0.00    -0.312 C  
HETATM    8  H   UNL     1     -12.065  13.847  69.952  1.00  0.00     0.000 HD 
HETATM    9  O   UNL     1     -12.282  13.922  69.030  1.00  0.00    -0.350 OA 
BRANCH   7  10
HETATM   10  C   UNL     1     -11.748  11.563  68.779  1.00  0.00    -0.334 C  
BRANCH  10  11
HETATM   11  O   UNL     1     -10.502  10.978  69.184  1.00  0.00    -0.217 OA 
BRANCH  11  12
HETATM   12  C   UNL     1      -9.947  10.070  68.320  1.00  0.00    -0.153 A  
HETATM   13  C   UNL     1     -10.643   9.308  67.382  1.00  0.00    -0.324 A  
HETATM   14  C   UNL     1      -9.970   8.372  66.590  1.00  0.00    -0.354 A  
HETATM   15  C   UNL     1      -8.590   8.177  66.726  1.00  0.00    -0.136 A  
HETATM   16  C   UNL     1      -7.886   8.977  67.635  1.00  0.00    -0.101 A  
HETATM   17  C   UNL     1      -8.563   9.910  68.430  1.00  0.00    -0.116 A  
BRANCH  15  18
HETATM   18  C   UNL     1      -7.895   7.081  65.951  1.00  0.00    -0.106 C  
BRANCH  18  19
HETATM   19  C   UNL     1      -7.323   7.415  64.587  1.00  0.00    -0.082 C  
HETATM   20  N   UNL     1      -8.174   7.577  63.538  1.00  0.00    -0.350 N  
HETATM   21  O   UNL     1      -6.114   7.546  64.412  1.00  0.00    -0.037 OA 
HETATM   22  H2  UNL     1      -9.180   7.475  63.667  1.00  0.00     0.000 HD 
HETATM   23  H1  UNL     1      -7.789   7.802  62.620  1.00  0.00     0.000 HD 
ENDBRANCH  18  19
ENDBRANCH  15  18
ENDBRANCH  11  12
ENDBRANCH  10  11
ENDBRANCH   7  10
ENDBRANCH   6   7
ENDBRANCH   4   6
ENDBRANCH   2   4
TORSDOF 8
ENDMDL
MODEL      187
REMARK 921   NORMALIZED FREE ENERGY PREDICTED BY IDOCK:   -3.38 KCAL/MOL
REMARK 922        TOTAL FREE ENERGY PREDICTED BY IDOCK:   -5.54 KCAL/MOL
REMARK 923 INTER-LIGAND FREE ENERGY PREDICTED BY IDOCK:   -5.12 KCAL/MOL
REMARK 924 INTRA-LIGAND FREE ENERGY PREDICTED BY IDOCK:   -0.42 KCAL/MOL
REMARK 927      BINDING AFFINITY PREDICTED BY RF-SCORE:    0.00 PKD
ROOT
HETATM    1  C   UNL     1      -6.156   9.115  67.151  1.00  0.00    -0.057 C  
HETATM    2  C   UNL     1      -6.914  10.011  66.170  1.00  0.00    -0.107 C  
HETATM    3  C   UNL     1      -7.566   9.148  65.087  1.00  0.00    -0.098 C  
ENDROOT
BRANCH   2   4
HETATM    4  N   UNL     1      -7.907  10.783  66.924  1.00  0.00    -0.124 NA 
HETATM    5  H   UNL     1      -7.844  11.775  66.694  1.00  0.00     0.000 HD 
BRANCH   4   6
HETATM    6  C   UNL     1      -9.282  10.295  66.751  1.00  0.00    -0.157 C  
BRANCH   6   7
HETATM    7  C   UNL     1     -10.152  11.373  66.077  1.00  0.00    -0.234 C  
HETATM    8  H   UNL     1     -11.267  11.514  64.457  1.00  0.00     0.000 HD 
HETATM    9  O   UNL     1     -10.730  10.849  64.873  1.00  0.00    -0.276 OA 
BRANCH   7  10
HETATM   10  C   UNL     1     -11.261  11.857  67.021  1.00  0.00    -0.323 C  
BRANCH  10  11
HETATM   11  O   UNL     1     -11.925  12.988  66.438  1.00  0.00    -0.391 OA 
BRANCH  11  12
HETATM   12  C   UNL     1     -11.484  14.223  66.834  1.00  0.00    -0.363 A  
HETATM   13  C   UNL     1     -11.731  14.817  68.072  1.00  0.00    -0.360 A  
HETATM   14  C   UNL     1     -11.271  16.111  68.341  1.00  0.00    -0.358 A  
HETATM   15  C   UNL     1     -10.561  16.835  67.375  1.00  0.00    -0.291 A  
HETATM   16  C   UNL     1     -10.274  16.218  66.151  1.00  0.00    -0.361 A  
HETATM   17  C   UNL     1     -10.740  14.925  65.883  1.00  0.00    -0.329 A  
BRANCH  15  18
HETATM   18  C   UNL     1     -10.175  18.273  67.634  1.00  0.00    -0.397 C  
BRANCH  18  19
HETATM   19  C   UNL     1      -8.757  18.567  68.086  1.00  0.00    -0.310 C  
HETATM   20  N   UNL     1      -8.190  19.755  67.744  1.00  0.00    -0.300 N  
HETATM   21  O   UNL     1      -8.116  17.760  68.755  1.00  0.00    -0.282 OA 
HETATM   22  H2  UNL     1      -8.710  20.437  67.192  1.00  0.00     0.000 HD 
HETATM   23  H1  UNL     1      -7.237  19.952  68.049  1.00  0.00     0.000 HD 
ENDBRANCH  18  19
ENDBRANCH  15  18
ENDBRANCH  11  12
ENDBRANCH  10  11
ENDBRANCH   7  10
ENDBRANCH   6   7
ENDBRANCH   4   6
ENDBRANCH   2   4
TORSDOF 8
ENDMDL
MODEL      188
REMARK 921   NORMALIZED FREE ENERGY PREDICTED BY IDOCK:   -3.36 KCAL/MOL
REMARK 922        TOTAL FREE ENERGY PREDICTED BY IDOCK:   -5.51 KCAL/MOL
REMARK 923 INTER-LIGAND FREE ENERGY PREDICTED BY IDOCK:   -4.52 KCAL/MOL
REMARK 924 INTRA-LIGAND FREE ENERGY PREDICTED BY IDOCK:   -0.99 KCAL/MOL
REMARK 927      BINDING AFFINITY PREDICTED BY RF-SCORE:    0.00 PKD
ROOT
HETATM    1  C   UNL     1      -6.983  11.539  69.036  1.00  0.00    -0.112 C  
HETATM    2  C   UNL     1      -7.102  11.429  67.515  1.00  0.00    -0.106 C  
HETATM    3  C   UNL     1      -6.584  12.716  66.867  1.00  0.00     0.353 C  
ENDROOT
BRANCH   2   4
HETATM    4  N   UNL     1      -6.344  10.253  67.077  1.00  0.00    -0.070 NA 
HETATM    5  H   UNL     1      -5.415  10.523  66.753  1.00  0.00     0.000 HD 
BRANCH   4   6
HETATM    6  C   UNL     1      -6.255   9.201  68.098  1.00  0.00    -0.054 C  
BRANCH   6   7
HETATM    7  C   UNL     1      -7.202   8.036  67.751  1.00  0.00    -0.091 C  
HETATM    8  H   UNL     1      -7.176   6.070  67.903  1.00  0.00     0.000 HD 
HETATM    9  O   UNL     1      -6.592   6.789  68.117  1.00  0.00    -0.053 OA 
BRANCH   7  10
HETATM   10  C   UNL     1      -8.550   8.188  68.468  1.00  0.00    -0.130 C  
BRANCH  10  11
HETATM   11  O   UNL     1      -9.615   8.007  67.524  1.00  0.00    -0.144 OA 
BRANCH  11  12
HETATM   12  C   UNL     1      -9.912   9.082  66.727  1.00  0.00    -0.263 A  
HETATM   13  C   UNL     1      -9.570   9.216  65.382  1.00  0.00    -0.166 A  
HETATM   14  C   UNL     1      -9.883  10.389  64.686  1.00  0.00    -0.405 A  
HETATM   15  C   UNL     1     -10.539  11.449  65.325  1.00  0.00    -0.336 A  
HETATM   16  C   UNL     1     -10.923  11.291  66.662  1.00  0.00    -0.326 A  
HETATM   17  C   UNL     1     -10.605  10.119  67.357  1.00  0.00    -0.329 A  
BRANCH  15  18
HETATM   18  C   UNL     1     -10.764  12.754  64.596  1.00  0.00    -0.361 C  
BRANCH  18  19
HETATM   19  C   UNL     1     -12.096  12.971  63.903  1.00  0.00    -0.471 C  
HETATM   20  N   UNL     1     -12.923  11.907  63.719  1.00  0.00    -0.628 N  
HETATM   21  O   UNL     1     -12.442  14.082  63.511  1.00  0.00    -0.826 OA 
HETATM   22  H2  UNL     1     -12.651  10.978  64.041  1.00  0.00     0.000 HD 
HETATM   23  H1  UNL     1     -13.818  12.053  63.253  1.00  0.00     0.000 HD 
ENDBRANCH  18  19
ENDBRANCH  15  18
ENDBRANCH  11  12
ENDBRANCH  10  11
ENDBRANCH   7  10
ENDBRANCH   6   7
ENDBRANCH   4   6
ENDBRANCH   2   4
TORSDOF 8
ENDMDL
MODEL      189
REMARK 921   NORMALIZED FREE ENERGY PREDICTED BY IDOCK:   -3.35 KCAL/MOL
REMARK 922        TOTAL FREE ENERGY PREDICTED BY IDOCK:   -5.48 KCAL/MOL
REMARK 923 INTER-LIGAND FREE ENERGY PREDICTED BY IDOCK:   -4.94 KCAL/MOL
REMARK 924 INTRA-LIGAND FREE ENERGY PREDICTED BY IDOCK:   -0.54 KCAL/MOL
REMARK 927      BINDING AFFINITY PREDICTED BY RF-SCORE:    0.00 PKD
ROOT
HETATM    1  C   UNL     1      -9.789   9.634  65.614  1.00  0.00    -0.369 C  
HETATM    2  C   UNL     1      -9.307  10.763  64.702  1.00  0.00    -0.233 C  
HETATM    3  C   UNL     1     -10.514  11.468  64.078  1.00  0.00    -0.424 C  
ENDROOT
BRANCH   2   4
HETATM    4  N   UNL     1      -8.489  11.682  65.499  1.00  0.00    -0.333 NA 
HETATM    5  H   UNL     1      -8.225  12.500  64.949  1.00  0.00     0.000 HD 
BRANCH   4   6
HETATM    6  C   UNL     1      -9.125  12.087  66.760  1.00  0.00    -0.197 C  
BRANCH   6   7
HETATM    7  C   UNL     1      -9.081  13.619  66.916  1.00  0.00    -0.240 C  
HETATM    8  H   UNL     1      -9.147  15.186  65.721  1.00  0.00     0.000 HD 
HETATM    9  O   UNL     1      -9.174  14.241  65.626  1.00  0.00     0.034 OA 
BRANCH   7  10
HETATM   10  C   UNL     1     -10.219  14.115  67.818  1.00  0.00    -0.242 C  
BRANCH  10  11
HETATM   11  O   UNL     1      -9.673  14.913  68.879  1.00  0.00    -0.214 OA 
BRANCH  11  12
HETATM   12  C   UNL     1      -9.376  16.215  68.570  1.00  0.00    -0.209 A  
HETATM   13  C   UNL     1     -10.153  17.063  67.784  1.00  0.00    -0.302 A  
HETATM   14  C   UNL     1      -9.716  18.360  67.495  1.00  0.00    -0.308 A  
HETATM   15  C   UNL     1      -8.490  18.829  67.984  1.00  0.00    -0.319 A  
HETATM   16  C   UNL     1      -7.734  17.991  68.813  1.00  0.00    -0.273 A  
HETATM   17  C   UNL     1      -8.172  16.692  69.096  1.00  0.00    -0.126 A  
BRANCH  15  18
HETATM   18  C   UNL     1      -7.974  20.187  67.567  1.00  0.00    -0.352 C  
BRANCH  18  19
HETATM   19  C   UNL     1      -7.195  20.293  66.270  1.00  0.00    -0.265 C  
HETATM   20  N   UNL     1      -5.964  20.871  66.286  1.00  0.00    -0.226 N  
HETATM   21  O   UNL     1      -7.650  19.867  65.211  1.00  0.00    -0.344 OA 
HETATM   22  H2  UNL     1      -5.571  21.227  67.157  1.00  0.00     0.000 HD 
HETATM   23  H1  UNL     1      -5.441  20.942  65.413  1.00  0.00     0.000 HD 
ENDBRANCH  18  19
ENDBRANCH  15  18
ENDBRANCH  11  12
ENDBRANCH  10  11
ENDBRANCH   7  10
ENDBRANCH   6   7
ENDBRANCH   4   6
ENDBRANCH   2   4
TORSDOF 8
ENDMDL
MODEL      190
REMARK 921   NORMALIZED FREE ENERGY PREDICTED BY IDOCK:   -3.33 KCAL/MOL
REMARK 922        TOTAL FREE ENERGY PREDICTED BY IDOCK:   -5.46 KCAL/MOL
REMARK 923 INTER-LIGAND FREE ENERGY PREDICTED BY IDOCK:   -4.77 KCAL/MOL
REMARK 924 INTRA-LIGAND FREE ENERGY PREDICTED BY IDOCK:   -0.69 KCAL/MOL
REMARK 927      BINDING AFFINITY PREDICTED BY RF-SCORE:    0.00 PKD
ROOT
HETATM    1  C   UNL     1      -9.811   4.734  65.996  1.00  0.00    -0.229 C  
HETATM    2  C   UNL     1     -10.660   5.715  66.807  1.00  0.00    -0.304 C  
HETATM    3  C   UNL     1     -10.585   5.348  68.292  1.00  0.00    -0.144 C  
ENDROOT
BRANCH   2   4
HETATM    4  N   UNL     1     -10.164   7.071  66.554  1.00  0.00    -0.458 NA 
HETATM    5  H   UNL     1     -10.119   7.607  67.421  1.00  0.00     0.000 HD 
BRANCH   4   6
HETATM    6  C   UNL     1      -8.872   7.101  65.856  1.00  0.00    -0.103 C  
BRANCH   6   7
HETATM    7  C   UNL     1      -8.385   8.554  65.693  1.00  0.00    -0.148 C  
HETATM    8  H   UNL     1      -8.475   9.952  64.305  1.00  0.00     0.000 HD 
HETATM    9  O   UNL     1      -8.775   9.055  64.406  1.00  0.00    -0.186 OA 
BRANCH   7  10
HETATM   10  C   UNL     1      -8.952   9.454  66.798  1.00  0.00    -0.131 C  
BRANCH  10  11
HETATM   11  O   UNL     1     -10.149  10.090  66.329  1.00  0.00    -0.234 OA 
BRANCH  11  12
HETATM   12  C   UNL     1     -10.297  11.416  66.643  1.00  0.00    -0.233 A  
HETATM   13  C   UNL     1      -9.582  12.106  67.621  1.00  0.00    -0.190 A  
HETATM   14  C   UNL     1      -9.861  13.451  67.886  1.00  0.00    -0.237 A  
HETATM   15  C   UNL     1     -10.864  14.128  67.181  1.00  0.00    -0.291 A  
HETATM   16  C   UNL     1     -11.548  13.445  66.167  1.00  0.00    -0.378 A  
HETATM   17  C   UNL     1     -11.269  12.098  65.907  1.00  0.00    -0.384 A  
BRANCH  15  18
HETATM   18  C   UNL     1     -11.238  15.543  67.559  1.00  0.00    -0.272 C  
BRANCH  18  19
HETATM   19  C   UNL     1     -10.255  16.654  67.245  1.00  0.00    -0.290 C  
HETATM   20  N   UNL     1     -10.076  17.029  65.950  1.00  0.00    -0.297 N  
HETATM   21  O   UNL     1      -9.623  17.223  68.132  1.00  0.00    -0.265 OA 
HETATM   22  H2  UNL     1     -10.595  16.569  65.201  1.00  0.00     0.000 HD 
HETATM   23  H1  UNL     1      -9.415  17.776  65.739  1.00  0.00     0.000 HD 
ENDBRANCH  18  19
ENDBRANCH  15  18
ENDBRANCH  11  12
ENDBRANCH  10  11
ENDBRANCH   7  10
ENDBRANCH   6   7
ENDBRANCH   4   6
ENDBRANCH   2   4
TORSDOF 8
ENDMDL
MODEL      191
REMARK 921   NORMALIZED FREE ENERGY PREDICTED BY IDOCK:   -3.33 KCAL/MOL
REMARK 922        TOTAL FREE ENERGY PREDICTED BY IDOCK:   -5.46 KCAL/MOL
REMARK 923 INTER-LIGAND FREE ENERGY PREDICTED BY IDOCK:   -4.85 KCAL/MOL
REMARK 924 INTRA-LIGAND FREE ENERGY PREDICTED BY IDOCK:   -0.60 KCAL/MOL
REMARK 927      BINDING AFFINITY PREDICTED BY RF-SCORE:    0.00 PKD
ROOT
HETATM    1  C   UNL     1     -10.436  16.640  65.491  1.00  0.00    -0.285 C  
HETATM    2  C   UNL     1      -9.889  15.529  66.388  1.00  0.00    -0.278 C  
HETATM    3  C   UNL     1     -10.519  15.637  67.779  1.00  0.00    -0.273 C  
ENDROOT
BRANCH   2   4
HETATM    4  N   UNL     1     -10.182  14.239  65.755  1.00  0.00    -0.319 NA 
HETATM    5  H   UNL     1     -10.690  13.629  66.396  1.00  0.00     0.000 HD 
BRANCH   4   6
HETATM    6  C   UNL     1     -10.899  14.364  64.478  1.00  0.00    -0.253 C  
BRANCH   6   7
HETATM    7  C   UNL     1     -11.779  13.123  64.234  1.00  0.00    -0.395 C  
HETATM    8  H   UNL     1     -13.190  12.589  62.965  1.00  0.00     0.000 HD 
HETATM    9  O   UNL     1     -12.648  13.355  63.116  1.00  0.00    -0.710 OA 
BRANCH   7  10
HETATM   10  C   UNL     1     -10.919  11.878  63.978  1.00  0.00    -0.381 C  
BRANCH  10  11
HETATM   11  O   UNL     1     -10.854  11.088  65.174  1.00  0.00    -0.221 OA 
BRANCH  11  12
HETATM   12  C   UNL     1     -10.017  10.003  65.142  1.00  0.00    -0.280 A  
HETATM   13  C   UNL     1      -9.850   9.073  66.167  1.00  0.00    -0.349 A  
HETATM   14  C   UNL     1      -8.923   8.034  66.037  1.00  0.00    -0.205 A  
HETATM   15  C   UNL     1      -8.143   7.910  64.881  1.00  0.00    -0.144 A  
HETATM   16  C   UNL     1      -8.347   8.817  63.834  1.00  0.00    -0.145 A  
HETATM   17  C   UNL     1      -9.272   9.859  63.969  1.00  0.00    -0.302 A  
BRANCH  15  18
HETATM   18  C   UNL     1      -7.062   6.856  64.801  1.00  0.00    -0.060 C  
BRANCH  18  19
HETATM   19  C   UNL     1      -7.480   5.407  64.639  1.00  0.00    -0.070 C  
HETATM   20  N   UNL     1      -6.677   4.430  65.139  1.00  0.00    -0.047 N  
HETATM   21  O   UNL     1      -8.526   5.100  64.072  1.00  0.00    -0.134 OA 
HETATM   22  H2  UNL     1      -5.807   4.668  65.616  1.00  0.00     0.000 HD 
HETATM   23  H1  UNL     1      -6.958   3.456  65.030  1.00  0.00     0.000 HD 
ENDBRANCH  18  19
ENDBRANCH  15  18
ENDBRANCH  11  12
ENDBRANCH  10  11
ENDBRANCH   7  10
ENDBRANCH   6   7
ENDBRANCH   4   6
ENDBRANCH   2   4
TORSDOF 8
ENDMDL
MODEL      192
REMARK 921   NORMALIZED FREE ENERGY PREDICTED BY IDOCK:   -3.32 KCAL/MOL
REMARK 922        TOTAL FREE ENERGY PREDICTED BY IDOCK:   -5.44 KCAL/MOL
REMARK 923 INTER-LIGAND FREE ENERGY PREDICTED BY IDOCK:   -4.91 KCAL/MOL
REMARK 924 INTRA-LIGAND FREE ENERGY PREDICTED BY IDOCK:   -0.53 KCAL/MOL
REMARK 927      BINDING AFFINITY PREDICTED BY RF-SCORE:    0.00 PKD
ROOT
HETATM    1  C   UNL     1     -13.237  14.882  72.833  1.00  0.00    -0.590 C  
HETATM    2  C   UNL     1     -12.899  14.710  71.352  1.00  0.00    -0.330 C  
HETATM    3  C   UNL     1     -11.679  15.567  71.003  1.00  0.00    -0.423 C  
ENDROOT
BRANCH   2   4
HETATM    4  N   UNL     1     -12.657  13.287  71.096  1.00  0.00    -0.361 NA 
HETATM    5  H   UNL     1     -11.671  13.059  71.223  1.00  0.00     0.000 HD 
BRANCH   4   6
HETATM    6  C   UNL     1     -13.504  12.396  71.900  1.00  0.00    -0.269 C  
BRANCH   6   7
HETATM    7  C   UNL     1     -12.974  10.951  71.837  1.00  0.00    -0.396 C  
HETATM    8  H   UNL     1     -13.730   9.135  71.970  1.00  0.00     0.000 HD 
HETATM    9  O   UNL     1     -14.058  10.027  72.009  1.00  0.00    -0.033 OA 
BRANCH   7  10
HETATM   10  C   UNL     1     -12.264  10.681  70.504  1.00  0.00    -0.358 C  
BRANCH  10  11
HETATM   11  O   UNL     1     -10.865  10.466  70.743  1.00  0.00    -0.197 OA 
BRANCH  11  12
HETATM   12  C   UNL     1     -10.212   9.660  69.847  1.00  0.00    -0.245 A  
HETATM   13  C   UNL     1     -10.566   9.473  68.512  1.00  0.00    -0.247 A  
HETATM   14  C   UNL     1      -9.850   8.579  67.708  1.00  0.00    -0.218 A  
HETATM   15  C   UNL     1      -8.770   7.855  68.227  1.00  0.00    -0.130 A  
HETATM   16  C   UNL     1      -8.387   8.081  69.555  1.00  0.00    -0.127 A  
HETATM   17  C   UNL     1      -9.108   8.972  70.358  1.00  0.00    -0.242 A  
BRANCH  15  18
HETATM   18  C   UNL     1      -8.081   6.806  67.384  1.00  0.00    -0.118 C  
BRANCH  18  19
HETATM   19  C   UNL     1      -8.930   5.954  66.460  1.00  0.00    -0.131 C  
HETATM   20  N   UNL     1      -8.938   6.234  65.129  1.00  0.00    -0.362 N  
HETATM   21  O   UNL     1      -9.603   5.020  66.886  1.00  0.00    -0.133 OA 
HETATM   22  H2  UNL     1      -8.382   7.004  64.758  1.00  0.00     0.000 HD 
HETATM   23  H1  UNL     1      -9.509   5.661  64.508  1.00  0.00     0.000 HD 
ENDBRANCH  18  19
ENDBRANCH  15  18
ENDBRANCH  11  12
ENDBRANCH  10  11
ENDBRANCH   7  10
ENDBRANCH   6   7
ENDBRANCH   4   6
ENDBRANCH   2   4
TORSDOF 8
ENDMDL
MODEL      193
REMARK 921   NORMALIZED FREE ENERGY PREDICTED BY IDOCK:   -3.31 KCAL/MOL
REMARK 922        TOTAL FREE ENERGY PREDICTED BY IDOCK:   -5.43 KCAL/MOL
REMARK 923 INTER-LIGAND FREE ENERGY PREDICTED BY IDOCK:   -4.81 KCAL/MOL
REMARK 924 INTRA-LIGAND FREE ENERGY PREDICTED BY IDOCK:   -0.63 KCAL/MOL
REMARK 927      BINDING AFFINITY PREDICTED BY RF-SCORE:    0.00 PKD
ROOT
HETATM    1  C   UNL     1      -6.356   8.514  68.601  1.00  0.00    -0.053 C  
HETATM    2  C   UNL     1      -6.636   8.917  70.050  1.00  0.00    -0.042 C  
HETATM    3  C   UNL     1      -6.819  10.435  70.132  1.00  0.00    -0.155 C  
ENDROOT
BRANCH   2   4
HETATM    4  N   UNL     1      -7.829   8.198  70.506  1.00  0.00    -0.084 NA 
HETATM    5  H   UNL     1      -7.569   7.369  71.040  1.00  0.00     0.000 HD 
BRANCH   4   6
HETATM    6  C   UNL     1      -8.762   9.037  71.269  1.00  0.00    -0.171 C  
BRANCH   6   7
HETATM    7  C   UNL     1     -10.211   8.781  70.812  1.00  0.00    -0.211 C  
HETATM    8  H   UNL     1     -11.995   9.524  71.205  1.00  0.00     0.000 HD 
HETATM    9  O   UNL     1     -11.101   9.682  71.487  1.00  0.00    -0.370 OA 
BRANCH   7  10
HETATM   10  C   UNL     1     -10.349   8.951  69.294  1.00  0.00    -0.213 C  
BRANCH  10  11
HETATM   11  O   UNL     1     -11.427   9.856  69.011  1.00  0.00    -0.094 OA 
BRANCH  11  12
HETATM   12  C   UNL     1     -11.148  10.885  68.150  1.00  0.00    -0.280 A  
HETATM   13  C   UNL     1     -11.379  12.238  68.396  1.00  0.00    -0.340 A  
HETATM   14  C   UNL     1     -11.100  13.194  67.413  1.00  0.00    -0.301 A  
HETATM   15  C   UNL     1     -10.589  12.814  66.166  1.00  0.00    -0.286 A  
HETATM   16  C   UNL     1     -10.313  11.459  65.940  1.00  0.00    -0.299 A  
HETATM   17  C   UNL     1     -10.598  10.504  66.923  1.00  0.00    -0.303 A  
BRANCH  15  18
HETATM   18  C   UNL     1     -10.405  13.841  65.073  1.00  0.00    -0.402 C  
BRANCH  18  19
HETATM   19  C   UNL     1     -11.594  14.700  64.686  1.00  0.00    -0.402 C  
HETATM   20  N   UNL     1     -12.671  14.109  64.103  1.00  0.00    -0.611 N  
HETATM   21  O   UNL     1     -11.605  15.911  64.891  1.00  0.00    -0.189 OA 
HETATM   22  H2  UNL     1     -12.679  13.104  63.929  1.00  0.00     0.000 HD 
HETATM   23  H1  UNL     1     -13.470  14.687  63.842  1.00  0.00     0.000 HD 
ENDBRANCH  18  19
ENDBRANCH  15  18
ENDBRANCH  11  12
ENDBRANCH  10  11
ENDBRANCH   7  10
ENDBRANCH   6   7
ENDBRANCH   4   6
ENDBRANCH   2   4
TORSDOF 8
ENDMDL
MODEL      194
REMARK 921   NORMALIZED FREE ENERGY PREDICTED BY IDOCK:   -3.31 KCAL/MOL
REMARK 922        TOTAL FREE ENERGY PREDICTED BY IDOCK:   -5.43 KCAL/MOL
REMARK 923 INTER-LIGAND FREE ENERGY PREDICTED BY IDOCK:   -5.23 KCAL/MOL
REMARK 924 INTRA-LIGAND FREE ENERGY PREDICTED BY IDOCK:   -0.20 KCAL/MOL
REMARK 927      BINDING AFFINITY PREDICTED BY RF-SCORE:    0.00 PKD
ROOT
HETATM    1  C   UNL     1      -7.966   7.746  74.200  1.00  0.00    -0.251 C  
HETATM    2  C   UNL     1      -9.145   7.431  73.279  1.00  0.00    -0.174 C  
HETATM    3  C   UNL     1     -10.202   6.639  74.053  1.00  0.00    -0.395 C  
ENDROOT
BRANCH   2   4
HETATM    4  N   UNL     1      -9.679   8.696  72.765  1.00  0.00    -0.161 NA 
HETATM    5  H   UNL     1      -8.965   9.424  72.784  1.00  0.00     0.000 HD 
BRANCH   4   6
HETATM    6  C   UNL     1     -10.269   8.580  71.424  1.00  0.00    -0.235 C  
BRANCH   6   7
HETATM    7  C   UNL     1      -9.586   9.560  70.452  1.00  0.00    -0.269 C  
HETATM    8  H   UNL     1      -7.738  10.023  69.940  1.00  0.00     0.000 HD 
HETATM    9  O   UNL     1      -8.160   9.418  70.540  1.00  0.00    -0.161 OA 
BRANCH   7  10
HETATM   10  C   UNL     1     -10.046   9.317  69.008  1.00  0.00    -0.199 C  
BRANCH  10  11
HETATM   11  O   UNL     1     -11.407   9.746  68.862  1.00  0.00    -0.092 OA 
BRANCH  11  12
HETATM   12  C   UNL     1     -11.603  11.084  68.638  1.00  0.00    -0.316 A  
HETATM   13  C   UNL     1     -11.564  11.715  67.396  1.00  0.00    -0.330 A  
HETATM   14  C   UNL     1     -11.727  13.102  67.300  1.00  0.00    -0.425 A  
HETATM   15  C   UNL     1     -11.926  13.881  68.446  1.00  0.00    -0.391 A  
HETATM   16  C   UNL     1     -12.012  13.238  69.688  1.00  0.00    -0.376 A  
HETATM   17  C   UNL     1     -11.844  11.851  69.781  1.00  0.00    -0.411 A  
BRANCH  15  18
HETATM   18  C   UNL     1     -11.980  15.388  68.342  1.00  0.00    -0.156 C  
BRANCH  18  19
HETATM   19  C   UNL     1     -10.689  16.138  68.077  1.00  0.00    -0.321 C  
HETATM   20  N   UNL     1     -10.219  16.994  69.024  1.00  0.00    -0.307 N  
HETATM   21  O   UNL     1     -10.061  15.986  67.032  1.00  0.00    -0.259 OA 
HETATM   22  H2  UNL     1     -10.726  17.129  69.898  1.00  0.00     0.000 HD 
HETATM   23  H1  UNL     1      -9.350  17.498  68.845  1.00  0.00     0.000 HD 
ENDBRANCH  18  19
ENDBRANCH  15  18
ENDBRANCH  11  12
ENDBRANCH  10  11
ENDBRANCH   7  10
ENDBRANCH   6   7
ENDBRANCH   4   6
ENDBRANCH   2   4
TORSDOF 8
ENDMDL
MODEL      195
REMARK 921   NORMALIZED FREE ENERGY PREDICTED BY IDOCK:   -3.28 KCAL/MOL
REMARK 922        TOTAL FREE ENERGY PREDICTED BY IDOCK:   -5.39 KCAL/MOL
REMARK 923 INTER-LIGAND FREE ENERGY PREDICTED BY IDOCK:   -5.05 KCAL/MOL
REMARK 924 INTRA-LIGAND FREE ENERGY PREDICTED BY IDOCK:   -0.35 KCAL/MOL
REMARK 927      BINDING AFFINITY PREDICTED BY RF-SCORE:    0.00 PKD
ROOT
HETATM    1  C   UNL     1      -6.066   3.979  70.211  1.00  0.00    -0.019 C  
HETATM    2  C   UNL     1      -6.711   4.730  71.377  1.00  0.00    -0.038 C  
HETATM    3  C   UNL     1      -5.967   6.048  71.610  1.00  0.00    -0.035 C  
ENDROOT
BRANCH   2   4
HETATM    4  N   UNL     1      -8.125   4.949  71.060  1.00  0.00    -0.090 NA 
HETATM    5  H   UNL     1      -8.577   5.504  71.787  1.00  0.00     0.000 HD 
BRANCH   4   6
HETATM    6  C   UNL     1      -8.341   5.550  69.736  1.00  0.00    -0.105 C  
BRANCH   6   7
HETATM    7  C   UNL     1      -9.355   6.706  69.832  1.00  0.00    -0.153 C  
HETATM    8  H   UNL     1      -9.782   8.141  71.115  1.00  0.00     0.000 HD 
HETATM    9  O   UNL     1      -9.156   7.428  71.056  1.00  0.00    -0.151 OA 
BRANCH   7  10
HETATM   10  C   UNL     1      -9.223   7.657  68.636  1.00  0.00    -0.141 C  
BRANCH  10  11
HETATM   11  O   UNL     1     -10.520   8.154  68.275  1.00  0.00    -0.204 OA 
BRANCH  11  12
HETATM   12  C   UNL     1     -10.545   9.254  67.458  1.00  0.00    -0.262 A  
HETATM   13  C   UNL     1     -11.063  10.504  67.792  1.00  0.00    -0.382 A  
HETATM   14  C   UNL     1     -11.079  11.538  66.849  1.00  0.00    -0.366 A  
HETATM   15  C   UNL     1     -10.584  11.338  65.555  1.00  0.00    -0.306 A  
HETATM   16  C   UNL     1     -10.021  10.095  65.238  1.00  0.00    -0.381 A  
HETATM   17  C   UNL     1     -10.010   9.061  66.181  1.00  0.00    -0.311 A  
BRANCH  15  18
HETATM   18  C   UNL     1     -10.717  12.424  64.512  1.00  0.00    -0.355 C  
BRANCH  18  19
HETATM   19  C   UNL     1     -12.102  12.959  64.204  1.00  0.00    -0.432 C  
HETATM   20  N   UNL     1     -12.611  13.953  64.980  1.00  0.00    -0.636 N  
HETATM   21  O   UNL     1     -12.768  12.518  63.270  1.00  0.00    -0.678 OA 
HETATM   22  H2  UNL     1     -12.070  14.332  65.757  1.00  0.00     0.000 HD 
HETATM   23  H1  UNL     1     -13.543  14.313  64.772  1.00  0.00     0.000 HD 
ENDBRANCH  18  19
ENDBRANCH  15  18
ENDBRANCH  11  12
ENDBRANCH  10  11
ENDBRANCH   7  10
ENDBRANCH   6   7
ENDBRANCH   4   6
ENDBRANCH   2   4
TORSDOF 8
ENDMDL
MODEL      196
REMARK 921   NORMALIZED FREE ENERGY PREDICTED BY IDOCK:   -3.28 KCAL/MOL
REMARK 922        TOTAL FREE ENERGY PREDICTED BY IDOCK:   -5.38 KCAL/MOL
REMARK 923 INTER-LIGAND FREE ENERGY PREDICTED BY IDOCK:   -5.05 KCAL/MOL
REMARK 924 INTRA-LIGAND FREE ENERGY PREDICTED BY IDOCK:   -0.33 KCAL/MOL
REMARK 927      BINDING AFFINITY PREDICTED BY RF-SCORE:    0.00 PKD
ROOT
HETATM    1  C   UNL     1      -7.496   3.522  69.806  1.00  0.00    -0.045 C  
HETATM    2  C   UNL     1      -8.562   4.421  69.178  1.00  0.00    -0.082 C  
HETATM    3  C   UNL     1      -9.633   3.555  68.510  1.00  0.00    -0.151 C  
ENDROOT
BRANCH   2   4
HETATM    4  N   UNL     1      -9.126   5.272  70.229  1.00  0.00    -0.131 NA 
HETATM    5  H   UNL     1      -9.081   6.256  69.961  1.00  0.00     0.000 HD 
BRANCH   4   6
HETATM    6  C   UNL     1     -10.494   4.899  70.613  1.00  0.00    -0.093 C  
BRANCH   6   7
HETATM    7  C   UNL     1     -11.391   6.150  70.686  1.00  0.00    -0.298 C  
HETATM    8  H   UNL     1     -12.467   7.069  72.059  1.00  0.00     0.000 HD 
HETATM    9  O   UNL     1     -11.914   6.297  72.014  1.00  0.00    -0.330 OA 
BRANCH   7  10
HETATM   10  C   UNL     1     -10.611   7.411  70.290  1.00  0.00    -0.231 C  
BRANCH  10  11
HETATM   11  O   UNL     1     -11.172   8.549  70.960  1.00  0.00    -0.253 OA 
BRANCH  11  12
HETATM   12  C   UNL     1     -11.304   9.691  70.214  1.00  0.00    -0.257 A  
HETATM   13  C   UNL     1     -11.749  10.925  70.686  1.00  0.00    -0.418 A  
HETATM   14  C   UNL     1     -11.892  12.008  69.812  1.00  0.00    -0.401 A  
HETATM   15  C   UNL     1     -11.598  11.874  68.450  1.00  0.00    -0.376 A  
HETATM   16  C   UNL     1     -11.106  10.647  67.988  1.00  0.00    -0.361 A  
HETATM   17  C   UNL     1     -10.967   9.564  68.864  1.00  0.00    -0.116 A  
BRANCH  15  18
HETATM   18  C   UNL     1     -11.871  13.015  67.496  1.00  0.00    -0.408 C  
BRANCH  18  19
HETATM   19  C   UNL     1     -11.599  14.430  67.970  1.00  0.00    -0.327 C  
HETATM   20  N   UNL     1     -12.533  15.058  68.734  1.00  0.00    -0.516 N  
HETATM   21  O   UNL     1     -10.558  15.014  67.684  1.00  0.00    -0.258 OA 
HETATM   22  H2  UNL     1     -13.402  14.586  68.983  1.00  0.00     0.000 HD 
HETATM   23  H1  UNL     1     -12.350  16.010  69.053  1.00  0.00     0.000 HD 
ENDBRANCH  18  19
ENDBRANCH  15  18
ENDBRANCH  11  12
ENDBRANCH  10  11
ENDBRANCH   7  10
ENDBRANCH   6   7
ENDBRANCH   4   6
ENDBRANCH   2   4
TORSDOF 8
ENDMDL
MODEL      197
REMARK 921   NORMALIZED FREE ENERGY PREDICTED BY IDOCK:   -3.27 KCAL/MOL
REMARK 922        TOTAL FREE ENERGY PREDICTED BY IDOCK:   -5.37 KCAL/MOL
REMARK 923 INTER-LIGAND FREE ENERGY PREDICTED BY IDOCK:   -4.97 KCAL/MOL
REMARK 924 INTRA-LIGAND FREE ENERGY PREDICTED BY IDOCK:   -0.40 KCAL/MOL
REMARK 927      BINDING AFFINITY PREDICTED BY RF-SCORE:    0.00 PKD
ROOT
HETATM    1  C   UNL     1     -12.206  12.711  64.630  1.00  0.00    -0.519 C  
HETATM    2  C   UNL     1     -10.796  13.266  64.418  1.00  0.00    -0.403 C  
HETATM    3  C   UNL     1     -10.768  14.749  64.794  1.00  0.00    -0.380 C  
ENDROOT
BRANCH   2   4
HETATM    4  N   UNL     1      -9.865  12.478  65.232  1.00  0.00    -0.432 NA 
HETATM    5  H   UNL     1      -9.276  13.089  65.800  1.00  0.00     0.000 HD 
BRANCH   4   6
HETATM    6  C   UNL     1     -10.528  11.469  66.069  1.00  0.00    -0.252 C  
BRANCH   6   7
HETATM    7  C   UNL     1     -10.009  10.061  65.722  1.00  0.00    -0.276 C  
HETATM    8  H   UNL     1      -9.230   9.164  64.148  1.00  0.00     0.000 HD 
HETATM    9  O   UNL     1      -9.550  10.033  64.362  1.00  0.00    -0.296 OA 
BRANCH   7  10
HETATM   10  C   UNL     1      -8.873   9.643  66.665  1.00  0.00    -0.138 C  
BRANCH  10  11
HETATM   11  O   UNL     1      -9.284   8.501  67.430  1.00  0.00    -0.137 OA 
BRANCH  11  12
HETATM   12  C   UNL     1      -9.416   7.322  66.743  1.00  0.00    -0.171 A  
HETATM   13  C   UNL     1     -10.442   6.394  66.908  1.00  0.00    -0.340 A  
HETATM   14  C   UNL     1     -10.439   5.197  66.182  1.00  0.00    -0.301 A  
HETATM   15  C   UNL     1      -9.406   4.908  65.282  1.00  0.00    -0.129 A  
HETATM   16  C   UNL     1      -8.402   5.863  65.084  1.00  0.00    -0.143 A  
HETATM   17  C   UNL     1      -8.405   7.057  65.814  1.00  0.00    -0.143 A  
BRANCH  15  18
HETATM   18  C   UNL     1      -9.350   3.562  64.595  1.00  0.00    -0.150 C  
BRANCH  18  19
HETATM   19  C   UNL     1     -10.265   3.322  63.410  1.00  0.00    -0.192 C  
HETATM   20  N   UNL     1     -11.001   2.179  63.367  1.00  0.00    -0.383 N  
HETATM   21  O   UNL     1     -10.358   4.136  62.494  1.00  0.00    -0.182 OA 
HETATM   22  H2  UNL     1     -10.938   1.494  64.121  1.00  0.00     0.000 HD 
HETATM   23  H1  UNL     1     -11.616   2.017  62.570  1.00  0.00     0.000 HD 
ENDBRANCH  18  19
ENDBRANCH  15  18
ENDBRANCH  11  12
ENDBRANCH  10  11
ENDBRANCH   7  10
ENDBRANCH   6   7
ENDBRANCH   4   6
ENDBRANCH   2   4
TORSDOF 8
ENDMDL
MODEL      198
REMARK 921   NORMALIZED FREE ENERGY PREDICTED BY IDOCK:   -3.26 KCAL/MOL
REMARK 922        TOTAL FREE ENERGY PREDICTED BY IDOCK:   -5.35 KCAL/MOL
REMARK 923 INTER-LIGAND FREE ENERGY PREDICTED BY IDOCK:   -4.72 KCAL/MOL
REMARK 924 INTRA-LIGAND FREE ENERGY PREDICTED BY IDOCK:   -0.63 KCAL/MOL
REMARK 927      BINDING AFFINITY PREDICTED BY RF-SCORE:    0.00 PKD
ROOT
HETATM    1  C   UNL     1      -9.524  16.744  66.431  1.00  0.00    -0.307 C  
HETATM    2  C   UNL     1      -9.423  15.654  67.500  1.00  0.00    -0.214 C  
HETATM    3  C   UNL     1     -10.268  16.048  68.714  1.00  0.00    -0.225 C  
ENDROOT
BRANCH   2   4
HETATM    4  N   UNL     1      -9.869  14.388  66.911  1.00  0.00    -0.254 NA 
HETATM    5  H   UNL     1     -10.218  13.757  67.633  1.00  0.00     0.000 HD 
BRANCH   4   6
HETATM    6  C   UNL     1     -10.863  14.558  65.843  1.00  0.00    -0.308 C  
BRANCH   6   7
HETATM    7  C   UNL     1     -12.166  13.818  66.201  1.00  0.00    -0.459 C  
HETATM    8  H   UNL     1     -13.542  12.785  65.240  1.00  0.00     0.000 HD 
HETATM    9  O   UNL     1     -12.739  13.241  65.019  1.00  0.00    -0.623 OA 
BRANCH   7  10
HETATM   10  C   UNL     1     -11.910  12.723  67.245  1.00  0.00    -0.350 C  
BRANCH  10  11
HETATM   11  O   UNL     1     -11.508  11.516  66.581  1.00  0.00    -0.423 OA 
BRANCH  11  12
HETATM   12  C   UNL     1     -10.674  10.684  67.283  1.00  0.00    -0.285 A  
HETATM   13  C   UNL     1     -10.846   9.311  67.450  1.00  0.00    -0.165 A  
HETATM   14  C   UNL     1      -9.953   8.575  68.236  1.00  0.00    -0.211 A  
HETATM   15  C   UNL     1      -8.875   9.202  68.873  1.00  0.00    -0.139 A  
HETATM   16  C   UNL     1      -8.678  10.572  68.665  1.00  0.00    -0.143 A  
HETATM   17  C   UNL     1      -9.576  11.307  67.881  1.00  0.00    -0.182 A  
BRANCH  15  18
HETATM   18  C   UNL     1      -7.988   8.419  69.815  1.00  0.00    -0.104 C  
BRANCH  18  19
HETATM   19  C   UNL     1      -7.827   6.930  69.581  1.00  0.00    -0.119 C  
HETATM   20  N   UNL     1      -8.439   6.060  70.429  1.00  0.00    -0.130 N  
HETATM   21  O   UNL     1      -7.162   6.495  68.644  1.00  0.00    -0.080 OA 
HETATM   22  H2  UNL     1      -8.998   6.404  71.210  1.00  0.00     0.000 HD 
HETATM   23  H1  UNL     1      -8.330   5.058  70.271  1.00  0.00     0.000 HD 
ENDBRANCH  18  19
ENDBRANCH  15  18
ENDBRANCH  11  12
ENDBRANCH  10  11
ENDBRANCH   7  10
ENDBRANCH   6   7
ENDBRANCH   4   6
ENDBRANCH   2   4
TORSDOF 8
ENDMDL
MODEL      199
REMARK 921   NORMALIZED FREE ENERGY PREDICTED BY IDOCK:   -3.25 KCAL/MOL
REMARK 922        TOTAL FREE ENERGY PREDICTED BY IDOCK:   -5.34 KCAL/MOL
REMARK 923 INTER-LIGAND FREE ENERGY PREDICTED BY IDOCK:   -4.86 KCAL/MOL
REMARK 924 INTRA-LIGAND FREE ENERGY PREDICTED BY IDOCK:   -0.48 KCAL/MOL
REMARK 927      BINDING AFFINITY PREDICTED BY RF-SCORE:    0.00 PKD
ROOT
HETATM    1  C   UNL     1      -9.671   7.659  66.527  1.00  0.00    -0.251 C  
HETATM    2  C   UNL     1      -9.088   8.323  67.776  1.00  0.00    -0.132 C  
HETATM    3  C   UNL     1      -7.615   7.931  67.923  1.00  0.00    -0.109 C  
ENDROOT
BRANCH   2   4
HETATM    4  N   UNL     1      -9.257   9.773  67.648  1.00  0.00    -0.131 NA 
HETATM    5  H   UNL     1      -9.799  10.144  68.429  1.00  0.00     0.000 HD 
BRANCH   4   6
HETATM    6  C   UNL     1      -7.988  10.500  67.505  1.00  0.00    -0.107 C  
BRANCH   6   7
HETATM    7  C   UNL     1      -7.828  11.528  68.640  1.00  0.00    -0.137 C  
HETATM    8  H   UNL     1      -6.449  11.999  69.969  1.00  0.00     0.000 HD 
HETATM    9  O   UNL     1      -6.548  11.364  69.269  1.00  0.00    -0.085 OA 
BRANCH   7  10
HETATM   10  C   UNL     1      -7.970  12.962  68.111  1.00  0.00    -0.153 C  
BRANCH  10  11
HETATM   11  O   UNL     1      -9.332  13.195  67.724  1.00  0.00    -0.190 OA 
BRANCH  11  12
HETATM   12  C   UNL     1      -9.662  14.487  67.409  1.00  0.00    -0.222 A  
HETATM   13  C   UNL     1      -9.138  15.226  66.349  1.00  0.00    -0.347 A  
HETATM   14  C   UNL     1      -9.516  16.560  66.160  1.00  0.00    -0.347 A  
HETATM   15  C   UNL     1     -10.420  17.179  67.032  1.00  0.00    -0.282 A  
HETATM   16  C   UNL     1     -10.980  16.420  68.067  1.00  0.00    -0.327 A  
HETATM   17  C   UNL     1     -10.597  15.087  68.256  1.00  0.00    -0.247 A  
BRANCH  15  18
HETATM   18  C   UNL     1     -10.727  18.652  66.889  1.00  0.00    -0.367 C  
BRANCH  18  19
HETATM   19  C   UNL     1      -9.799  19.649  67.556  1.00  0.00    -0.378 C  
HETATM   20  N   UNL     1      -9.625  20.871  66.985  1.00  0.00    -0.688 N  
HETATM   21  O   UNL     1      -9.207  19.377  68.598  1.00  0.00    -0.360 OA 
HETATM   22  H2  UNL     1     -10.112  21.114  66.122  1.00  0.00     0.000 HD 
HETATM   23  H1  UNL     1      -9.001  21.541  67.434  1.00  0.00     0.000 HD 
ENDBRANCH  18  19
ENDBRANCH  15  18
ENDBRANCH  11  12
ENDBRANCH  10  11
ENDBRANCH   7  10
ENDBRANCH   6   7
ENDBRANCH   4   6
ENDBRANCH   2   4
TORSDOF 8
ENDMDL
MODEL      200
REMARK 921   NORMALIZED FREE ENERGY PREDICTED BY IDOCK:   -3.23 KCAL/MOL
REMARK 922        TOTAL FREE ENERGY PREDICTED BY IDOCK:   -5.31 KCAL/MOL
REMARK 923 INTER-LIGAND FREE ENERGY PREDICTED BY IDOCK:   -4.73 KCAL/MOL
REMARK 924 INTRA-LIGAND FREE ENERGY PREDICTED BY IDOCK:   -0.58 KCAL/MOL
REMARK 927      BINDING AFFINITY PREDICTED BY RF-SCORE:    0.00 PKD
ROOT
HETATM    1  C   UNL     1      -9.821   9.544  65.602  1.00  0.00    -0.343 C  
HETATM    2  C   UNL     1      -9.314  10.677  64.708  1.00  0.00    -0.233 C  
HETATM    3  C   UNL     1     -10.498  11.526  64.238  1.00  0.00    -0.393 C  
ENDROOT
BRANCH   2   4
HETATM    4  N   UNL     1      -8.344  11.468  65.471  1.00  0.00    -0.354 NA 
HETATM    5  H   UNL     1      -8.099  12.322  64.969  1.00  0.00     0.000 HD 
BRANCH   4   6
HETATM    6  C   UNL     1      -8.787  11.778  66.837  1.00  0.00    -0.191 C  
BRANCH   6   7
HETATM    7  C   UNL     1      -8.550  13.267  67.153  1.00  0.00    -0.193 C  
HETATM    8  H   UNL     1      -9.660  14.876  67.408  1.00  0.00     0.000 HD 
HETATM    9  O   UNL     1      -9.806  13.958  67.213  1.00  0.00    -0.235 OA 
BRANCH   7  10
HETATM   10  C   UNL     1      -7.797  13.437  68.479  1.00  0.00    -0.115 C  
BRANCH  10  11
HETATM   11  O   UNL     1      -6.616  14.222  68.260  1.00  0.00    -0.091 OA 
BRANCH  11  12
HETATM   12  C   UNL     1      -6.790  15.580  68.199  1.00  0.00    -0.124 A  
HETATM   13  C   UNL     1      -7.616  16.333  69.033  1.00  0.00    -0.219 A  
HETATM   14  C   UNL     1      -7.752  17.712  68.837  1.00  0.00    -0.205 A  
HETATM   15  C   UNL     1      -7.069  18.360  67.801  1.00  0.00    -0.221 A  
HETATM   16  C   UNL     1      -6.204  17.609  66.995  1.00  0.00    -0.185 A  
HETATM   17  C   UNL     1      -6.073  16.229  67.191  1.00  0.00    -0.148 A  
BRANCH  15  18
HETATM   18  C   UNL     1      -7.318  19.826  67.526  1.00  0.00    -0.298 C  
BRANCH  18  19
HETATM   19  C   UNL     1      -8.504  20.204  66.660  1.00  0.00    -0.282 C  
HETATM   20  N   UNL     1      -9.565  20.832  67.235  1.00  0.00    -0.625 N  
HETATM   21  O   UNL     1      -8.525  19.959  65.456  1.00  0.00    -0.276 OA 
HETATM   22  H2  UNL     1      -9.562  21.045  68.232  1.00  0.00     0.000 HD 
HETATM   23  H1  UNL     1     -10.363  21.086  66.652  1.00  0.00     0.000 HD 
ENDBRANCH  18  19
ENDBRANCH  15  18
ENDBRANCH  11  12
ENDBRANCH  10  11
ENDBRANCH   7  10
ENDBRANCH   6   7
ENDBRANCH   4   6
ENDBRANCH   2   4
TORSDOF 8
ENDMDL
MODEL      201
REMARK 921   NORMALIZED FREE ENERGY PREDICTED BY IDOCK:   -3.21 KCAL/MOL
REMARK 922        TOTAL FREE ENERGY PREDICTED BY IDOCK:   -5.28 KCAL/MOL
REMARK 923 INTER-LIGAND FREE ENERGY PREDICTED BY IDOCK:   -4.40 KCAL/MOL
REMARK 924 INTRA-LIGAND FREE ENERGY PREDICTED BY IDOCK:   -0.89 KCAL/MOL
REMARK 927      BINDING AFFINITY PREDICTED BY RF-SCORE:    0.00 PKD
ROOT
HETATM    1  C   UNL     1      -7.822   3.474  64.046  1.00  0.00    -0.081 C  
HETATM    2  C   UNL     1      -9.031   4.312  63.625  1.00  0.00    -0.138 C  
HETATM    3  C   UNL     1     -10.317   3.626  64.093  1.00  0.00    -0.250 C  
ENDROOT
BRANCH   2   4
HETATM    4  N   UNL     1      -8.886   5.652  64.203  1.00  0.00    -0.342 NA 
HETATM    5  H   UNL     1      -9.526   5.778  64.987  1.00  0.00     0.000 HD 
BRANCH   4   6
HETATM    6  C   UNL     1      -7.508   5.973  64.598  1.00  0.00    -0.080 C  
BRANCH   6   7
HETATM    7  C   UNL     1      -7.503   7.056  65.693  1.00  0.00    -0.085 C  
HETATM    8  H   UNL     1      -8.684   8.530  66.262  1.00  0.00     0.000 HD 
HETATM    9  O   UNL     1      -8.686   7.861  65.586  1.00  0.00    -0.156 OA 
BRANCH   7  10
HETATM   10  C   UNL     1      -7.424   6.428  67.091  1.00  0.00    -0.084 C  
BRANCH  10  11
HETATM   11  O   UNL     1      -8.454   5.440  67.229  1.00  0.00    -0.108 OA 
BRANCH  11  12
HETATM   12  C   UNL     1      -9.305   5.592  68.293  1.00  0.00    -0.112 A  
HETATM   13  C   UNL     1     -10.573   6.170  68.245  1.00  0.00    -0.324 A  
HETATM   14  C   UNL     1     -11.329   6.318  69.413  1.00  0.00    -0.448 A  
HETATM   15  C   UNL     1     -10.827   5.895  70.650  1.00  0.00    -0.363 A  
HETATM   16  C   UNL     1      -9.573   5.272  70.688  1.00  0.00    -0.235 A  
HETATM   17  C   UNL     1      -8.817   5.129  69.518  1.00  0.00    -0.120 A  
BRANCH  15  18
HETATM   18  C   UNL     1     -11.601   6.170  71.919  1.00  0.00    -0.352 C  
BRANCH  18  19
HETATM   19  C   UNL     1     -10.992   7.106  72.945  1.00  0.00    -0.320 C  
HETATM   20  N   UNL     1     -10.629   6.608  74.157  1.00  0.00    -0.452 N  
HETATM   21  O   UNL     1     -10.818   8.298  72.703  1.00  0.00    -0.345 OA 
HETATM   22  H2  UNL     1     -10.764   5.621  74.373  1.00  0.00     0.000 HD 
HETATM   23  H1  UNL     1     -10.219   7.239  74.847  1.00  0.00     0.000 HD 
ENDBRANCH  18  19
ENDBRANCH  15  18
ENDBRANCH  11  12
ENDBRANCH  10  11
ENDBRANCH   7  10
ENDBRANCH   6   7
ENDBRANCH   4   6
ENDBRANCH   2   4
TORSDOF 8
ENDMDL
MODEL      202
REMARK 921   NORMALIZED FREE ENERGY PREDICTED BY IDOCK:   -3.21 KCAL/MOL
REMARK 922        TOTAL FREE ENERGY PREDICTED BY IDOCK:   -5.28 KCAL/MOL
REMARK 923 INTER-LIGAND FREE ENERGY PREDICTED BY IDOCK:   -4.28 KCAL/MOL
REMARK 924 INTRA-LIGAND FREE ENERGY PREDICTED BY IDOCK:   -0.99 KCAL/MOL
REMARK 927      BINDING AFFINITY PREDICTED BY RF-SCORE:    0.00 PKD
ROOT
HETATM    1  C   UNL     1      -9.488  11.430  63.102  1.00  0.00    -0.361 C  
HETATM    2  C   UNL     1     -10.321  10.761  64.197  1.00  0.00    -0.311 C  
HETATM    3  C   UNL     1      -9.415   9.887  65.067  1.00  0.00    -0.343 C  
ENDROOT
BRANCH   2   4
HETATM    4  N   UNL     1     -10.982  11.811  64.979  1.00  0.00    -0.306 NA 
HETATM    5  H   UNL     1     -10.980  11.577  65.972  1.00  0.00     0.000 HD 
BRANCH   4   6
HETATM    6  C   UNL     1     -10.417  13.149  64.757  1.00  0.00    -0.372 C  
BRANCH   6   7
HETATM    7  C   UNL     1     -10.750  14.074  65.943  1.00  0.00    -0.293 C  
HETATM    8  H   UNL     1     -12.086  15.468  66.347  1.00  0.00     0.000 HD 
HETATM    9  O   UNL     1     -11.880  14.897  65.615  1.00  0.00    -0.265 OA 
BRANCH   7  10
HETATM   10  C   UNL     1     -11.046  13.262  67.211  1.00  0.00    -0.279 C  
BRANCH  10  11
HETATM   11  O   UNL     1      -9.814  12.950  67.876  1.00  0.00    -0.213 OA 
BRANCH  11  12
HETATM   12  C   UNL     1      -9.688  11.671  68.355  1.00  0.00    -0.199 A  
HETATM   13  C   UNL     1      -8.557  11.142  68.975  1.00  0.00    -0.033 A  
HETATM   14  C   UNL     1      -8.530   9.802  69.374  1.00  0.00    -0.161 A  
HETATM   15  C   UNL     1      -9.632   8.966  69.156  1.00  0.00    -0.162 A  
HETATM   16  C   UNL     1     -10.784   9.513  68.576  1.00  0.00    -0.222 A  
HETATM   17  C   UNL     1     -10.806  10.854  68.173  1.00  0.00    -0.283 A  
BRANCH  15  18
HETATM   18  C   UNL     1      -9.547   7.492  69.482  1.00  0.00    -0.156 C  
BRANCH  18  19
HETATM   19  C   UNL     1      -8.569   6.638  68.699  1.00  0.00    -0.125 C  
HETATM   20  N   UNL     1      -7.460   6.162  69.328  1.00  0.00    -0.087 N  
HETATM   21  O   UNL     1      -8.758   6.364  67.517  1.00  0.00    -0.115 OA 
HETATM   22  H2  UNL     1      -7.290   6.377  70.310  1.00  0.00     0.000 HD 
HETATM   23  H1  UNL     1      -6.803   5.587  68.801  1.00  0.00     0.000 HD 
ENDBRANCH  18  19
ENDBRANCH  15  18
ENDBRANCH  11  12
ENDBRANCH  10  11
ENDBRANCH   7  10
ENDBRANCH   6   7
ENDBRANCH   4   6
ENDBRANCH   2   4
TORSDOF 8
ENDMDL
MODEL      203
REMARK 921   NORMALIZED FREE ENERGY PREDICTED BY IDOCK:   -3.20 KCAL/MOL
REMARK 922        TOTAL FREE ENERGY PREDICTED BY IDOCK:   -5.27 KCAL/MOL
REMARK 923 INTER-LIGAND FREE ENERGY PREDICTED BY IDOCK:   -4.73 KCAL/MOL
REMARK 924 INTRA-LIGAND FREE ENERGY PREDICTED BY IDOCK:   -0.54 KCAL/MOL
REMARK 927      BINDING AFFINITY PREDICTED BY RF-SCORE:    0.00 PKD
ROOT
HETATM    1  C   UNL     1      -6.372   8.189  70.489  1.00  0.00    -0.036 C  
HETATM    2  C   UNL     1      -7.044   6.845  70.200  1.00  0.00    -0.071 C  
HETATM    3  C   UNL     1      -6.925   5.940  71.429  1.00  0.00    -0.072 C  
ENDROOT
BRANCH   2   4
HETATM    4  N   UNL     1      -8.442   7.097  69.840  1.00  0.00    -0.139 NA 
HETATM    5  H   UNL     1      -8.552   8.034  69.451  1.00  0.00     0.000 HD 
BRANCH   4   6
HETATM    6  C   UNL     1      -9.003   6.087  68.932  1.00  0.00    -0.123 C  
BRANCH   6   7
HETATM    7  C   UNL     1      -8.201   6.044  67.618  1.00  0.00    -0.109 C  
HETATM    8  H   UNL     1      -7.239   4.681  66.567  1.00  0.00     0.000 HD 
HETATM    9  O   UNL     1      -7.734   4.708  67.377  1.00  0.00    -0.088 OA 
BRANCH   7  10
HETATM   10  C   UNL     1      -9.054   6.519  66.435  1.00  0.00    -0.155 C  
BRANCH  10  11
HETATM   11  O   UNL     1      -8.266   7.370  65.590  1.00  0.00    -0.125 OA 
BRANCH  11  12
HETATM   12  C   UNL     1      -8.859   8.535  65.175  1.00  0.00    -0.071 A  
HETATM   13  C   UNL     1      -8.644   9.166  63.951  1.00  0.00    -0.188 A  
HETATM   14  C   UNL     1      -9.271  10.384  63.663  1.00  0.00    -0.310 A  
HETATM   15  C   UNL     1     -10.118  10.993  64.597  1.00  0.00    -0.370 A  
HETATM   16  C   UNL     1     -10.368  10.333  65.807  1.00  0.00    -0.236 A  
HETATM   17  C   UNL     1      -9.737   9.117  66.094  1.00  0.00    -0.357 A  
BRANCH  15  18
HETATM   18  C   UNL     1     -10.692  12.365  64.323  1.00  0.00    -0.390 C  
BRANCH  18  19
HETATM   19  C   UNL     1     -12.198  12.505  64.216  1.00  0.00    -0.452 C  
HETATM   20  N   UNL     1     -12.862  13.220  65.164  1.00  0.00    -0.706 N  
HETATM   21  O   UNL     1     -12.827  11.993  63.293  1.00  0.00    -0.732 OA 
HETATM   22  H2  UNL     1     -12.354  13.655  65.934  1.00  0.00     0.000 HD 
HETATM   23  H1  UNL     1     -13.875  13.315  65.091  1.00  0.00     0.000 HD 
ENDBRANCH  18  19
ENDBRANCH  15  18
ENDBRANCH  11  12
ENDBRANCH  10  11
ENDBRANCH   7  10
ENDBRANCH   6   7
ENDBRANCH   4   6
ENDBRANCH   2   4
TORSDOF 8
ENDMDL
MODEL      204
REMARK 921   NORMALIZED FREE ENERGY PREDICTED BY IDOCK:   -3.19 KCAL/MOL
REMARK 922        TOTAL FREE ENERGY PREDICTED BY IDOCK:   -5.25 KCAL/MOL
REMARK 923 INTER-LIGAND FREE ENERGY PREDICTED BY IDOCK:   -4.42 KCAL/MOL
REMARK 924 INTRA-LIGAND FREE ENERGY PREDICTED BY IDOCK:   -0.83 KCAL/MOL
REMARK 927      BINDING AFFINITY PREDICTED BY RF-SCORE:    0.00 PKD
ROOT
HETATM    1  C   UNL     1     -10.327   3.931  64.334  1.00  0.00    -0.242 C  
HETATM    2  C   UNL     1      -9.355   3.528  65.444  1.00  0.00    -0.158 C  
HETATM    3  C   UNL     1      -8.926   2.072  65.244  1.00  0.00    -0.126 C  
ENDROOT
BRANCH   2   4
HETATM    4  N   UNL     1      -8.210   4.443  65.410  1.00  0.00    -0.109 NA 
HETATM    5  H   UNL     1      -7.335   3.925  65.329  1.00  0.00     0.000 HD 
BRANCH   4   6
HETATM    6  C   UNL     1      -8.309   5.464  64.358  1.00  0.00    -0.129 C  
BRANCH   6   7
HETATM    7  C   UNL     1      -7.597   6.758  64.798  1.00  0.00    -0.104 C  
HETATM    8  H   UNL     1      -7.503   8.627  64.179  1.00  0.00     0.000 HD 
HETATM    9  O   UNL     1      -7.942   7.829  63.908  1.00  0.00    -0.135 OA 
BRANCH   7  10
HETATM   10  C   UNL     1      -7.973   7.133  66.237  1.00  0.00    -0.110 C  
BRANCH  10  11
HETATM   11  O   UNL     1      -9.360   6.840  66.460  1.00  0.00    -0.161 OA 
BRANCH  11  12
HETATM   12  C   UNL     1      -9.810   6.967  67.749  1.00  0.00    -0.136 A  
HETATM   13  C   UNL     1     -10.805   6.192  68.343  1.00  0.00    -0.382 A  
HETATM   14  C   UNL     1     -11.216   6.453  69.655  1.00  0.00    -0.483 A  
HETATM   15  C   UNL     1     -10.642   7.496  70.392  1.00  0.00    -0.236 A  
HETATM   16  C   UNL     1      -9.610   8.241  69.809  1.00  0.00    -0.171 A  
HETATM   17  C   UNL     1      -9.204   7.981  68.495  1.00  0.00    -0.135 A  
BRANCH  15  18
HETATM   18  C   UNL     1     -11.178   7.844  71.763  1.00  0.00    -0.305 C  
BRANCH  18  19
HETATM   19  C   UNL     1     -12.395   8.744  71.852  1.00  0.00    -0.363 C  
HETATM   20  N   UNL     1     -13.385   8.427  72.729  1.00  0.00    -0.624 N  
HETATM   21  O   UNL     1     -12.502   9.750  71.156  1.00  0.00    -0.314 OA 
HETATM   22  H2  UNL     1     -13.310   7.597  73.317  1.00  0.00     0.000 HD 
HETATM   23  H1  UNL     1     -14.204   9.033  72.789  1.00  0.00     0.000 HD 
ENDBRANCH  18  19
ENDBRANCH  15  18
ENDBRANCH  11  12
ENDBRANCH  10  11
ENDBRANCH   7  10
ENDBRANCH   6   7
ENDBRANCH   4   6
ENDBRANCH   2   4
TORSDOF 8
ENDMDL
MODEL      205
REMARK 921   NORMALIZED FREE ENERGY PREDICTED BY IDOCK:   -3.18 KCAL/MOL
REMARK 922        TOTAL FREE ENERGY PREDICTED BY IDOCK:   -5.24 KCAL/MOL
REMARK 923 INTER-LIGAND FREE ENERGY PREDICTED BY IDOCK:   -4.87 KCAL/MOL
REMARK 924 INTRA-LIGAND FREE ENERGY PREDICTED BY IDOCK:   -0.37 KCAL/MOL
REMARK 927      BINDING AFFINITY PREDICTED BY RF-SCORE:    0.00 PKD
ROOT
HETATM    1  C   UNL     1     -11.205  16.654  68.500  1.00  0.00    -0.239 C  
HETATM    2  C   UNL     1     -11.303  15.438  69.422  1.00  0.00    -0.307 C  
HETATM    3  C   UNL     1     -11.816  15.877  70.796  1.00  0.00    -0.423 C  
ENDROOT
BRANCH   2   4
HETATM    4  N   UNL     1     -12.192  14.455  68.795  1.00  0.00    -0.567 NA 
HETATM    5  H   UNL     1     -12.131  14.509  67.779  1.00  0.00     0.000 HD 
BRANCH   4   6
HETATM    6  C   UNL     1     -11.962  13.080  69.258  1.00  0.00    -0.278 C  
BRANCH   6   7
HETATM    7  C   UNL     1     -11.122  12.301  68.228  1.00  0.00    -0.240 C  
HETATM    8  H   UNL     1      -9.210  12.099  67.791  1.00  0.00     0.000 HD 
HETATM    9  O   UNL     1      -9.729  12.579  68.427  1.00  0.00    -0.221 OA 
BRANCH   7  10
HETATM   10  C   UNL     1     -11.374  10.791  68.338  1.00  0.00    -0.302 C  
BRANCH  10  11
HETATM   11  O   UNL     1     -10.547  10.099  67.391  1.00  0.00    -0.238 OA 
BRANCH  11  12
HETATM   12  C   UNL     1     -10.381   8.754  67.597  1.00  0.00    -0.254 A  
HETATM   13  C   UNL     1     -10.407   7.770  66.610  1.00  0.00    -0.262 A  
HETATM   14  C   UNL     1     -10.278   6.420  66.952  1.00  0.00    -0.277 A  
HETATM   15  C   UNL     1     -10.126   6.030  68.288  1.00  0.00    -0.194 A  
HETATM   16  C   UNL     1     -10.052   7.024  69.272  1.00  0.00    -0.178 A  
HETATM   17  C   UNL     1     -10.186   8.374  68.927  1.00  0.00    -0.223 A  
BRANCH  15  18
HETATM   18  C   UNL     1     -10.108   4.564  68.657  1.00  0.00    -0.024 C  
BRANCH  18  19
HETATM   19  C   UNL     1      -9.150   3.649  67.919  1.00  0.00    -0.155 C  
HETATM   20  N   UNL     1      -9.617   2.475  67.415  1.00  0.00    -0.404 N  
HETATM   21  O   UNL     1      -7.968   3.946  67.765  1.00  0.00    -0.087 OA 
HETATM   22  H2  UNL     1     -10.597   2.215  67.531  1.00  0.00     0.000 HD 
HETATM   23  H1  UNL     1      -8.972   1.860  66.919  1.00  0.00     0.000 HD 
ENDBRANCH  18  19
ENDBRANCH  15  18
ENDBRANCH  11  12
ENDBRANCH  10  11
ENDBRANCH   7  10
ENDBRANCH   6   7
ENDBRANCH   4   6
ENDBRANCH   2   4
TORSDOF 8
ENDMDL
MODEL      206
REMARK 921   NORMALIZED FREE ENERGY PREDICTED BY IDOCK:   -3.18 KCAL/MOL
REMARK 922        TOTAL FREE ENERGY PREDICTED BY IDOCK:   -5.23 KCAL/MOL
REMARK 923 INTER-LIGAND FREE ENERGY PREDICTED BY IDOCK:   -4.77 KCAL/MOL
REMARK 924 INTRA-LIGAND FREE ENERGY PREDICTED BY IDOCK:   -0.46 KCAL/MOL
REMARK 927      BINDING AFFINITY PREDICTED BY RF-SCORE:    0.00 PKD
ROOT
HETATM    1  C   UNL     1     -10.242   5.554  68.461  1.00  0.00    -0.250 C  
HETATM    2  C   UNL     1      -9.363   6.319  69.451  1.00  0.00    -0.140 C  
HETATM    3  C   UNL     1      -8.609   5.325  70.339  1.00  0.00    -0.120 C  
ENDROOT
BRANCH   2   4
HETATM    4  N   UNL     1      -8.448   7.175  68.690  1.00  0.00    -0.125 NA 
HETATM    5  H   UNL     1      -8.494   6.957  67.694  1.00  0.00     0.000 HD 
BRANCH   4   6
HETATM    6  C   UNL     1      -8.662   8.610  68.919  1.00  0.00    -0.131 C  
BRANCH   6   7
HETATM    7  C   UNL     1      -9.245   9.273  67.656  1.00  0.00    -0.124 C  
HETATM    8  H   UNL     1     -11.020   9.455  66.818  1.00  0.00     0.000 HD 
HETATM    9  O   UNL     1     -10.661   9.046  67.597  1.00  0.00    -0.257 OA 
BRANCH   7  10
HETATM   10  C   UNL     1      -8.957  10.780  67.641  1.00  0.00    -0.140 C  
BRANCH  10  11
HETATM   11  O   UNL     1     -10.196  11.503  67.639  1.00  0.00    -0.181 OA 
BRANCH  11  12
HETATM   12  C   UNL     1     -10.171  12.753  67.076  1.00  0.00    -0.241 A  
HETATM   13  C   UNL     1      -9.059  13.590  67.002  1.00  0.00    -0.248 A  
HETATM   14  C   UNL     1      -9.171  14.870  66.448  1.00  0.00    -0.317 A  
HETATM   15  C   UNL     1     -10.400  15.337  65.965  1.00  0.00    -0.327 A  
HETATM   16  C   UNL     1     -11.504  14.476  65.997  1.00  0.00    -0.348 A  
HETATM   17  C   UNL     1     -11.389  13.197  66.555  1.00  0.00    -0.350 A  
BRANCH  15  18
HETATM   18  C   UNL     1     -10.535  16.762  65.480  1.00  0.00    -0.254 C  
BRANCH  18  19
HETATM   19  C   UNL     1     -10.145  17.883  66.425  1.00  0.00    -0.369 C  
HETATM   20  N   UNL     1     -10.764  17.971  67.633  1.00  0.00    -0.398 N  
HETATM   21  O   UNL     1      -9.283  18.705  66.125  1.00  0.00    -0.453 OA 
HETATM   22  H2  UNL     1     -11.480  17.295  67.899  1.00  0.00     0.000 HD 
HETATM   23  H1  UNL     1     -10.501  18.725  68.268  1.00  0.00     0.000 HD 
ENDBRANCH  18  19
ENDBRANCH  15  18
ENDBRANCH  11  12
ENDBRANCH  10  11
ENDBRANCH   7  10
ENDBRANCH   6   7
ENDBRANCH   4   6
ENDBRANCH   2   4
TORSDOF 8
ENDMDL
MODEL      207
REMARK 921   NORMALIZED FREE ENERGY PREDICTED BY IDOCK:   -3.15 KCAL/MOL
REMARK 922        TOTAL FREE ENERGY PREDICTED BY IDOCK:   -5.20 KCAL/MOL
REMARK 923 INTER-LIGAND FREE ENERGY PREDICTED BY IDOCK:   -5.08 KCAL/MOL
REMARK 924 INTRA-LIGAND FREE ENERGY PREDICTED BY IDOCK:   -0.12 KCAL/MOL
REMARK 927      BINDING AFFINITY PREDICTED BY RF-SCORE:    0.00 PKD
ROOT
HETATM    1  C   UNL     1      -9.538   9.476  70.736  1.00  0.00    -0.261 C  
HETATM    2  C   UNL     1     -10.895   8.798  70.544  1.00  0.00    -0.233 C  
HETATM    3  C   UNL     1     -11.983   9.626  71.233  1.00  0.00    -0.462 C  
ENDROOT
BRANCH   2   4
HETATM    4  N   UNL     1     -11.142   8.661  69.105  1.00  0.00    -0.426 NA 
HETATM    5  H   UNL     1     -11.703   9.440  68.760  1.00  0.00     0.000 HD 
BRANCH   4   6
HETATM    6  C   UNL     1      -9.914   8.512  68.312  1.00  0.00    -0.184 C  
BRANCH   6   7
HETATM    7  C   UNL     1      -9.599   9.821  67.562  1.00  0.00    -0.150 C  
HETATM    8  H   UNL     1      -8.854  10.327  65.808  1.00  0.00     0.000 HD 
HETATM    9  O   UNL     1      -9.049   9.520  66.271  1.00  0.00    -0.149 OA 
BRANCH   7  10
HETATM   10  C   UNL     1     -10.858  10.684  67.405  1.00  0.00    -0.296 C  
BRANCH  10  11
HETATM   11  O   UNL     1     -10.776  11.429  66.181  1.00  0.00    -0.262 OA 
BRANCH  11  12
HETATM   12  C   UNL     1     -10.406  12.744  66.293  1.00  0.00    -0.258 A  
HETATM   13  C   UNL     1      -9.156  13.206  66.703  1.00  0.00    -0.180 A  
HETATM   14  C   UNL     1      -8.915  14.578  66.830  1.00  0.00    -0.267 A  
HETATM   15  C   UNL     1      -9.921  15.512  66.554  1.00  0.00    -0.283 A  
HETATM   16  C   UNL     1     -11.161  15.046  66.097  1.00  0.00    -0.329 A  
HETATM   17  C   UNL     1     -11.401  13.673  65.975  1.00  0.00    -0.322 A  
BRANCH  15  18
HETATM   18  C   UNL     1      -9.686  16.983  66.809  1.00  0.00    -0.276 C  
BRANCH  18  19
HETATM   19  C   UNL     1      -8.293  17.430  67.210  1.00  0.00    -0.207 C  
HETATM   20  N   UNL     1      -8.047  17.729  68.514  1.00  0.00    -0.293 N  
HETATM   21  O   UNL     1      -7.386  17.523  66.386  1.00  0.00    -0.242 OA 
HETATM   22  H2  UNL     1      -8.788  17.654  69.211  1.00  0.00     0.000 HD 
HETATM   23  H1  UNL     1      -7.110  18.029  68.783  1.00  0.00     0.000 HD 
ENDBRANCH  18  19
ENDBRANCH  15  18
ENDBRANCH  11  12
ENDBRANCH  10  11
ENDBRANCH   7  10
ENDBRANCH   6   7
ENDBRANCH   4   6
ENDBRANCH   2   4
TORSDOF 8
ENDMDL
MODEL      208
REMARK 921   NORMALIZED FREE ENERGY PREDICTED BY IDOCK:   -3.13 KCAL/MOL
REMARK 922        TOTAL FREE ENERGY PREDICTED BY IDOCK:   -5.16 KCAL/MOL
REMARK 923 INTER-LIGAND FREE ENERGY PREDICTED BY IDOCK:   -4.51 KCAL/MOL
REMARK 924 INTRA-LIGAND FREE ENERGY PREDICTED BY IDOCK:   -0.65 KCAL/MOL
REMARK 927      BINDING AFFINITY PREDICTED BY RF-SCORE:    0.00 PKD
ROOT
HETATM    1  C   UNL     1      -9.995  11.139  63.747  1.00  0.00    -0.401 C  
HETATM    2  C   UNL     1     -10.953  12.329  63.683  1.00  0.00    -0.471 C  
HETATM    3  C   UNL     1     -12.146  12.075  64.608  1.00  0.00    -0.313 C  
ENDROOT
BRANCH   2   4
HETATM    4  N   UNL     1     -10.215  13.537  64.062  1.00  0.00    -0.713 NA 
HETATM    5  H   UNL     1     -10.002  14.104  63.241  1.00  0.00     0.000 HD 
BRANCH   4   6
HETATM    6  C   UNL     1     -10.894  14.340  65.088  1.00  0.00    -0.378 C  
BRANCH   6   7
HETATM    7  C   UNL     1      -9.893  14.783  66.172  1.00  0.00    -0.312 C  
HETATM    8  H   UNL     1      -9.479  16.443  67.152  1.00  0.00     0.000 HD 
HETATM    9  O   UNL     1     -10.096  16.169  66.484  1.00  0.00    -0.266 OA 
BRANCH   7  10
HETATM   10  C   UNL     1     -10.042  13.935  67.441  1.00  0.00    -0.244 C  
BRANCH  10  11
HETATM   11  O   UNL     1      -8.741  13.619  67.959  1.00  0.00    -0.159 OA 
BRANCH  11  12
HETATM   12  C   UNL     1      -8.409  12.289  67.999  1.00  0.00    -0.165 A  
HETATM   13  C   UNL     1      -7.281  11.715  67.415  1.00  0.00    -0.128 A  
HETATM   14  C   UNL     1      -7.077  10.332  67.479  1.00  0.00    -0.086 A  
HETATM   15  C   UNL     1      -8.001   9.500  68.122  1.00  0.00    -0.094 A  
HETATM   16  C   UNL     1      -9.109  10.085  68.748  1.00  0.00    -0.148 A  
HETATM   17  C   UNL     1      -9.312  11.469  68.679  1.00  0.00    -0.142 A  
BRANCH  15  18
HETATM   18  C   UNL     1      -7.831   7.998  68.080  1.00  0.00    -0.126 C  
BRANCH  18  19
HETATM   19  C   UNL     1      -8.471   7.234  66.937  1.00  0.00    -0.119 C  
HETATM   20  N   UNL     1      -9.765   6.833  67.056  1.00  0.00    -0.149 N  
HETATM   21  O   UNL     1      -7.849   6.975  65.909  1.00  0.00    -0.096 OA 
HETATM   22  H2  UNL     1     -10.297   7.043  67.900  1.00  0.00     0.000 HD 
HETATM   23  H1  UNL     1     -10.195   6.319  66.286  1.00  0.00     0.000 HD 
ENDBRANCH  18  19
ENDBRANCH  15  18
ENDBRANCH  11  12
ENDBRANCH  10  11
ENDBRANCH   7  10
ENDBRANCH   6   7
ENDBRANCH   4   6
ENDBRANCH   2   4
TORSDOF 8
ENDMDL
MODEL      209
REMARK 921   NORMALIZED FREE ENERGY PREDICTED BY IDOCK:   -3.12 KCAL/MOL
REMARK 922        TOTAL FREE ENERGY PREDICTED BY IDOCK:   -5.15 KCAL/MOL
REMARK 923 INTER-LIGAND FREE ENERGY PREDICTED BY IDOCK:   -4.80 KCAL/MOL
REMARK 924 INTRA-LIGAND FREE ENERGY PREDICTED BY IDOCK:   -0.35 KCAL/MOL
REMARK 927      BINDING AFFINITY PREDICTED BY RF-SCORE:    0.00 PKD
ROOT
HETATM    1  C   UNL     1      -7.247   3.528  68.575  1.00  0.00    -0.050 C  
HETATM    2  C   UNL     1      -8.757   3.723  68.432  1.00  0.00    -0.102 C  
HETATM    3  C   UNL     1      -9.394   3.822  69.821  1.00  0.00    -0.245 C  
ENDROOT
BRANCH   2   4
HETATM    4  N   UNL     1      -8.993   4.931  67.636  1.00  0.00    -0.107 NA 
HETATM    5  H   UNL     1      -9.195   4.691  66.665  1.00  0.00     0.000 HD 
BRANCH   4   6
HETATM    6  C   UNL     1     -10.042   5.800  68.187  1.00  0.00    -0.165 C  
BRANCH   6   7
HETATM    7  C   UNL     1      -9.427   7.099  68.740  1.00  0.00    -0.141 C  
HETATM    8  H   UNL     1      -7.951   8.312  68.251  1.00  0.00     0.000 HD 
HETATM    9  O   UNL     1      -8.331   7.511  67.910  1.00  0.00    -0.122 OA 
BRANCH   7  10
HETATM   10  C   UNL     1     -10.474   8.218  68.815  1.00  0.00    -0.177 C  
BRANCH  10  11
HETATM   11  O   UNL     1     -10.613   8.829  67.525  1.00  0.00    -0.267 OA 
BRANCH  11  12
HETATM   12  C   UNL     1     -10.932  10.162  67.513  1.00  0.00    -0.255 A  
HETATM   13  C   UNL     1     -11.592  10.850  68.530  1.00  0.00    -0.360 A  
HETATM   14  C   UNL     1     -11.910  12.204  68.379  1.00  0.00    -0.360 A  
HETATM   15  C   UNL     1     -11.576  12.892  67.206  1.00  0.00    -0.416 A  
HETATM   16  C   UNL     1     -10.870  12.211  66.206  1.00  0.00    -0.317 A  
HETATM   17  C   UNL     1     -10.558  10.855  66.358  1.00  0.00    -0.289 A  
BRANCH  15  18
HETATM   18  C   UNL     1     -12.030  14.320  67.006  1.00  0.00    -0.463 C  
BRANCH  18  19
HETATM   19  C   UNL     1     -11.291  15.420  67.743  1.00  0.00    -0.306 C  
HETATM   20  N   UNL     1     -10.180  15.962  67.175  1.00  0.00    -0.272 N  
HETATM   21  O   UNL     1     -11.675  15.832  68.835  1.00  0.00    -0.383 OA 
HETATM   22  H2  UNL     1      -9.850  15.634  66.268  1.00  0.00     0.000 HD 
HETATM   23  H1  UNL     1      -9.683  16.702  67.672  1.00  0.00     0.000 HD 
ENDBRANCH  18  19
ENDBRANCH  15  18
ENDBRANCH  11  12
ENDBRANCH  10  11
ENDBRANCH   7  10
ENDBRANCH   6   7
ENDBRANCH   4   6
ENDBRANCH   2   4
TORSDOF 8
ENDMDL
MODEL      210
REMARK 921   NORMALIZED FREE ENERGY PREDICTED BY IDOCK:   -3.11 KCAL/MOL
REMARK 922        TOTAL FREE ENERGY PREDICTED BY IDOCK:   -5.14 KCAL/MOL
REMARK 923 INTER-LIGAND FREE ENERGY PREDICTED BY IDOCK:   -4.62 KCAL/MOL
REMARK 924 INTRA-LIGAND FREE ENERGY PREDICTED BY IDOCK:   -0.52 KCAL/MOL
REMARK 927      BINDING AFFINITY PREDICTED BY RF-SCORE:    0.00 PKD
ROOT
HETATM    1  C   UNL     1     -11.775  12.796  63.504  1.00  0.00    -0.597 C  
HETATM    2  C   UNL     1     -10.693  13.334  64.442  1.00  0.00    -0.415 C  
HETATM    3  C   UNL     1     -11.232  14.549  65.201  1.00  0.00    -0.367 C  
ENDROOT
BRANCH   2   4
HETATM    4  N   UNL     1     -10.294  12.255  65.351  1.00  0.00    -0.263 NA 
HETATM    5  H   UNL     1      -9.517  12.550  65.942  1.00  0.00     0.000 HD 
BRANCH   4   6
HETATM    6  C   UNL     1     -11.401  11.738  66.167  1.00  0.00    -0.280 C  
BRANCH   6   7
HETATM    7  C   UNL     1     -11.035  11.793  67.663  1.00  0.00    -0.233 C  
HETATM    8  H   UNL     1     -11.697  12.721  69.271  1.00  0.00     0.000 HD 
HETATM    9  O   UNL     1     -11.923  12.687  68.348  1.00  0.00    -0.317 OA 
BRANCH   7  10
HETATM   10  C   UNL     1     -11.104  10.398  68.299  1.00  0.00    -0.281 C  
BRANCH  10  11
HETATM   11  O   UNL     1      -9.775   9.929  68.567  1.00  0.00    -0.149 OA 
BRANCH  11  12
HETATM   12  C   UNL     1      -9.441   8.711  68.036  1.00  0.00    -0.140 A  
HETATM   13  C   UNL     1      -9.289   7.524  68.752  1.00  0.00    -0.147 A  
HETATM   14  C   UNL     1      -8.892   6.351  68.103  1.00  0.00    -0.114 A  
HETATM   15  C   UNL     1      -8.634   6.345  66.727  1.00  0.00    -0.113 A  
HETATM   16  C   UNL     1      -8.832   7.527  66.002  1.00  0.00    -0.179 A  
HETATM   17  C   UNL     1      -9.226   8.701  66.655  1.00  0.00    -0.227 A  
BRANCH  15  18
HETATM   18  C   UNL     1      -8.090   5.102  66.059  1.00  0.00    -0.109 C  
BRANCH  18  19
HETATM   19  C   UNL     1      -9.068   4.014  65.659  1.00  0.00    -0.142 C  
HETATM   20  N   UNL     1      -9.571   3.195  66.621  1.00  0.00    -0.408 N  
HETATM   21  O   UNL     1      -9.415   3.861  64.490  1.00  0.00    -0.145 OA 
HETATM   22  H2  UNL     1      -9.296   3.311  67.596  1.00  0.00     0.000 HD 
HETATM   23  H1  UNL     1     -10.229   2.463  66.351  1.00  0.00     0.000 HD 
ENDBRANCH  18  19
ENDBRANCH  15  18
ENDBRANCH  11  12
ENDBRANCH  10  11
ENDBRANCH   7  10
ENDBRANCH   6   7
ENDBRANCH   4   6
ENDBRANCH   2   4
TORSDOF 8
ENDMDL
MODEL      211
REMARK 921   NORMALIZED FREE ENERGY PREDICTED BY IDOCK:   -3.08 KCAL/MOL
REMARK 922        TOTAL FREE ENERGY PREDICTED BY IDOCK:   -5.09 KCAL/MOL
REMARK 923 INTER-LIGAND FREE ENERGY PREDICTED BY IDOCK:   -3.96 KCAL/MOL
REMARK 924 INTRA-LIGAND FREE ENERGY PREDICTED BY IDOCK:   -1.13 KCAL/MOL
REMARK 927      BINDING AFFINITY PREDICTED BY RF-SCORE:    0.00 PKD
ROOT
HETATM    1  C   UNL     1      -6.451   8.408  68.491  1.00  0.00    -0.055 C  
HETATM    2  C   UNL     1      -6.636   8.708  69.979  1.00  0.00    -0.038 C  
HETATM    3  C   UNL     1      -7.160  10.136  70.152  1.00  0.00    -0.162 C  
ENDROOT
BRANCH   2   4
HETATM    4  N   UNL     1      -7.559   7.716  70.538  1.00  0.00    -0.079 NA 
HETATM    5  H   UNL     1      -7.049   6.906  70.890  1.00  0.00     0.000 HD 
BRANCH   4   6
HETATM    6  C   UNL     1      -8.447   8.262  71.574  1.00  0.00    -0.140 C  
BRANCH   6   7
HETATM    7  C   UNL     1      -9.823   7.572  71.518  1.00  0.00    -0.166 C  
HETATM    8  H   UNL     1     -11.694   8.063  71.902  1.00  0.00     0.000 HD 
HETATM    9  O   UNL     1     -10.845   8.489  71.937  1.00  0.00    -0.273 OA 
BRANCH   7  10
HETATM   10  C   UNL     1     -10.128   7.062  70.103  1.00  0.00    -0.187 C  
BRANCH  10  11
HETATM   11  O   UNL     1     -11.077   7.936  69.475  1.00  0.00    -0.131 OA 
BRANCH  11  12
HETATM   12  C   UNL     1     -10.591   8.751  68.485  1.00  0.00    -0.129 A  
HETATM   13  C   UNL     1     -10.275  10.102  68.625  1.00  0.00    -0.193 A  
HETATM   14  C   UNL     1      -9.836  10.844  67.523  1.00  0.00    -0.192 A  
HETATM   15  C   UNL     1      -9.711  10.250  66.262  1.00  0.00    -0.263 A  
HETATM   16  C   UNL     1      -9.985   8.882  66.135  1.00  0.00    -0.290 A  
HETATM   17  C   UNL     1     -10.428   8.143  67.238  1.00  0.00    -0.379 A  
BRANCH  15  18
HETATM   18  C   UNL     1      -9.353  11.089  65.057  1.00  0.00    -0.250 C  
BRANCH  18  19
HETATM   19  C   UNL     1     -10.362  12.107  64.563  1.00  0.00    -0.304 C  
HETATM   20  N   UNL     1     -11.462  11.671  63.892  1.00  0.00    -0.385 N  
HETATM   21  O   UNL     1     -10.210  13.310  64.758  1.00  0.00    -0.342 OA 
HETATM   22  H2  UNL     1     -11.605  10.675  63.724  1.00  0.00     0.000 HD 
HETATM   23  H1  UNL     1     -12.142  12.356  63.559  1.00  0.00     0.000 HD 
ENDBRANCH  18  19
ENDBRANCH  15  18
ENDBRANCH  11  12
ENDBRANCH  10  11
ENDBRANCH   7  10
ENDBRANCH   6   7
ENDBRANCH   4   6
ENDBRANCH   2   4
TORSDOF 8
ENDMDL
MODEL      212
REMARK 921   NORMALIZED FREE ENERGY PREDICTED BY IDOCK:   -3.06 KCAL/MOL
REMARK 922        TOTAL FREE ENERGY PREDICTED BY IDOCK:   -5.07 KCAL/MOL
REMARK 923 INTER-LIGAND FREE ENERGY PREDICTED BY IDOCK:   -4.29 KCAL/MOL
REMARK 924 INTRA-LIGAND FREE ENERGY PREDICTED BY IDOCK:   -0.77 KCAL/MOL
REMARK 927      BINDING AFFINITY PREDICTED BY RF-SCORE:    0.00 PKD
ROOT
HETATM    1  C   UNL     1     -10.145  14.201  66.074  1.00  0.00    -0.330 C  
HETATM    2  C   UNL     1     -10.468  13.342  67.297  1.00  0.00    -0.248 C  
HETATM    3  C   UNL     1     -11.232  12.091  66.857  1.00  0.00    -0.375 C  
ENDROOT
BRANCH   2   4
HETATM    4  N   UNL     1      -9.209  13.005  67.969  1.00  0.00    -0.206 NA 
HETATM    5  H   UNL     1      -9.384  12.662  68.914  1.00  0.00     0.000 HD 
BRANCH   4   6
HETATM    6  C   UNL     1      -8.381  12.054  67.215  1.00  0.00    -0.176 C  
BRANCH   6   7
HETATM    7  C   UNL     1      -7.228  11.533  68.096  1.00  0.00    -0.080 C  
HETATM    8  H   UNL     1      -6.086  12.244  69.537  1.00  0.00     0.000 HD 
HETATM    9  O   UNL     1      -6.797  12.565  68.994  1.00  0.00    -0.101 OA 
BRANCH   7  10
HETATM   10  C   UNL     1      -7.659  10.294  68.892  1.00  0.00    -0.094 C  
BRANCH  10  11
HETATM   11  O   UNL     1      -9.007  10.468  69.353  1.00  0.00    -0.170 OA 
BRANCH  11  12
HETATM   12  C   UNL     1      -9.617   9.360  69.882  1.00  0.00    -0.212 A  
HETATM   13  C   UNL     1     -10.505   8.522  69.211  1.00  0.00    -0.224 A  
HETATM   14  C   UNL     1     -11.107   7.448  69.878  1.00  0.00    -0.208 A  
HETATM   15  C   UNL     1     -10.834   7.199  71.228  1.00  0.00    -0.254 A  
HETATM   16  C   UNL     1      -9.905   8.015  71.886  1.00  0.00    -0.251 A  
HETATM   17  C   UNL     1      -9.308   9.090  71.218  1.00  0.00    -0.324 A  
BRANCH  15  18
HETATM   18  C   UNL     1     -11.579   6.111  71.967  1.00  0.00    -0.364 C  
BRANCH  18  19
HETATM   19  C   UNL     1     -10.779   4.976  72.575  1.00  0.00    -0.212 C  
HETATM   20  N   UNL     1     -10.961   4.672  73.889  1.00  0.00    -0.293 N  
HETATM   21  O   UNL     1      -9.978   4.326  71.909  1.00  0.00    -0.174 OA 
HETATM   22  H2  UNL     1     -11.625   5.200  74.455  1.00  0.00     0.000 HD 
HETATM   23  H1  UNL     1     -10.422   3.908  74.298  1.00  0.00     0.000 HD 
ENDBRANCH  18  19
ENDBRANCH  15  18
ENDBRANCH  11  12
ENDBRANCH  10  11
ENDBRANCH   7  10
ENDBRANCH   6   7
ENDBRANCH   4   6
ENDBRANCH   2   4
TORSDOF 8
ENDMDL
MODEL      213
REMARK 921   NORMALIZED FREE ENERGY PREDICTED BY IDOCK:   -3.05 KCAL/MOL
REMARK 922        TOTAL FREE ENERGY PREDICTED BY IDOCK:   -5.06 KCAL/MOL
REMARK 923 INTER-LIGAND FREE ENERGY PREDICTED BY IDOCK:   -3.71 KCAL/MOL
REMARK 924 INTRA-LIGAND FREE ENERGY PREDICTED BY IDOCK:   -1.34 KCAL/MOL
REMARK 927      BINDING AFFINITY PREDICTED BY RF-SCORE:    0.00 PKD
ROOT
HETATM    1  C   UNL     1      -6.737   8.383  68.429  1.00  0.00    -0.064 C  
HETATM    2  C   UNL     1      -7.170   8.965  69.775  1.00  0.00    -0.055 C  
HETATM    3  C   UNL     1      -7.763  10.361  69.562  1.00  0.00    -0.159 C  
ENDROOT
BRANCH   2   4
HETATM    4  N   UNL     1      -8.138   8.048  70.384  1.00  0.00    -0.110 NA 
HETATM    5  H   UNL     1      -7.678   7.195  70.702  1.00  0.00     0.000 HD 
BRANCH   4   6
HETATM    6  C   UNL     1      -8.915   8.656  71.473  1.00  0.00    -0.234 C  
BRANCH   6   7
HETATM    7  C   UNL     1     -10.357   8.112  71.471  1.00  0.00    -0.209 C  
HETATM    8  H   UNL     1     -12.147   8.786  71.948  1.00  0.00     0.000 HD 
HETATM    9  O   UNL     1     -11.258   9.121  71.950  1.00  0.00    -0.364 OA 
BRANCH   7  10
HETATM   10  C   UNL     1     -10.775   7.664  70.064  1.00  0.00    -0.241 C  
BRANCH  10  11
HETATM   11  O   UNL     1     -11.180   8.808  69.299  1.00  0.00     0.030 OA 
BRANCH  11  12
HETATM   12  C   UNL     1     -10.673   8.901  68.029  1.00  0.00    -0.108 A  
HETATM   13  C   UNL     1     -10.075   7.865  67.313  1.00  0.00    -0.307 A  
HETATM   14  C   UNL     1      -9.546   8.097  66.039  1.00  0.00    -0.113 A  
HETATM   15  C   UNL     1      -9.602   9.371  65.461  1.00  0.00    -0.328 A  
HETATM   16  C   UNL     1     -10.246  10.398  66.162  1.00  0.00    -0.288 A  
HETATM   17  C   UNL     1     -10.770  10.164  67.439  1.00  0.00    -0.336 A  
BRANCH  15  18
HETATM   18  C   UNL     1      -8.921   9.637  64.137  1.00  0.00    -0.269 C  
BRANCH  18  19
HETATM   19  C   UNL     1      -7.406   9.680  64.104  1.00  0.00    -0.122 C  
HETATM   20  N   UNL     1      -6.766  10.765  64.618  1.00  0.00    -0.349 N  
HETATM   21  O   UNL     1      -6.747   8.758  63.628  1.00  0.00    -0.088 OA 
HETATM   22  H2  UNL     1      -7.298  11.537  65.020  1.00  0.00     0.000 HD 
HETATM   23  H1  UNL     1      -5.746  10.793  64.595  1.00  0.00     0.000 HD 
ENDBRANCH  18  19
ENDBRANCH  15  18
ENDBRANCH  11  12
ENDBRANCH  10  11
ENDBRANCH   7  10
ENDBRANCH   6   7
ENDBRANCH   4   6
ENDBRANCH   2   4
TORSDOF 8
ENDMDL
MODEL      214
REMARK 921   NORMALIZED FREE ENERGY PREDICTED BY IDOCK:   -3.04 KCAL/MOL
REMARK 922        TOTAL FREE ENERGY PREDICTED BY IDOCK:   -5.03 KCAL/MOL
REMARK 923 INTER-LIGAND FREE ENERGY PREDICTED BY IDOCK:   -4.42 KCAL/MOL
REMARK 924 INTRA-LIGAND FREE ENERGY PREDICTED BY IDOCK:   -0.61 KCAL/MOL
REMARK 927      BINDING AFFINITY PREDICTED BY RF-SCORE:    0.00 PKD
ROOT
HETATM    1  C   UNL     1     -11.309  14.795  65.655  1.00  0.00    -0.343 C  
HETATM    2  C   UNL     1     -11.998  13.447  65.437  1.00  0.00    -0.387 C  
HETATM    3  C   UNL     1     -11.955  13.085  63.950  1.00  0.00    -0.551 C  
ENDROOT
BRANCH   2   4
HETATM    4  N   UNL     1     -11.319  12.443  66.263  1.00  0.00    -0.321 NA 
HETATM    5  H   UNL     1     -11.811  11.550  66.224  1.00  0.00     0.000 HD 
BRANCH   4   6
HETATM    6  C   UNL     1      -9.899  12.271  65.925  1.00  0.00    -0.251 C  
BRANCH   6   7
HETATM    7  C   UNL     1      -9.153  11.581  67.083  1.00  0.00    -0.167 C  
HETATM    8  H   UNL     1      -9.337  11.463  69.042  1.00  0.00     0.000 HD 
HETATM    9  O   UNL     1      -9.797  11.888  68.328  1.00  0.00    -0.190 OA 
BRANCH   7  10
HETATM   10  C   UNL     1      -9.105  10.061  66.881  1.00  0.00    -0.139 C  
BRANCH  10  11
HETATM   11  O   UNL     1     -10.330   9.478  67.348  1.00  0.00    -0.224 OA 
BRANCH  11  12
HETATM   12  C   UNL     1     -10.222   8.283  68.009  1.00  0.00    -0.214 A  
HETATM   13  C   UNL     1      -9.790   7.080  67.452  1.00  0.00    -0.197 A  
HETATM   14  C   UNL     1      -9.774   5.910  68.219  1.00  0.00    -0.147 A  
HETATM   15  C   UNL     1     -10.195   5.921  69.554  1.00  0.00    -0.288 A  
HETATM   16  C   UNL     1     -10.583   7.140  70.124  1.00  0.00    -0.247 A  
HETATM   17  C   UNL     1     -10.603   8.309  69.354  1.00  0.00    -0.203 A  
BRANCH  15  18
HETATM   18  C   UNL     1     -10.286   4.630  70.335  1.00  0.00    -0.208 C  
BRANCH  18  19
HETATM   19  C   UNL     1      -9.297   4.399  71.461  1.00  0.00    -0.143 C  
HETATM   20  N   UNL     1      -8.180   3.663  71.216  1.00  0.00    -0.067 N  
HETATM   21  O   UNL     1      -9.482   4.864  72.583  1.00  0.00    -0.135 OA 
HETATM   22  H2  UNL     1      -8.010   3.272  70.289  1.00  0.00     0.000 HD 
HETATM   23  H1  UNL     1      -7.515   3.507  71.974  1.00  0.00     0.000 HD 
ENDBRANCH  18  19
ENDBRANCH  15  18
ENDBRANCH  11  12
ENDBRANCH  10  11
ENDBRANCH   7  10
ENDBRANCH   6   7
ENDBRANCH   4   6
ENDBRANCH   2   4
TORSDOF 8
ENDMDL
MODEL      215
REMARK 921   NORMALIZED FREE ENERGY PREDICTED BY IDOCK:   -3.03 KCAL/MOL
REMARK 922        TOTAL FREE ENERGY PREDICTED BY IDOCK:   -5.02 KCAL/MOL
REMARK 923 INTER-LIGAND FREE ENERGY PREDICTED BY IDOCK:   -4.75 KCAL/MOL
REMARK 924 INTRA-LIGAND FREE ENERGY PREDICTED BY IDOCK:   -0.27 KCAL/MOL
REMARK 927      BINDING AFFINITY PREDICTED BY RF-SCORE:    0.00 PKD
ROOT
HETATM    1  C   UNL     1      -6.388   4.559  69.698  1.00  0.00    -0.028 C  
HETATM    2  C   UNL     1      -6.816   5.268  70.983  1.00  0.00    -0.048 C  
HETATM    3  C   UNL     1      -5.825   6.391  71.302  1.00  0.00    -0.028 C  
ENDROOT
BRANCH   2   4
HETATM    4  N   UNL     1      -8.178   5.779  70.797  1.00  0.00    -0.121 NA 
HETATM    5  H   UNL     1      -8.602   6.012  71.694  1.00  0.00     0.000 HD 
BRANCH   4   6
HETATM    6  C   UNL     1      -8.253   6.919  69.873  1.00  0.00    -0.127 C  
BRANCH   6   7
HETATM    7  C   UNL     1      -9.285   7.947  70.376  1.00  0.00    -0.158 C  
HETATM    8  H   UNL     1      -9.484   9.139  71.934  1.00  0.00     0.000 HD 
HETATM    9  O   UNL     1      -8.848   8.504  71.624  1.00  0.00    -0.170 OA 
BRANCH   7  10
HETATM   10  C   UNL     1      -9.493   9.068  69.348  1.00  0.00    -0.159 C  
BRANCH  10  11
HETATM   11  O   UNL     1     -10.852   9.523  69.407  1.00  0.00    -0.228 OA 
BRANCH  11  12
HETATM   12  C   UNL     1     -11.168  10.599  68.619  1.00  0.00    -0.278 A  
HETATM   13  C   UNL     1     -11.146  10.623  67.226  1.00  0.00    -0.313 A  
HETATM   14  C   UNL     1     -11.439  11.803  66.532  1.00  0.00    -0.325 A  
HETATM   15  C   UNL     1     -11.754  12.980  67.222  1.00  0.00    -0.429 A  
HETATM   16  C   UNL     1     -11.822  12.941  68.620  1.00  0.00    -0.347 A  
HETATM   17  C   UNL     1     -11.524  11.760  69.311  1.00  0.00    -0.369 A  
BRANCH  15  18
HETATM   18  C   UNL     1     -11.950  14.275  66.466  1.00  0.00    -0.448 C  
BRANCH  18  19
HETATM   19  C   UNL     1     -10.729  14.961  65.885  1.00  0.00    -0.323 C  
HETATM   20  N   UNL     1      -9.495  14.467  66.177  1.00  0.00    -0.432 N  
HETATM   21  O   UNL     1     -10.831  15.946  65.158  1.00  0.00    -0.414 OA 
HETATM   22  H2  UNL     1      -9.394  13.648  66.777  1.00  0.00     0.000 HD 
HETATM   23  H1  UNL     1      -8.674  14.929  65.786  1.00  0.00     0.000 HD 
ENDBRANCH  18  19
ENDBRANCH  15  18
ENDBRANCH  11  12
ENDBRANCH  10  11
ENDBRANCH   7  10
ENDBRANCH   6   7
ENDBRANCH   4   6
ENDBRANCH   2   4
TORSDOF 8
ENDMDL
MODEL      216
REMARK 921   NORMALIZED FREE ENERGY PREDICTED BY IDOCK:   -2.98 KCAL/MOL
REMARK 922        TOTAL FREE ENERGY PREDICTED BY IDOCK:   -4.94 KCAL/MOL
REMARK 923 INTER-LIGAND FREE ENERGY PREDICTED BY IDOCK:   -4.33 KCAL/MOL
REMARK 924 INTRA-LIGAND FREE ENERGY PREDICTED BY IDOCK:   -0.61 KCAL/MOL
REMARK 927      BINDING AFFINITY PREDICTED BY RF-SCORE:    0.00 PKD
ROOT
HETATM    1  C   UNL     1     -13.655  13.668  71.939  1.00  0.00    -0.512 C  
HETATM    2  C   UNL     1     -12.777  13.380  70.720  1.00  0.00    -0.228 C  
HETATM    3  C   UNL     1     -11.959  14.627  70.373  1.00  0.00    -0.375 C  
ENDROOT
BRANCH   2   4
HETATM    4  N   UNL     1     -11.919  12.233  71.030  1.00  0.00    -0.269 NA 
HETATM    5  H   UNL     1     -11.220  12.483  71.729  1.00  0.00     0.000 HD 
BRANCH   4   6
HETATM    6  C   UNL     1     -12.668  11.039  71.446  1.00  0.00    -0.429 C  
BRANCH   6   7
HETATM    7  C   UNL     1     -11.825   9.770  71.211  1.00  0.00    -0.399 C  
HETATM    8  H   UNL     1     -12.044   7.829  71.482  1.00  0.00     0.000 HD 
HETATM    9  O   UNL     1     -12.564   8.612  71.626  1.00  0.00    -0.313 OA 
BRANCH   7  10
HETATM   10  C   UNL     1     -11.430   9.635  69.735  1.00  0.00    -0.052 C  
BRANCH  10  11
HETATM   11  O   UNL     1     -10.066  10.050  69.566  1.00  0.00    -0.201 OA 
BRANCH  11  12
HETATM   12  C   UNL     1      -9.514   9.839  68.329  1.00  0.00    -0.139 A  
HETATM   13  C   UNL     1      -8.290  10.339  67.888  1.00  0.00    -0.114 A  
HETATM   14  C   UNL     1      -7.857  10.099  66.579  1.00  0.00    -0.112 A  
HETATM   15  C   UNL     1      -8.643   9.358  65.689  1.00  0.00    -0.159 A  
HETATM   16  C   UNL     1      -9.850   8.817  66.150  1.00  0.00    -0.297 A  
HETATM   17  C   UNL     1     -10.283   9.063  67.458  1.00  0.00    -0.302 A  
BRANCH  15  18
HETATM   18  C   UNL     1      -8.221   9.207  64.245  1.00  0.00    -0.161 C  
BRANCH  18  19
HETATM   19  C   UNL     1      -6.747   9.019  63.942  1.00  0.00    -0.088 C  
HETATM   20  N   UNL     1      -6.019  10.089  63.525  1.00  0.00    -0.120 N  
HETATM   21  O   UNL     1      -6.199   7.927  64.070  1.00  0.00    -0.056 OA 
HETATM   22  H2  UNL     1      -6.458  11.004  63.417  1.00  0.00     0.000 HD 
HETATM   23  H1  UNL     1      -5.027   9.963  63.322  1.00  0.00     0.000 HD 
ENDBRANCH  18  19
ENDBRANCH  15  18
ENDBRANCH  11  12
ENDBRANCH  10  11
ENDBRANCH   7  10
ENDBRANCH   6   7
ENDBRANCH   4   6
ENDBRANCH   2   4
TORSDOF 8
ENDMDL
MODEL      217
REMARK 921   NORMALIZED FREE ENERGY PREDICTED BY IDOCK:   -2.97 KCAL/MOL
REMARK 922        TOTAL FREE ENERGY PREDICTED BY IDOCK:   -4.93 KCAL/MOL
REMARK 923 INTER-LIGAND FREE ENERGY PREDICTED BY IDOCK:   -4.00 KCAL/MOL
REMARK 924 INTRA-LIGAND FREE ENERGY PREDICTED BY IDOCK:   -0.93 KCAL/MOL
REMARK 927      BINDING AFFINITY PREDICTED BY RF-SCORE:    0.00 PKD
ROOT
HETATM    1  C   UNL     1      -9.483   3.999  65.315  1.00  0.00    -0.172 C  
HETATM    2  C   UNL     1      -9.316   5.329  66.052  1.00  0.00    -0.158 C  
HETATM    3  C   UNL     1     -10.673   5.789  66.591  1.00  0.00    -0.333 C  
ENDROOT
BRANCH   2   4
HETATM    4  N   UNL     1      -8.338   5.139  67.127  1.00  0.00    -0.107 NA 
HETATM    5  H   UNL     1      -7.911   6.029  67.388  1.00  0.00     0.000 HD 
BRANCH   4   6
HETATM    6  C   UNL     1      -8.889   4.461  68.308  1.00  0.00    -0.105 C  
BRANCH   6   7
HETATM    7  C   UNL     1      -8.898   5.415  69.518  1.00  0.00    -0.105 C  
HETATM    8  H   UNL     1      -8.481   5.299  71.441  1.00  0.00     0.000 HD 
HETATM    9  O   UNL     1      -8.475   4.711  70.695  1.00  0.00    -0.091 OA 
BRANCH   7  10
HETATM   10  C   UNL     1      -7.985   6.623  69.275  1.00  0.00    -0.111 C  
BRANCH  10  11
HETATM   11  O   UNL     1      -8.691   7.829  69.602  1.00  0.00    -0.134 OA 
BRANCH  11  12
HETATM   12  C   UNL     1      -9.132   8.581  68.545  1.00  0.00    -0.135 A  
HETATM   13  C   UNL     1     -10.332   9.289  68.495  1.00  0.00    -0.237 A  
HETATM   14  C   UNL     1     -10.699   9.980  67.334  1.00  0.00    -0.336 A  
HETATM   15  C   UNL     1      -9.874   9.970  66.203  1.00  0.00    -0.309 A  
HETATM   16  C   UNL     1      -8.648   9.297  66.273  1.00  0.00    -0.139 A  
HETATM   17  C   UNL     1      -8.285   8.603  67.434  1.00  0.00    -0.105 A  
BRANCH  15  18
HETATM   18  C   UNL     1     -10.336  10.619  64.918  1.00  0.00    -0.347 C  
BRANCH  18  19
HETATM   19  C   UNL     1     -10.711  12.088  64.948  1.00  0.00    -0.301 C  
HETATM   20  N   UNL     1      -9.833  12.981  65.479  1.00  0.00    -0.449 N  
HETATM   21  O   UNL     1     -11.784  12.486  64.502  1.00  0.00    -0.329 OA 
HETATM   22  H2  UNL     1      -8.936  12.667  65.851  1.00  0.00     0.000 HD 
HETATM   23  H1  UNL     1     -10.085  13.969  65.499  1.00  0.00     0.000 HD 
ENDBRANCH  18  19
ENDBRANCH  15  18
ENDBRANCH  11  12
ENDBRANCH  10  11
ENDBRANCH   7  10
ENDBRANCH   6   7
ENDBRANCH   4   6
ENDBRANCH   2   4
TORSDOF 8
ENDMDL
MODEL      218
REMARK 921   NORMALIZED FREE ENERGY PREDICTED BY IDOCK:   -2.87 KCAL/MOL
REMARK 922        TOTAL FREE ENERGY PREDICTED BY IDOCK:   -4.78 KCAL/MOL
REMARK 923 INTER-LIGAND FREE ENERGY PREDICTED BY IDOCK:   -4.26 KCAL/MOL
REMARK 924 INTRA-LIGAND FREE ENERGY PREDICTED BY IDOCK:   -0.52 KCAL/MOL
REMARK 927      BINDING AFFINITY PREDICTED BY RF-SCORE:    0.00 PKD
ROOT
HETATM    1  C   UNL     1      -8.107   8.006  74.355  1.00  0.00    -0.300 C  
HETATM    2  C   UNL     1      -7.807   7.906  72.858  1.00  0.00    -0.128 C  
HETATM    3  C   UNL     1      -7.993   6.459  72.394  1.00  0.00    -0.102 C  
ENDROOT
BRANCH   2   4
HETATM    4  N   UNL     1      -8.700   8.826  72.147  1.00  0.00    -0.391 NA 
HETATM    5  H   UNL     1      -8.626   9.769  72.529  1.00  0.00     0.000 HD 
BRANCH   4   6
HETATM    6  C   UNL     1      -8.493   8.835  70.693  1.00  0.00    -0.171 C  
BRANCH   6   7
HETATM    7  C   UNL     1      -9.847   8.890  69.959  1.00  0.00    -0.174 C  
HETATM    8  H   UNL     1     -11.616   9.705  70.267  1.00  0.00     0.000 HD 
HETATM    9  O   UNL     1     -10.781   9.672  70.719  1.00  0.00    -0.288 OA 
BRANCH   7  10
HETATM   10  C   UNL     1      -9.690   9.485  68.554  1.00  0.00    -0.151 C  
BRANCH  10  11
HETATM   11  O   UNL     1     -10.588   8.822  67.652  1.00  0.00    -0.253 OA 
BRANCH  11  12
HETATM   12  C   UNL     1     -10.129   7.665  67.076  1.00  0.00    -0.268 A  
HETATM   13  C   UNL     1      -8.872   7.486  66.501  1.00  0.00    -0.167 A  
HETATM   14  C   UNL     1      -8.538   6.270  65.895  1.00  0.00    -0.150 A  
HETATM   15  C   UNL     1      -9.457   5.214  65.850  1.00  0.00    -0.168 A  
HETATM   16  C   UNL     1     -10.701   5.382  66.471  1.00  0.00    -0.309 A  
HETATM   17  C   UNL     1     -11.035   6.601  67.072  1.00  0.00    -0.463 A  
BRANCH  15  18
HETATM   18  C   UNL     1      -9.128   3.950  65.089  1.00  0.00    -0.142 C  
BRANCH  18  19
HETATM   19  C   UNL     1      -9.971   3.599  63.879  1.00  0.00    -0.186 C  
HETATM   20  N   UNL     1      -9.864   4.362  62.758  1.00  0.00    -0.324 N  
HETATM   21  O   UNL     1     -10.743   2.643  63.889  1.00  0.00    -0.123 OA 
HETATM   22  H2  UNL     1      -9.226   5.157  62.732  1.00  0.00     0.000 HD 
HETATM   23  H1  UNL     1     -10.432   4.126  61.943  1.00  0.00     0.000 HD 
ENDBRANCH  18  19
ENDBRANCH  15  18
ENDBRANCH  11  12
ENDBRANCH  10  11
ENDBRANCH   7  10
ENDBRANCH   6   7
ENDBRANCH   4   6
ENDBRANCH   2   4
TORSDOF 8
ENDMDL
MODEL      219
REMARK 921   NORMALIZED FREE ENERGY PREDICTED BY IDOCK:   -2.85 KCAL/MOL
REMARK 922        TOTAL FREE ENERGY PREDICTED BY IDOCK:   -4.76 KCAL/MOL
REMARK 923 INTER-LIGAND FREE ENERGY PREDICTED BY IDOCK:   -4.06 KCAL/MOL
REMARK 924 INTRA-LIGAND FREE ENERGY PREDICTED BY IDOCK:   -0.70 KCAL/MOL
REMARK 927      BINDING AFFINITY PREDICTED BY RF-SCORE:    0.00 PKD
ROOT
HETATM    1  C   UNL     1      -6.660   6.407  71.652  1.00  0.00    -0.054 C  
HETATM    2  C   UNL     1      -7.875   5.508  71.424  1.00  0.00    -0.110 C  
HETATM    3  C   UNL     1      -7.430   4.043  71.394  1.00  0.00    -0.058 C  
ENDROOT
BRANCH   2   4
HETATM    4  N   UNL     1      -8.844   5.763  72.494  1.00  0.00    -0.130 NA 
HETATM    5  H   UNL     1      -8.934   6.763  72.669  1.00  0.00     0.000 HD 
BRANCH   4   6
HETATM    6  C   UNL     1     -10.160   5.157  72.249  1.00  0.00    -0.192 C  
BRANCH   6   7
HETATM    7  C   UNL     1     -11.254   6.241  72.231  1.00  0.00    -0.283 C  
HETATM    8  H   UNL     1     -11.829   7.722  73.400  1.00  0.00     0.000 HD 
HETATM    9  O   UNL     1     -11.154   7.053  73.410  1.00  0.00    -0.262 OA 
BRANCH   7  10
HETATM   10  C   UNL     1     -11.138   7.122  70.980  1.00  0.00    -0.260 C  
BRANCH  10  11
HETATM   11  O   UNL     1     -10.243   8.212  71.245  1.00  0.00    -0.189 OA 
BRANCH  11  12
HETATM   12  C   UNL     1     -10.372   9.315  70.442  1.00  0.00    -0.240 A  
HETATM   13  C   UNL     1     -11.339  10.310  70.575  1.00  0.00    -0.422 A  
HETATM   14  C   UNL     1     -11.402  11.364  69.657  1.00  0.00    -0.347 A  
HETATM   15  C   UNL     1     -10.502  11.438  68.587  1.00  0.00    -0.224 A  
HETATM   16  C   UNL     1      -9.503  10.462  68.483  1.00  0.00    -0.159 A  
HETATM   17  C   UNL     1      -9.445   9.407  69.400  1.00  0.00    -0.177 A  
BRANCH  15  18
HETATM   18  C   UNL     1     -10.656  12.513  67.535  1.00  0.00    -0.238 C  
BRANCH  18  19
HETATM   19  C   UNL     1      -9.888  13.808  67.713  1.00  0.00    -0.234 C  
HETATM   20  N   UNL     1      -9.484  14.491  66.608  1.00  0.00    -0.270 N  
HETATM   21  O   UNL     1      -9.628  14.253  68.829  1.00  0.00    -0.210 OA 
HETATM   22  H2  UNL     1      -9.695  14.138  65.675  1.00  0.00     0.000 HD 
HETATM   23  H1  UNL     1      -8.967  15.363  66.728  1.00  0.00     0.000 HD 
ENDBRANCH  18  19
ENDBRANCH  15  18
ENDBRANCH  11  12
ENDBRANCH  10  11
ENDBRANCH   7  10
ENDBRANCH   6   7
ENDBRANCH   4   6
ENDBRANCH   2   4
TORSDOF 8
ENDMDL
MODEL      220
REMARK 921   NORMALIZED FREE ENERGY PREDICTED BY IDOCK:   -2.85 KCAL/MOL
REMARK 922        TOTAL FREE ENERGY PREDICTED BY IDOCK:   -4.75 KCAL/MOL
REMARK 923 INTER-LIGAND FREE ENERGY PREDICTED BY IDOCK:   -4.28 KCAL/MOL
REMARK 924 INTRA-LIGAND FREE ENERGY PREDICTED BY IDOCK:   -0.47 KCAL/MOL
REMARK 927      BINDING AFFINITY PREDICTED BY RF-SCORE:    0.00 PKD
ROOT
HETATM    1  C   UNL     1      -6.839   6.721  70.691  1.00  0.00    -0.058 C  
HETATM    2  C   UNL     1      -7.083   6.343  69.229  1.00  0.00    -0.080 C  
HETATM    3  C   UNL     1      -5.977   5.397  68.754  1.00  0.00    -0.021 C  
ENDROOT
BRANCH   2   4
HETATM    4  N   UNL     1      -8.410   5.727  69.128  1.00  0.00    -0.104 NA 
HETATM    5  H   UNL     1      -9.107   6.286  69.620  1.00  0.00     0.000 HD 
BRANCH   4   6
HETATM    6  C   UNL     1      -8.831   5.469  67.744  1.00  0.00    -0.105 C  
BRANCH   6   7
HETATM    7  C   UNL     1     -10.330   5.785  67.573  1.00  0.00    -0.220 C  
HETATM    8  H   UNL     1     -11.927   5.842  68.728  1.00  0.00     0.000 HD 
HETATM    9  O   UNL     1     -11.002   5.648  68.833  1.00  0.00    -0.235 OA 
BRANCH   7  10
HETATM   10  C   UNL     1     -10.536   7.202  67.022  1.00  0.00    -0.343 C  
BRANCH  10  11
HETATM   11  O   UNL     1     -10.668   8.124  68.114  1.00  0.00    -0.147 OA 
BRANCH  11  12
HETATM   12  C   UNL     1     -10.564   9.455  67.803  1.00  0.00    -0.258 A  
HETATM   13  C   UNL     1     -10.238   9.975  66.552  1.00  0.00    -0.291 A  
HETATM   14  C   UNL     1     -10.110  11.357  66.370  1.00  0.00    -0.255 A  
HETATM   15  C   UNL     1     -10.302  12.241  67.439  1.00  0.00    -0.219 A  
HETATM   16  C   UNL     1     -10.675  11.718  68.683  1.00  0.00    -0.252 A  
HETATM   17  C   UNL     1     -10.798  10.335  68.863  1.00  0.00    -0.263 A  
BRANCH  15  18
HETATM   18  C   UNL     1     -10.043  13.719  67.259  1.00  0.00    -0.239 C  
BRANCH  18  19
HETATM   19  C   UNL     1     -11.232  14.636  67.044  1.00  0.00    -0.344 C  
HETATM   20  N   UNL     1     -12.072  14.881  68.086  1.00  0.00    -0.562 N  
HETATM   21  O   UNL     1     -11.449  15.163  65.955  1.00  0.00    -0.285 OA 
HETATM   22  H2  UNL     1     -11.904  14.454  68.997  1.00  0.00     0.000 HD 
HETATM   23  H1  UNL     1     -12.871  15.498  67.941  1.00  0.00     0.000 HD 
ENDBRANCH  18  19
ENDBRANCH  15  18
ENDBRANCH  11  12
ENDBRANCH  10  11
ENDBRANCH   7  10
ENDBRANCH   6   7
ENDBRANCH   4   6
ENDBRANCH   2   4
TORSDOF 8
ENDMDL
MODEL      221
REMARK 921   NORMALIZED FREE ENERGY PREDICTED BY IDOCK:   -2.80 KCAL/MOL
REMARK 922        TOTAL FREE ENERGY PREDICTED BY IDOCK:   -4.68 KCAL/MOL
REMARK 923 INTER-LIGAND FREE ENERGY PREDICTED BY IDOCK:   -4.20 KCAL/MOL
REMARK 924 INTRA-LIGAND FREE ENERGY PREDICTED BY IDOCK:   -0.48 KCAL/MOL
REMARK 927      BINDING AFFINITY PREDICTED BY RF-SCORE:    0.00 PKD
ROOT
HETATM    1  C   UNL     1      -9.944  10.323  64.655  1.00  0.00    -0.377 C  
HETATM    2  C   UNL     1     -10.084  11.750  64.122  1.00  0.00    -0.310 C  
HETATM    3  C   UNL     1     -11.550  12.026  63.778  1.00  0.00    -0.565 C  
ENDROOT
BRANCH   2   4
HETATM    4  N   UNL     1      -9.580  12.675  65.142  1.00  0.00    -0.471 NA 
HETATM    5  H   UNL     1      -9.884  13.629  64.947  1.00  0.00     0.000 HD 
BRANCH   4   6
HETATM    6  C   UNL     1      -9.937  12.285  66.513  1.00  0.00    -0.220 C  
BRANCH   6   7
HETATM    7  C   UNL     1      -8.809  12.669  67.490  1.00  0.00    -0.186 C  
HETATM    8  H   UNL     1      -8.611  13.831  69.070  1.00  0.00     0.000 HD 
HETATM    9  O   UNL     1      -9.306  13.594  68.467  1.00  0.00    -0.194 OA 
BRANCH   7  10
HETATM   10  C   UNL     1      -8.238  11.428  68.189  1.00  0.00    -0.143 C  
BRANCH  10  11
HETATM   11  O   UNL     1      -9.262  10.429  68.300  1.00  0.00    -0.142 OA 
BRANCH  11  12
HETATM   12  C   UNL     1      -9.195   9.608  69.396  1.00  0.00    -0.189 A  
HETATM   13  C   UNL     1      -8.069   9.404  70.192  1.00  0.00    -0.167 A  
HETATM   14  C   UNL     1      -8.109   8.496  71.255  1.00  0.00    -0.166 A  
HETATM   15  C   UNL     1      -9.274   7.772  71.537  1.00  0.00    -0.164 A  
HETATM   16  C   UNL     1     -10.417   8.014  70.765  1.00  0.00    -0.221 A  
HETATM   17  C   UNL     1     -10.373   8.920  69.699  1.00  0.00    -0.214 A  
BRANCH  15  18
HETATM   18  C   UNL     1      -9.268   6.708  72.611  1.00  0.00    -0.148 C  
BRANCH  18  19
HETATM   19  C   UNL     1      -8.473   5.441  72.364  1.00  0.00    -0.119 C  
HETATM   20  N   UNL     1      -8.072   4.696  73.429  1.00  0.00    -0.099 N  
HETATM   21  O   UNL     1      -8.188   5.072  71.227  1.00  0.00    -0.110 OA 
HETATM   22  H2  UNL     1      -8.303   4.986  74.380  1.00  0.00     0.000 HD 
HETATM   23  H1  UNL     1      -7.537   3.844  73.262  1.00  0.00     0.000 HD 
ENDBRANCH  18  19
ENDBRANCH  15  18
ENDBRANCH  11  12
ENDBRANCH  10  11
ENDBRANCH   7  10
ENDBRANCH   6   7
ENDBRANCH   4   6
ENDBRANCH   2   4
TORSDOF 8
ENDMDL
MODEL      222
REMARK 921   NORMALIZED FREE ENERGY PREDICTED BY IDOCK:   -2.80 KCAL/MOL
REMARK 922        TOTAL FREE ENERGY PREDICTED BY IDOCK:   -4.67 KCAL/MOL
REMARK 923 INTER-LIGAND FREE ENERGY PREDICTED BY IDOCK:   -4.44 KCAL/MOL
REMARK 924 INTRA-LIGAND FREE ENERGY PREDICTED BY IDOCK:   -0.23 KCAL/MOL
REMARK 927      BINDING AFFINITY PREDICTED BY RF-SCORE:    0.00 PKD
ROOT
HETATM    1  C   UNL     1      -9.953  10.760  63.471  1.00  0.00    -0.403 C  
HETATM    2  C   UNL     1     -10.176  12.273  63.459  1.00  0.00    -0.379 C  
HETATM    3  C   UNL     1     -11.655  12.571  63.202  1.00  0.00    -0.271 C  
ENDROOT
BRANCH   2   4
HETATM    4  N   UNL     1      -9.725  12.816  64.745  1.00  0.00    -0.515 NA 
HETATM    5  H   UNL     1     -10.208  13.689  64.958  1.00  0.00     0.000 HD 
BRANCH   4   6
HETATM    6  C   UNL     1      -9.854  11.865  65.858  1.00  0.00    -0.237 C  
BRANCH   6   7
HETATM    7  C   UNL     1     -11.014  12.279  66.784  1.00  0.00    -0.276 C  
HETATM    8  H   UNL     1     -12.983  12.326  66.687  1.00  0.00     0.000 HD 
HETATM    9  O   UNL     1     -12.267  12.071  66.116  1.00  0.00    -0.552 OA 
BRANCH   7  10
HETATM   10  C   UNL     1     -10.983  11.484  68.096  1.00  0.00    -0.228 C  
BRANCH  10  11
HETATM   11  O   UNL     1     -11.372  10.126  67.840  1.00  0.00    -0.252 OA 
BRANCH  11  12
HETATM   12  C   UNL     1     -10.802   9.169  68.640  1.00  0.00    -0.049 A  
HETATM   13  C   UNL     1     -11.109   7.810  68.627  1.00  0.00     0.252 A  
HETATM   14  C   UNL     1     -10.496   6.936  69.532  1.00  0.00    -0.244 A  
HETATM   15  C   UNL     1      -9.569   7.410  70.470  1.00  0.00    -0.172 A  
HETATM   16  C   UNL     1      -9.228   8.768  70.448  1.00  0.00    -0.204 A  
HETATM   17  C   UNL     1      -9.846   9.640  69.544  1.00  0.00    -0.219 A  
BRANCH  15  18
HETATM   18  C   UNL     1      -9.005   6.479  71.519  1.00  0.00    -0.140 C  
BRANCH  18  19
HETATM   19  C   UNL     1      -9.472   6.644  72.952  1.00  0.00    -0.138 C  
HETATM   20  N   UNL     1     -10.552   5.934  73.378  1.00  0.00    -0.244 N  
HETATM   21  O   UNL     1      -8.896   7.398  73.733  1.00  0.00    -0.173 OA 
HETATM   22  H2  UNL     1     -11.039   5.302  72.744  1.00  0.00     0.000 HD 
HETATM   23  H1  UNL     1     -10.866   6.045  74.343  1.00  0.00     0.000 HD 
ENDBRANCH  18  19
ENDBRANCH  15  18
ENDBRANCH  11  12
ENDBRANCH  10  11
ENDBRANCH   7  10
ENDBRANCH   6   7
ENDBRANCH   4   6
ENDBRANCH   2   4
TORSDOF 8
ENDMDL
MODEL      223
REMARK 921   NORMALIZED FREE ENERGY PREDICTED BY IDOCK:   -2.79 KCAL/MOL
REMARK 922        TOTAL FREE ENERGY PREDICTED BY IDOCK:   -4.67 KCAL/MOL
REMARK 923 INTER-LIGAND FREE ENERGY PREDICTED BY IDOCK:   -3.99 KCAL/MOL
REMARK 924 INTRA-LIGAND FREE ENERGY PREDICTED BY IDOCK:   -0.67 KCAL/MOL
REMARK 927      BINDING AFFINITY PREDICTED BY RF-SCORE:    0.00 PKD
ROOT
HETATM    1  C   UNL     1     -12.216   6.555  71.826  1.00  0.00    -0.374 C  
HETATM    2  C   UNL     1     -10.759   6.706  72.267  1.00  0.00    -0.221 C  
HETATM    3  C   UNL     1     -10.569   8.063  72.948  1.00  0.00    -0.399 C  
ENDROOT
BRANCH   2   4
HETATM    4  N   UNL     1     -10.432   5.594  73.164  1.00  0.00    -0.205 NA 
HETATM    5  H   UNL     1     -11.029   4.789  72.975  1.00  0.00     0.000 HD 
BRANCH   4   6
HETATM    6  C   UNL     1      -9.014   5.209  73.127  1.00  0.00    -0.118 C  
BRANCH   6   7
HETATM    7  C   UNL     1      -8.369   5.669  71.805  1.00  0.00    -0.120 C  
HETATM    8  H   UNL     1      -6.764   6.677  71.264  1.00  0.00     0.000 HD 
HETATM    9  O   UNL     1      -7.161   6.394  72.079  1.00  0.00    -0.087 OA 
BRANCH   7  10
HETATM   10  C   UNL     1      -8.065   4.472  70.894  1.00  0.00    -0.077 C  
BRANCH  10  11
HETATM   11  O   UNL     1      -9.132   4.309  69.948  1.00  0.00    -0.088 OA 
BRANCH  11  12
HETATM   12  C   UNL     1      -9.288   5.312  69.027  1.00  0.00    -0.130 A  
HETATM   13  C   UNL     1      -8.267   6.111  68.513  1.00  0.00    -0.111 A  
HETATM   14  C   UNL     1      -8.560   7.142  67.613  1.00  0.00    -0.122 A  
HETATM   15  C   UNL     1      -9.879   7.394  67.217  1.00  0.00    -0.230 A  
HETATM   16  C   UNL     1     -10.896   6.560  67.698  1.00  0.00    -0.419 A  
HETATM   17  C   UNL     1     -10.600   5.532  68.601  1.00  0.00    -0.215 A  
BRANCH  15  18
HETATM   18  C   UNL     1     -10.196   8.585  66.340  1.00  0.00    -0.193 C  
BRANCH  18  19
HETATM   19  C   UNL     1     -10.311   9.949  66.993  1.00  0.00    -0.239 C  
HETATM   20  N   UNL     1     -11.046  10.073  68.131  1.00  0.00    -0.457 N  
HETATM   21  O   UNL     1      -9.754  10.937  66.521  1.00  0.00    -0.189 OA 
HETATM   22  H2  UNL     1     -11.512   9.262  68.538  1.00  0.00     0.000 HD 
HETATM   23  H1  UNL     1     -11.123  10.991  68.570  1.00  0.00     0.000 HD 
ENDBRANCH  18  19
ENDBRANCH  15  18
ENDBRANCH  11  12
ENDBRANCH  10  11
ENDBRANCH   7  10
ENDBRANCH   6   7
ENDBRANCH   4   6
ENDBRANCH   2   4
TORSDOF 8
ENDMDL
MODEL      224
REMARK 921   NORMALIZED FREE ENERGY PREDICTED BY IDOCK:   -2.78 KCAL/MOL
REMARK 922        TOTAL FREE ENERGY PREDICTED BY IDOCK:   -4.66 KCAL/MOL
REMARK 923 INTER-LIGAND FREE ENERGY PREDICTED BY IDOCK:   -4.54 KCAL/MOL
REMARK 924 INTRA-LIGAND FREE ENERGY PREDICTED BY IDOCK:   -0.12 KCAL/MOL
REMARK 927      BINDING AFFINITY PREDICTED BY RF-SCORE:    0.00 PKD
ROOT
HETATM    1  C   UNL     1      -6.363   9.266  71.239  1.00  0.00    -0.072 C  
HETATM    2  C   UNL     1      -6.328   9.601  69.747  1.00  0.00    -0.047 C  
HETATM    3  C   UNL     1      -5.495   8.552  69.007  1.00  0.00    -0.036 C  
ENDROOT
BRANCH   2   4
HETATM    4  N   UNL     1      -7.708   9.650  69.253  1.00  0.00    -0.088 NA 
HETATM    5  H   UNL     1      -8.095  10.588  69.357  1.00  0.00     0.000 HD 
BRANCH   4   6
HETATM    6  C   UNL     1      -7.851   9.177  67.870  1.00  0.00    -0.100 C  
BRANCH   6   7
HETATM    7  C   UNL     1      -8.317  10.327  66.956  1.00  0.00    -0.126 C  
HETATM    8  H   UNL     1      -7.650  11.240  65.341  1.00  0.00     0.000 HD 
HETATM    9  O   UNL     1      -7.362  10.530  65.904  1.00  0.00    -0.137 OA 
BRANCH   7  10
HETATM   10  C   UNL     1      -9.699  10.032  66.358  1.00  0.00    -0.210 C  
BRANCH  10  11
HETATM   11  O   UNL     1     -10.231  11.229  65.772  1.00  0.00    -0.234 OA 
BRANCH  11  12
HETATM   12  C   UNL     1     -10.834  12.111  66.632  1.00  0.00    -0.268 A  
HETATM   13  C   UNL     1     -11.365  13.352  66.284  1.00  0.00    -0.329 A  
HETATM   14  C   UNL     1     -11.909  14.189  67.264  1.00  0.00    -0.452 A  
HETATM   15  C   UNL     1     -11.927  13.801  68.609  1.00  0.00    -0.401 A  
HETATM   16  C   UNL     1     -11.436  12.534  68.948  1.00  0.00    -0.355 A  
HETATM   17  C   UNL     1     -10.888  11.700  67.966  1.00  0.00    -0.259 A  
BRANCH  15  18
HETATM   18  C   UNL     1     -12.407  14.762  69.673  1.00  0.00    -0.253 C  
BRANCH  18  19
HETATM   19  C   UNL     1     -12.027  14.488  71.115  1.00  0.00    -0.339 C  
HETATM   20  N   UNL     1     -10.950  15.129  71.645  1.00  0.00    -0.510 N  
HETATM   21  O   UNL     1     -12.670  13.707  71.812  1.00  0.00    -0.321 OA 
HETATM   22  H2  UNL     1     -10.408  15.783  71.081  1.00  0.00     0.000 HD 
HETATM   23  H1  UNL     1     -10.694  14.945  72.615  1.00  0.00     0.000 HD 
ENDBRANCH  18  19
ENDBRANCH  15  18
ENDBRANCH  11  12
ENDBRANCH  10  11
ENDBRANCH   7  10
ENDBRANCH   6   7
ENDBRANCH   4   6
ENDBRANCH   2   4
TORSDOF 8
ENDMDL
MODEL      225
REMARK 921   NORMALIZED FREE ENERGY PREDICTED BY IDOCK:   -2.78 KCAL/MOL
REMARK 922        TOTAL FREE ENERGY PREDICTED BY IDOCK:   -4.65 KCAL/MOL
REMARK 923 INTER-LIGAND FREE ENERGY PREDICTED BY IDOCK:   -4.29 KCAL/MOL
REMARK 924 INTRA-LIGAND FREE ENERGY PREDICTED BY IDOCK:   -0.36 KCAL/MOL
REMARK 927      BINDING AFFINITY PREDICTED BY RF-SCORE:    0.00 PKD
ROOT
HETATM    1  C   UNL     1     -12.622  14.077  65.431  1.00  0.00    -0.529 C  
HETATM    2  C   UNL     1     -12.376  12.611  65.075  1.00  0.00    -0.497 C  
HETATM    3  C   UNL     1     -12.401  12.442  63.553  1.00  0.00    -0.648 C  
ENDROOT
BRANCH   2   4
HETATM    4  N   UNL     1     -11.088  12.207  65.647  1.00  0.00    -0.306 NA 
HETATM    5  H   UNL     1     -10.406  12.962  65.570  1.00  0.00     0.000 HD 
BRANCH   4   6
HETATM    6  C   UNL     1     -11.187  11.734  67.035  1.00  0.00    -0.322 C  
BRANCH   6   7
HETATM    7  C   UNL     1     -10.056  10.734  67.341  1.00  0.00    -0.193 C  
HETATM    8  H   UNL     1      -8.159  10.828  67.870  1.00  0.00     0.000 HD 
HETATM    9  O   UNL     1      -8.857  11.445  67.681  1.00  0.00    -0.135 OA 
BRANCH   7  10
HETATM   10  C   UNL     1     -10.448   9.793  68.488  1.00  0.00    -0.210 C  
BRANCH  10  11
HETATM   11  O   UNL     1      -9.554   9.989  69.593  1.00  0.00    -0.214 OA 
BRANCH  11  12
HETATM   12  C   UNL     1      -9.149   8.861  70.257  1.00  0.00    -0.181 A  
HETATM   13  C   UNL     1      -7.859   8.331  70.251  1.00  0.00    -0.092 A  
HETATM   14  C   UNL     1      -7.580   7.138  70.927  1.00  0.00    -0.085 A  
HETATM   15  C   UNL     1      -8.588   6.452  71.617  1.00  0.00    -0.129 A  
HETATM   16  C   UNL     1      -9.871   7.011  71.660  1.00  0.00    -0.169 A  
HETATM   17  C   UNL     1     -10.148   8.203  70.979  1.00  0.00    -0.221 A  
BRANCH  15  18
HETATM   18  C   UNL     1      -8.301   5.105  72.241  1.00  0.00    -0.121 C  
BRANCH  18  19
HETATM   19  C   UNL     1      -8.501   3.863  71.394  1.00  0.00    -0.077 C  
HETATM   20  N   UNL     1      -7.548   3.526  70.485  1.00  0.00    -0.041 N  
HETATM   21  O   UNL     1      -9.499   3.157  71.516  1.00  0.00    -0.121 OA 
HETATM   22  H2  UNL     1      -6.712   4.099  70.374  1.00  0.00     0.000 HD 
HETATM   23  H1  UNL     1      -7.683   2.690  69.915  1.00  0.00     0.000 HD 
ENDBRANCH  18  19
ENDBRANCH  15  18
ENDBRANCH  11  12
ENDBRANCH  10  11
ENDBRANCH   7  10
ENDBRANCH   6   7
ENDBRANCH   4   6
ENDBRANCH   2   4
TORSDOF 8
ENDMDL
MODEL      226
REMARK 921   NORMALIZED FREE ENERGY PREDICTED BY IDOCK:   -2.77 KCAL/MOL
REMARK 922        TOTAL FREE ENERGY PREDICTED BY IDOCK:   -4.64 KCAL/MOL
REMARK 923 INTER-LIGAND FREE ENERGY PREDICTED BY IDOCK:   -4.31 KCAL/MOL
REMARK 924 INTRA-LIGAND FREE ENERGY PREDICTED BY IDOCK:   -0.33 KCAL/MOL
REMARK 927      BINDING AFFINITY PREDICTED BY RF-SCORE:    0.00 PKD
ROOT
HETATM    1  C   UNL     1      -7.350   7.503  71.264  1.00  0.00    -0.078 C  
HETATM    2  C   UNL     1      -8.440   6.843  72.110  1.00  0.00    -0.113 C  
HETATM    3  C   UNL     1      -7.832   5.700  72.927  1.00  0.00    -0.098 C  
ENDROOT
BRANCH   2   4
HETATM    4  N   UNL     1      -9.041   7.868  72.969  1.00  0.00    -0.209 NA 
HETATM    5  H   UNL     1      -8.908   8.797  72.570  1.00  0.00     0.000 HD 
BRANCH   4   6
HETATM    6  C   UNL     1     -10.461   7.626  73.262  1.00  0.00    -0.355 C  
BRANCH   6   7
HETATM    7  C   UNL     1     -11.223   7.278  71.968  1.00  0.00    -0.250 C  
HETATM    8  H   UNL     1     -12.601   5.979  71.418  1.00  0.00     0.000 HD 
HETATM    9  O   UNL     1     -12.130   6.194  72.216  1.00  0.00    -0.311 OA 
BRANCH   7  10
HETATM   10  C   UNL     1     -11.994   8.493  71.437  1.00  0.00    -0.300 C  
BRANCH  10  11
HETATM   11  O   UNL     1     -11.065   9.471  70.948  1.00  0.00    -0.279 OA 
BRANCH  11  12
HETATM   12  C   UNL     1     -11.044   9.665  69.591  1.00  0.00    -0.193 A  
HETATM   13  C   UNL     1     -10.594   8.746  68.645  1.00  0.00    -0.174 A  
HETATM   14  C   UNL     1     -10.572   9.081  67.286  1.00  0.00    -0.301 A  
HETATM   15  C   UNL     1     -10.994  10.344  66.853  1.00  0.00    -0.167 A  
HETATM   16  C   UNL     1     -11.489  11.248  67.801  1.00  0.00    -0.350 A  
HETATM   17  C   UNL     1     -11.506  10.911  69.160  1.00  0.00    -0.373 A  
BRANCH  15  18
HETATM   18  C   UNL     1     -10.853  10.736  65.399  1.00  0.00    -0.062 C  
BRANCH  18  19
HETATM   19  C   UNL     1      -9.550  10.418  64.692  1.00  0.00    -0.300 C  
HETATM   20  N   UNL     1      -9.367  10.859  63.418  1.00  0.00    -0.260 N  
HETATM   21  O   UNL     1      -8.659   9.777  65.244  1.00  0.00    -0.137 OA 
HETATM   22  H2  UNL     1     -10.096  11.396  62.947  1.00  0.00     0.000 HD 
HETATM   23  H1  UNL     1      -8.491  10.645  62.943  1.00  0.00     0.000 HD 
ENDBRANCH  18  19
ENDBRANCH  15  18
ENDBRANCH  11  12
ENDBRANCH  10  11
ENDBRANCH   7  10
ENDBRANCH   6   7
ENDBRANCH   4   6
ENDBRANCH   2   4
TORSDOF 8
ENDMDL
MODEL      227
REMARK 921   NORMALIZED FREE ENERGY PREDICTED BY IDOCK:   -2.76 KCAL/MOL
REMARK 922        TOTAL FREE ENERGY PREDICTED BY IDOCK:   -4.62 KCAL/MOL
REMARK 923 INTER-LIGAND FREE ENERGY PREDICTED BY IDOCK:   -3.97 KCAL/MOL
REMARK 924 INTRA-LIGAND FREE ENERGY PREDICTED BY IDOCK:   -0.65 KCAL/MOL
REMARK 927      BINDING AFFINITY PREDICTED BY RF-SCORE:    0.00 PKD
ROOT
HETATM    1  C   UNL     1     -11.273   5.314  72.498  1.00  0.00    -0.272 C  
HETATM    2  C   UNL     1     -11.591   6.688  71.905  1.00  0.00    -0.303 C  
HETATM    3  C   UNL     1     -13.108   6.855  71.784  1.00  0.00    -0.302 C  
ENDROOT
BRANCH   2   4
HETATM    4  N   UNL     1     -10.996   7.712  72.769  1.00  0.00    -0.347 NA 
HETATM    5  H   UNL     1     -10.257   7.312  73.347  1.00  0.00     0.000 HD 
BRANCH   4   6
HETATM    6  C   UNL     1     -10.504   8.884  72.033  1.00  0.00    -0.313 C  
BRANCH   6   7
HETATM    7  C   UNL     1     -10.241   8.520  70.559  1.00  0.00    -0.194 C  
HETATM    8  H   UNL     1     -10.862   9.140  68.793  1.00  0.00     0.000 HD 
HETATM    9  O   UNL     1     -11.024   9.364  69.702  1.00  0.00    -0.239 OA 
BRANCH   7  10
HETATM   10  C   UNL     1      -8.753   8.662  70.213  1.00  0.00    -0.147 C  
BRANCH  10  11
HETATM   11  O   UNL     1      -8.199   7.364  69.950  1.00  0.00    -0.127 OA 
BRANCH  11  12
HETATM   12  C   UNL     1      -8.755   6.663  68.912  1.00  0.00    -0.128 A  
HETATM   13  C   UNL     1      -9.569   5.538  69.034  1.00  0.00    -0.180 A  
HETATM   14  C   UNL     1     -10.035   4.874  67.893  1.00  0.00    -0.181 A  
HETATM   15  C   UNL     1      -9.690   5.322  66.612  1.00  0.00    -0.177 A  
HETATM   16  C   UNL     1      -8.912   6.481  66.493  1.00  0.00    -0.152 A  
HETATM   17  C   UNL     1      -8.443   7.140  67.636  1.00  0.00    -0.120 A  
BRANCH  15  18
HETATM   18  C   UNL     1     -10.100   4.529  65.392  1.00  0.00    -0.211 C  
BRANCH  18  19
HETATM   19  C   UNL     1      -9.335   3.259  65.070  1.00  0.00    -0.150 C  
HETATM   20  N   UNL     1      -9.957   2.278  64.363  1.00  0.00    -0.333 N  
HETATM   21  O   UNL     1      -8.171   3.102  65.429  1.00  0.00    -0.092 OA 
HETATM   22  H2  UNL     1     -10.922   2.394  64.054  1.00  0.00     0.000 HD 
HETATM   23  H1  UNL     1      -9.442   1.424  64.146  1.00  0.00     0.000 HD 
ENDBRANCH  18  19
ENDBRANCH  15  18
ENDBRANCH  11  12
ENDBRANCH  10  11
ENDBRANCH   7  10
ENDBRANCH   6   7
ENDBRANCH   4   6
ENDBRANCH   2   4
TORSDOF 8
ENDMDL
MODEL      228
REMARK 921   NORMALIZED FREE ENERGY PREDICTED BY IDOCK:   -2.72 KCAL/MOL
REMARK 922        TOTAL FREE ENERGY PREDICTED BY IDOCK:   -4.56 KCAL/MOL
REMARK 923 INTER-LIGAND FREE ENERGY PREDICTED BY IDOCK:   -4.41 KCAL/MOL
REMARK 924 INTRA-LIGAND FREE ENERGY PREDICTED BY IDOCK:   -0.15 KCAL/MOL
REMARK 927      BINDING AFFINITY PREDICTED BY RF-SCORE:    0.00 PKD
ROOT
HETATM    1  C   UNL     1     -13.115   6.876  71.674  1.00  0.00    -0.338 C  
HETATM    2  C   UNL     1     -12.283   8.153  71.805  1.00  0.00    -0.319 C  
HETATM    3  C   UNL     1     -13.206   9.336  72.110  1.00  0.00    -0.535 C  
ENDROOT
BRANCH   2   4
HETATM    4  N   UNL     1     -11.290   7.949  72.864  1.00  0.00    -0.503 NA 
HETATM    5  H   UNL     1     -11.543   7.154  73.449  1.00  0.00     0.000 HD 
BRANCH   4   6
HETATM    6  C   UNL     1      -9.917   7.806  72.358  1.00  0.00    -0.214 C  
BRANCH   6   7
HETATM    7  C   UNL     1      -9.845   8.229  70.878  1.00  0.00    -0.182 C  
HETATM    8  H   UNL     1      -9.558   9.902  69.874  1.00  0.00     0.000 HD 
HETATM    9  O   UNL     1      -9.602   9.641  70.787  1.00  0.00    -0.235 OA 
BRANCH   7  10
HETATM   10  C   UNL     1      -8.743   7.461  70.138  1.00  0.00    -0.143 C  
BRANCH  10  11
HETATM   11  O   UNL     1      -9.293   6.854  68.959  1.00  0.00    -0.137 OA 
BRANCH  11  12
HETATM   12  C   UNL     1      -9.046   7.495  67.773  1.00  0.00    -0.129 A  
HETATM   13  C   UNL     1      -9.677   8.656  67.329  1.00  0.00    -0.241 A  
HETATM   14  C   UNL     1      -9.376   9.188  66.070  1.00  0.00    -0.300 A  
HETATM   15  C   UNL     1      -8.443   8.565  65.232  1.00  0.00    -0.192 A  
HETATM   16  C   UNL     1      -7.776   7.426  65.701  1.00  0.00    -0.104 A  
HETATM   17  C   UNL     1      -8.082   6.893  66.959  1.00  0.00    -0.117 A  
BRANCH  15  18
HETATM   18  C   UNL     1      -8.215   9.081  63.829  1.00  0.00    -0.173 C  
BRANCH  18  19
HETATM   19  C   UNL     1      -9.172  10.122  63.282  1.00  0.00    -0.290 C  
HETATM   20  N   UNL     1      -9.140  11.381  63.797  1.00  0.00    -0.429 N  
HETATM   21  O   UNL     1      -9.968   9.855  62.385  1.00  0.00     0.167 OA 
HETATM   22  H2  UNL     1      -8.483  11.620  64.539  1.00  0.00     0.000 HD 
HETATM   23  H1  UNL     1      -9.784  12.081  63.428  1.00  0.00     0.000 HD 
ENDBRANCH  18  19
ENDBRANCH  15  18
ENDBRANCH  11  12
ENDBRANCH  10  11
ENDBRANCH   7  10
ENDBRANCH   6   7
ENDBRANCH   4   6
ENDBRANCH   2   4
TORSDOF 8
ENDMDL
MODEL      229
REMARK 921   NORMALIZED FREE ENERGY PREDICTED BY IDOCK:   -2.66 KCAL/MOL
REMARK 922        TOTAL FREE ENERGY PREDICTED BY IDOCK:   -4.48 KCAL/MOL
REMARK 923 INTER-LIGAND FREE ENERGY PREDICTED BY IDOCK:   -4.31 KCAL/MOL
REMARK 924 INTRA-LIGAND FREE ENERGY PREDICTED BY IDOCK:   -0.18 KCAL/MOL
REMARK 927      BINDING AFFINITY PREDICTED BY RF-SCORE:    0.00 PKD
ROOT
HETATM    1  C   UNL     1      -9.796   3.243  64.368  1.00  0.00    -0.162 C  
HETATM    2  C   UNL     1      -8.452   3.951  64.542  1.00  0.00    -0.102 C  
HETATM    3  C   UNL     1      -8.302   5.034  63.470  1.00  0.00    -0.123 C  
ENDROOT
BRANCH   2   4
HETATM    4  N   UNL     1      -8.397   4.511  65.895  1.00  0.00    -0.113 NA 
HETATM    5  H   UNL     1      -8.064   3.815  66.562  1.00  0.00     0.000 HD 
BRANCH   4   6
HETATM    6  C   UNL     1      -7.601   5.743  65.987  1.00  0.00    -0.087 C  
BRANCH   6   7
HETATM    7  C   UNL     1      -8.523   6.966  66.149  1.00  0.00    -0.136 C  
HETATM    8  H   UNL     1     -10.429   7.288  66.535  1.00  0.00     0.000 HD 
HETATM    9  O   UNL     1      -9.860   6.533  66.435  1.00  0.00    -0.145 OA 
BRANCH   7  10
HETATM   10  C   UNL     1      -8.023   7.890  67.267  1.00  0.00    -0.118 C  
BRANCH  10  11
HETATM   11  O   UNL     1      -8.023   7.177  68.512  1.00  0.00    -0.119 OA 
BRANCH  11  12
HETATM   12  C   UNL     1      -9.020   7.496  69.396  1.00  0.00    -0.139 A  
HETATM   13  C   UNL     1      -9.199   8.735  70.010  1.00  0.00    -0.173 A  
HETATM   14  C   UNL     1     -10.227   8.923  70.939  1.00  0.00    -0.304 A  
HETATM   15  C   UNL     1     -11.092   7.874  71.275  1.00  0.00    -0.278 A  
HETATM   16  C   UNL     1     -10.939   6.644  70.622  1.00  0.00    -0.329 A  
HETATM   17  C   UNL     1      -9.906   6.457  69.696  1.00  0.00    -0.182 A  
BRANCH  15  18
HETATM   18  C   UNL     1     -12.121   8.056  72.367  1.00  0.00    -0.374 C  
BRANCH  18  19
HETATM   19  C   UNL     1     -13.461   8.663  71.999  1.00  0.00    -0.403 C  
HETATM   20  N   UNL     1     -14.221   8.055  71.049  1.00  0.00    -0.655 N  
HETATM   21  O   UNL     1     -13.873   9.686  72.541  1.00  0.00    -0.364 OA 
HETATM   22  H2  UNL     1     -13.895   7.204  70.592  1.00  0.00     0.000 HD 
HETATM   23  H1  UNL     1     -15.122   8.464  70.802  1.00  0.00     0.000 HD 
ENDBRANCH  18  19
ENDBRANCH  15  18
ENDBRANCH  11  12
ENDBRANCH  10  11
ENDBRANCH   7  10
ENDBRANCH   6   7
ENDBRANCH   4   6
ENDBRANCH   2   4
TORSDOF 8
ENDMDL
MODEL      230
REMARK 921   NORMALIZED FREE ENERGY PREDICTED BY IDOCK:   -2.62 KCAL/MOL
REMARK 922        TOTAL FREE ENERGY PREDICTED BY IDOCK:   -4.42 KCAL/MOL
REMARK 923 INTER-LIGAND FREE ENERGY PREDICTED BY IDOCK:   -4.03 KCAL/MOL
REMARK 924 INTRA-LIGAND FREE ENERGY PREDICTED BY IDOCK:   -0.39 KCAL/MOL
REMARK 927      BINDING AFFINITY PREDICTED BY RF-SCORE:    0.00 PKD
ROOT
HETATM    1  C   UNL     1      -6.553   6.747  68.496  1.00  0.00    -0.058 C  
HETATM    2  C   UNL     1      -7.469   7.718  67.751  1.00  0.00    -0.104 C  
HETATM    3  C   UNL     1      -8.878   7.125  67.662  1.00  0.00    -0.119 C  
ENDROOT
BRANCH   2   4
HETATM    4  N   UNL     1      -7.459   8.999  68.462  1.00  0.00    -0.084 NA 
HETATM    5  H   UNL     1      -6.646   9.554  68.196  1.00  0.00     0.000 HD 
BRANCH   4   6
HETATM    6  C   UNL     1      -8.696   9.774  68.290  1.00  0.00    -0.119 C  
BRANCH   6   7
HETATM    7  C   UNL     1      -8.380  11.164  67.706  1.00  0.00    -0.123 C  
HETATM    8  H   UNL     1      -7.199  11.903  66.311  1.00  0.00     0.000 HD 
HETATM    9  O   UNL     1      -7.394  11.045  66.671  1.00  0.00    -0.131 OA 
BRANCH   7  10
HETATM   10  C   UNL     1      -9.645  11.829  67.148  1.00  0.00    -0.181 C  
BRANCH  10  11
HETATM   11  O   UNL     1      -9.288  12.706  66.070  1.00  0.00    -0.186 OA 
BRANCH  11  12
HETATM   12  C   UNL     1      -9.509  14.043  66.274  1.00  0.00    -0.227 A  
HETATM   13  C   UNL     1     -10.439  14.827  65.592  1.00  0.00    -0.365 A  
HETATM   14  C   UNL     1     -10.535  16.199  65.853  1.00  0.00    -0.366 A  
HETATM   15  C   UNL     1      -9.700  16.810  66.796  1.00  0.00    -0.273 A  
HETATM   16  C   UNL     1      -8.801  16.010  67.513  1.00  0.00    -0.198 A  
HETATM   17  C   UNL     1      -8.703  14.640  67.247  1.00  0.00    -0.224 A  
BRANCH  15  18
HETATM   18  C   UNL     1      -9.731  18.310  66.983  1.00  0.00    -0.305 C  
BRANCH  18  19
HETATM   19  C   UNL     1      -8.467  19.096  66.696  1.00  0.00    -0.310 C  
HETATM   20  N   UNL     1      -7.831  19.718  67.725  1.00  0.00    -0.285 N  
HETATM   21  O   UNL     1      -8.006  19.180  65.560  1.00  0.00    -0.372 OA 
HETATM   22  H2  UNL     1      -8.198  19.655  68.675  1.00  0.00     0.000 HD 
HETATM   23  H1  UNL     1      -6.980  20.247  67.532  1.00  0.00     0.000 HD 
ENDBRANCH  18  19
ENDBRANCH  15  18
ENDBRANCH  11  12
ENDBRANCH  10  11
ENDBRANCH   7  10
ENDBRANCH   6   7
ENDBRANCH   4   6
ENDBRANCH   2   4
TORSDOF 8
ENDMDL
MODEL      231
REMARK 921   NORMALIZED FREE ENERGY PREDICTED BY IDOCK:   -2.62 KCAL/MOL
REMARK 922        TOTAL FREE ENERGY PREDICTED BY IDOCK:   -4.41 KCAL/MOL
REMARK 923 INTER-LIGAND FREE ENERGY PREDICTED BY IDOCK:   -3.87 KCAL/MOL
REMARK 924 INTRA-LIGAND FREE ENERGY PREDICTED BY IDOCK:   -0.55 KCAL/MOL
REMARK 927      BINDING AFFINITY PREDICTED BY RF-SCORE:    0.00 PKD
ROOT
HETATM    1  C   UNL     1      -9.179   7.502  67.338  1.00  0.00    -0.149 C  
HETATM    2  C   UNL     1      -9.668   6.299  68.145  1.00  0.00    -0.122 C  
HETATM    3  C   UNL     1      -8.469   5.451  68.577  1.00  0.00    -0.096 C  
ENDROOT
BRANCH   2   4
HETATM    4  N   UNL     1     -10.428   6.794  69.297  1.00  0.00    -0.203 NA 
HETATM    5  H   UNL     1     -10.724   6.022  69.894  1.00  0.00     0.000 HD 
BRANCH   4   6
HETATM    6  C   UNL     1      -9.711   7.811  70.078  1.00  0.00    -0.176 C  
BRANCH   6   7
HETATM    7  C   UNL     1     -10.642   8.428  71.139  1.00  0.00    -0.215 C  
HETATM    8  H   UNL     1     -10.516   8.942  73.038  1.00  0.00     0.000 HD 
HETATM    9  O   UNL     1      -9.941   8.561  72.384  1.00  0.00    -0.302 OA 
BRANCH   7  10
HETATM   10  C   UNL     1     -11.165   9.797  70.685  1.00  0.00    -0.334 C  
BRANCH  10  11
HETATM   11  O   UNL     1     -10.126  10.497  69.986  1.00  0.00    -0.121 OA 
BRANCH  11  12
HETATM   12  C   UNL     1     -10.468  11.046  68.778  1.00  0.00    -0.198 A  
HETATM   13  C   UNL     1     -11.668  11.695  68.488  1.00  0.00    -0.378 A  
HETATM   14  C   UNL     1     -11.923  12.168  67.197  1.00  0.00    -0.149 A  
HETATM   15  C   UNL     1     -10.986  11.996  66.171  1.00  0.00    -0.343 A  
HETATM   16  C   UNL     1      -9.762  11.386  66.476  1.00  0.00    -0.226 A  
HETATM   17  C   UNL     1      -9.511  10.910  67.768  1.00  0.00    -0.165 A  
BRANCH  15  18
HETATM   18  C   UNL     1     -11.323  12.404  64.755  1.00  0.00    -0.360 C  
BRANCH  18  19
HETATM   19  C   UNL     1     -10.648  11.667  63.614  1.00  0.00    -0.433 C  
HETATM   20  N   UNL     1     -11.251  10.564  63.095  1.00  0.00     0.467 N  
HETATM   21  O   UNL     1      -9.576  12.046  63.150  1.00  0.00    -0.365 OA 
HETATM   22  H2  UNL     1     -12.143  10.237  63.467  1.00  0.00     0.000 HD 
HETATM   23  H1  UNL     1     -10.796  10.068  62.328  1.00  0.00     0.000 HD 
ENDBRANCH  18  19
ENDBRANCH  15  18
ENDBRANCH  11  12
ENDBRANCH  10  11
ENDBRANCH   7  10
ENDBRANCH   6   7
ENDBRANCH   4   6
ENDBRANCH   2   4
TORSDOF 8
ENDMDL
MODEL      232
REMARK 921   NORMALIZED FREE ENERGY PREDICTED BY IDOCK:   -2.61 KCAL/MOL
REMARK 922        TOTAL FREE ENERGY PREDICTED BY IDOCK:   -4.40 KCAL/MOL
REMARK 923 INTER-LIGAND FREE ENERGY PREDICTED BY IDOCK:   -3.83 KCAL/MOL
REMARK 924 INTRA-LIGAND FREE ENERGY PREDICTED BY IDOCK:   -0.56 KCAL/MOL
REMARK 927      BINDING AFFINITY PREDICTED BY RF-SCORE:    0.00 PKD
ROOT
HETATM    1  C   UNL     1      -9.495   3.756  63.971  1.00  0.00    -0.153 C  
HETATM    2  C   UNL     1      -8.372   4.761  64.232  1.00  0.00    -0.127 C  
HETATM    3  C   UNL     1      -8.161   5.628  62.988  1.00  0.00    -0.093 C  
ENDROOT
BRANCH   2   4
HETATM    4  N   UNL     1      -8.737   5.565  65.402  1.00  0.00    -0.154 NA 
HETATM    5  H   UNL     1      -8.615   5.029  66.261  1.00  0.00     0.000 HD 
BRANCH   4   6
HETATM    6  C   UNL     1      -8.017   6.844  65.480  1.00  0.00    -0.126 C  
BRANCH   6   7
HETATM    7  C   UNL     1      -8.995   7.991  65.799  1.00  0.00    -0.102 C  
HETATM    8  H   UNL     1     -10.744   8.182  66.689  1.00  0.00     0.000 HD 
HETATM    9  O   UNL     1     -10.141   7.474  66.492  1.00  0.00    -0.213 OA 
BRANCH   7  10
HETATM   10  C   UNL     1      -8.317   9.075  66.647  1.00  0.00    -0.118 C  
BRANCH  10  11
HETATM   11  O   UNL     1      -7.533   8.455  67.677  1.00  0.00    -0.091 OA 
BRANCH  11  12
HETATM   12  C   UNL     1      -8.072   8.460  68.937  1.00  0.00    -0.114 A  
HETATM   13  C   UNL     1      -8.586   9.574  69.599  1.00  0.00    -0.189 A  
HETATM   14  C   UNL     1      -9.061   9.462  70.910  1.00  0.00    -0.220 A  
HETATM   15  C   UNL     1      -9.027   8.235  71.584  1.00  0.00    -0.235 A  
HETATM   16  C   UNL     1      -8.554   7.108  70.899  1.00  0.00    -0.138 A  
HETATM   17  C   UNL     1      -8.074   7.223  69.589  1.00  0.00    -0.129 A  
BRANCH  15  18
HETATM   18  C   UNL     1      -9.431   8.153  73.038  1.00  0.00    -0.333 C  
BRANCH  18  19
HETATM   19  C   UNL     1     -10.633   7.303  73.403  1.00  0.00    -0.389 C  
HETATM   20  N   UNL     1     -11.852   7.637  72.901  1.00  0.00    -0.607 N  
HETATM   21  O   UNL     1     -10.528   6.323  74.136  1.00  0.00    -0.301 OA 
HETATM   22  H2  UNL     1     -11.956   8.446  72.288  1.00  0.00     0.000 HD 
HETATM   23  H1  UNL     1     -12.661   7.066  73.147  1.00  0.00     0.000 HD 
ENDBRANCH  18  19
ENDBRANCH  15  18
ENDBRANCH  11  12
ENDBRANCH  10  11
ENDBRANCH   7  10
ENDBRANCH   6   7
ENDBRANCH   4   6
ENDBRANCH   2   4
TORSDOF 8
ENDMDL
MODEL      233
REMARK 921   NORMALIZED FREE ENERGY PREDICTED BY IDOCK:   -2.58 KCAL/MOL
REMARK 922        TOTAL FREE ENERGY PREDICTED BY IDOCK:   -4.36 KCAL/MOL
REMARK 923 INTER-LIGAND FREE ENERGY PREDICTED BY IDOCK:   -3.89 KCAL/MOL
REMARK 924 INTRA-LIGAND FREE ENERGY PREDICTED BY IDOCK:   -0.47 KCAL/MOL
REMARK 927      BINDING AFFINITY PREDICTED BY RF-SCORE:    0.00 PKD
ROOT
HETATM    1  C   UNL     1      -7.501   3.561  66.312  1.00  0.00    -0.077 C  
HETATM    2  C   UNL     1      -6.988   3.295  67.728  1.00  0.00    -0.050 C  
HETATM    3  C   UNL     1      -5.763   4.171  68.001  1.00  0.00    -0.022 C  
ENDROOT
BRANCH   2   4
HETATM    4  N   UNL     1      -8.076   3.568  68.671  1.00  0.00    -0.065 NA 
HETATM    5  H   UNL     1      -8.207   2.783  69.309  1.00  0.00     0.000 HD 
BRANCH   4   6
HETATM    6  C   UNL     1      -7.902   4.821  69.418  1.00  0.00    -0.063 C  
BRANCH   6   7
HETATM    7  C   UNL     1      -9.070   5.784  69.129  1.00  0.00    -0.117 C  
HETATM    8  H   UNL     1     -10.835   6.177  69.914  1.00  0.00     0.000 HD 
HETATM    9  O   UNL     1     -10.115   5.584  70.092  1.00  0.00    -0.200 OA 
BRANCH   7  10
HETATM   10  C   UNL     1      -8.602   7.245  69.163  1.00  0.00    -0.133 C  
BRANCH  10  11
HETATM   11  O   UNL     1      -8.195   7.646  67.846  1.00  0.00    -0.121 OA 
BRANCH  11  12
HETATM   12  C   UNL     1      -8.813   8.754  67.329  1.00  0.00    -0.132 A  
HETATM   13  C   UNL     1      -9.327   8.872  66.039  1.00  0.00    -0.306 A  
HETATM   14  C   UNL     1      -9.890  10.079  65.608  1.00  0.00    -0.363 A  
HETATM   15  C   UNL     1      -9.944  11.189  66.459  1.00  0.00    -0.252 A  
HETATM   16  C   UNL     1      -9.470  11.053  67.770  1.00  0.00    -0.169 A  
HETATM   17  C   UNL     1      -8.903   9.846  68.197  1.00  0.00    -0.118 A  
BRANCH  15  18
HETATM   18  C   UNL     1     -10.444  12.520  65.944  1.00  0.00    -0.289 C  
BRANCH  18  19
HETATM   19  C   UNL     1     -11.481  12.519  64.838  1.00  0.00    -0.325 C  
HETATM   20  N   UNL     1     -11.100  12.864  63.578  1.00  0.00    -0.576 N  
HETATM   21  O   UNL     1     -12.650  12.210  65.053  1.00  0.00    -0.514 OA 
HETATM   22  H2  UNL     1     -10.132  13.119  63.382  1.00  0.00     0.000 HD 
HETATM   23  H1  UNL     1     -11.798  12.863  62.834  1.00  0.00     0.000 HD 
ENDBRANCH  18  19
ENDBRANCH  15  18
ENDBRANCH  11  12
ENDBRANCH  10  11
ENDBRANCH   7  10
ENDBRANCH   6   7
ENDBRANCH   4   6
ENDBRANCH   2   4
TORSDOF 8
ENDMDL
MODEL      234
REMARK 921   NORMALIZED FREE ENERGY PREDICTED BY IDOCK:   -2.58 KCAL/MOL
REMARK 922        TOTAL FREE ENERGY PREDICTED BY IDOCK:   -4.35 KCAL/MOL
REMARK 923 INTER-LIGAND FREE ENERGY PREDICTED BY IDOCK:   -3.48 KCAL/MOL
REMARK 924 INTRA-LIGAND FREE ENERGY PREDICTED BY IDOCK:   -0.88 KCAL/MOL
REMARK 927      BINDING AFFINITY PREDICTED BY RF-SCORE:    0.00 PKD
ROOT
HETATM    1  C   UNL     1      -9.319   4.921  66.736  1.00  0.00    -0.141 C  
HETATM    2  C   UNL     1      -9.266   6.273  67.449  1.00  0.00    -0.116 C  
HETATM    3  C   UNL     1     -10.665   6.895  67.470  1.00  0.00    -0.368 C  
ENDROOT
BRANCH   2   4
HETATM    4  N   UNL     1      -8.743   6.061  68.802  1.00  0.00    -0.111 NA 
HETATM    5  H   UNL     1      -8.975   6.848  69.407  1.00  0.00     0.000 HD 
BRANCH   4   6
HETATM    6  C   UNL     1      -9.180   4.794  69.406  1.00  0.00    -0.114 C  
BRANCH   6   7
HETATM    7  C   UNL     1      -9.751   5.042  70.815  1.00  0.00    -0.196 C  
HETATM    8  H   UNL     1     -10.108   3.968  72.429  1.00  0.00     0.000 HD 
HETATM    9  O   UNL     1      -9.756   3.815  71.560  1.00  0.00    -0.155 OA 
BRANCH   7  10
HETATM   10  C   UNL     1      -8.933   6.103  71.563  1.00  0.00    -0.143 C  
BRANCH  10  11
HETATM   11  O   UNL     1      -9.796   7.181  71.956  1.00  0.00    -0.159 OA 
BRANCH  11  12
HETATM   12  C   UNL     1      -9.847   8.259  71.111  1.00  0.00    -0.175 A  
HETATM   13  C   UNL     1     -11.004   8.807  70.559  1.00  0.00    -0.272 A  
HETATM   14  C   UNL     1     -10.923   9.879  69.664  1.00  0.00    -0.285 A  
HETATM   15  C   UNL     1      -9.682  10.418  69.301  1.00  0.00    -0.231 A  
HETATM   16  C   UNL     1      -8.525   9.896  69.894  1.00  0.00    -0.210 A  
HETATM   17  C   UNL     1      -8.609   8.820  70.786  1.00  0.00    -0.218 A  
BRANCH  15  18
HETATM   18  C   UNL     1      -9.600  11.495  68.243  1.00  0.00    -0.189 C  
BRANCH  18  19
HETATM   19  C   UNL     1      -8.273  11.714  67.541  1.00  0.00    -0.148 C  
HETATM   20  N   UNL     1      -7.870  10.818  66.601  1.00  0.00    -0.134 N  
HETATM   21  O   UNL     1      -7.561  12.681  67.801  1.00  0.00    -0.115 OA 
HETATM   22  H2  UNL     1      -8.451  10.011  66.371  1.00  0.00     0.000 HD 
HETATM   23  H1  UNL     1      -6.978  10.965  66.129  1.00  0.00     0.000 HD 
ENDBRANCH  18  19
ENDBRANCH  15  18
ENDBRANCH  11  12
ENDBRANCH  10  11
ENDBRANCH   7  10
ENDBRANCH   6   7
ENDBRANCH   4   6
ENDBRANCH   2   4
TORSDOF 8
ENDMDL
MODEL      235
REMARK 921   NORMALIZED FREE ENERGY PREDICTED BY IDOCK:   -2.57 KCAL/MOL
REMARK 922        TOTAL FREE ENERGY PREDICTED BY IDOCK:   -4.35 KCAL/MOL
REMARK 923 INTER-LIGAND FREE ENERGY PREDICTED BY IDOCK:   -4.27 KCAL/MOL
REMARK 924 INTRA-LIGAND FREE ENERGY PREDICTED BY IDOCK:   -0.08 KCAL/MOL
REMARK 927      BINDING AFFINITY PREDICTED BY RF-SCORE:    0.00 PKD
ROOT
HETATM    1  C   UNL     1      -9.688   9.495  70.598  1.00  0.00    -0.311 C  
HETATM    2  C   UNL     1     -10.496   8.280  70.140  1.00  0.00    -0.225 C  
HETATM    3  C   UNL     1     -11.972   8.486  70.490  1.00  0.00     0.055 C  
ENDROOT
BRANCH   2   4
HETATM    4  N   UNL     1     -10.295   8.109  68.698  1.00  0.00    -0.208 NA 
HETATM    5  H   UNL     1     -11.157   8.303  68.188  1.00  0.00     0.000 HD 
BRANCH   4   6
HETATM    6  C   UNL     1      -9.184   8.907  68.164  1.00  0.00    -0.139 C  
BRANCH   6   7
HETATM    7  C   UNL     1      -9.664  10.330  67.817  1.00  0.00    -0.156 C  
HETATM    8  H   UNL     1      -9.045  11.818  66.682  1.00  0.00     0.000 HD 
HETATM    9  O   UNL     1      -8.749  10.941  66.896  1.00  0.00    -0.139 OA 
BRANCH   7  10
HETATM   10  C   UNL     1     -11.074  10.305  67.213  1.00  0.00    -0.142 C  
BRANCH  10  11
HETATM   11  O   UNL     1     -11.469  11.640  66.866  1.00  0.00    -0.426 OA 
BRANCH  11  12
HETATM   12  C   UNL     1     -11.705  12.496  67.911  1.00  0.00    -0.359 A  
HETATM   13  C   UNL     1     -12.355  12.169  69.100  1.00  0.00     0.091 A  
HETATM   14  C   UNL     1     -12.585  13.147  70.074  1.00  0.00    -0.014 A  
HETATM   15  C   UNL     1     -12.173  14.470  69.872  1.00  0.00    -0.379 A  
HETATM   16  C   UNL     1     -11.479  14.785  68.697  1.00  0.00    -0.325 A  
HETATM   17  C   UNL     1     -11.254  13.805  67.723  1.00  0.00    -0.312 A  
BRANCH  15  18
HETATM   18  C   UNL     1     -12.533  15.541  70.877  1.00  0.00    -0.494 C  
BRANCH  18  19
HETATM   19  C   UNL     1     -12.187  15.305  72.334  1.00  0.00    -0.383 C  
HETATM   20  N   UNL     1     -13.188  15.025  73.212  1.00  0.00    -0.478 N  
HETATM   21  O   UNL     1     -11.027  15.358  72.735  1.00  0.00     0.077 OA 
HETATM   22  H2  UNL     1     -14.156  14.975  72.895  1.00  0.00     0.000 HD 
HETATM   23  H1  UNL     1     -12.954  14.867  74.192  1.00  0.00     0.000 HD 
ENDBRANCH  18  19
ENDBRANCH  15  18
ENDBRANCH  11  12
ENDBRANCH  10  11
ENDBRANCH   7  10
ENDBRANCH   6   7
ENDBRANCH   4   6
ENDBRANCH   2   4
TORSDOF 8
ENDMDL
MODEL      236
REMARK 921   NORMALIZED FREE ENERGY PREDICTED BY IDOCK:   -2.56 KCAL/MOL
REMARK 922        TOTAL FREE ENERGY PREDICTED BY IDOCK:   -4.34 KCAL/MOL
REMARK 923 INTER-LIGAND FREE ENERGY PREDICTED BY IDOCK:   -4.66 KCAL/MOL
REMARK 924 INTRA-LIGAND FREE ENERGY PREDICTED BY IDOCK:    0.33 KCAL/MOL
REMARK 927      BINDING AFFINITY PREDICTED BY RF-SCORE:    0.00 PKD
ROOT
HETATM    1  C   UNL     1      -9.721  11.203  64.732  1.00  0.00    -0.303 C  
HETATM    2  C   UNL     1     -10.396  12.204  63.793  1.00  0.00    -0.437 C  
HETATM    3  C   UNL     1     -11.841  11.769  63.534  1.00  0.00    -0.481 C  
ENDROOT
BRANCH   2   4
HETATM    4  N   UNL     1     -10.328  13.532  64.409  1.00  0.00    -0.635 NA 
HETATM    5  H   UNL     1      -9.653  14.123  63.923  1.00  0.00     0.000 HD 
BRANCH   4   6
HETATM    6  C   UNL     1     -11.633  14.202  64.502  1.00  0.00    -0.389 C  
BRANCH   6   7
HETATM    7  C   UNL     1     -12.048  14.363  65.977  1.00  0.00    -0.357 C  
HETATM    8  H   UNL     1     -13.405  13.590  67.180  1.00  0.00     0.000 HD 
HETATM    9  O   UNL     1     -13.148  13.490  66.271  1.00  0.00    -0.029 OA 
BRANCH   7  10
HETATM   10  C   UNL     1     -10.875  14.060  66.917  1.00  0.00    -0.290 C  
BRANCH  10  11
HETATM   11  O   UNL     1     -11.213  12.947  67.759  1.00  0.00    -0.253 OA 
BRANCH  11  12
HETATM   12  C   UNL     1     -10.390  11.854  67.682  1.00  0.00    -0.200 A  
HETATM   13  C   UNL     1     -10.805  10.528  67.571  1.00  0.00    -0.357 A  
HETATM   14  C   UNL     1      -9.867   9.491  67.555  1.00  0.00    -0.213 A  
HETATM   15  C   UNL     1      -8.497   9.761  67.656  1.00  0.00    -0.122 A  
HETATM   16  C   UNL     1      -8.080  11.097  67.721  1.00  0.00    -0.117 A  
HETATM   17  C   UNL     1      -9.021  12.133  67.741  1.00  0.00    -0.179 A  
BRANCH  15  18
HETATM   18  C   UNL     1      -7.502   8.627  67.759  1.00  0.00    -0.097 C  
BRANCH  18  19
HETATM   19  C   UNL     1      -7.118   7.890  66.491  1.00  0.00    -0.075 C  
HETATM   20  N   UNL     1      -7.274   8.516  65.293  1.00  0.00    -0.082 N  
HETATM   21  O   UNL     1      -6.668   6.748  66.523  1.00  0.00    -0.046 OA 
HETATM   22  H2  UNL     1      -7.643   9.465  65.249  1.00  0.00     0.000 HD 
HETATM   23  H1  UNL     1      -7.015   8.019  64.440  1.00  0.00     0.000 HD 
ENDBRANCH  18  19
ENDBRANCH  15  18
ENDBRANCH  11  12
ENDBRANCH  10  11
ENDBRANCH   7  10
ENDBRANCH   6   7
ENDBRANCH   4   6
ENDBRANCH   2   4
TORSDOF 8
ENDMDL
MODEL      237
REMARK 921   NORMALIZED FREE ENERGY PREDICTED BY IDOCK:   -2.55 KCAL/MOL
REMARK 922        TOTAL FREE ENERGY PREDICTED BY IDOCK:   -4.32 KCAL/MOL
REMARK 923 INTER-LIGAND FREE ENERGY PREDICTED BY IDOCK:   -3.20 KCAL/MOL
REMARK 924 INTRA-LIGAND FREE ENERGY PREDICTED BY IDOCK:   -1.12 KCAL/MOL
REMARK 927      BINDING AFFINITY PREDICTED BY RF-SCORE:    0.00 PKD
ROOT
HETATM    1  C   UNL     1      -7.948   5.856  65.639  1.00  0.00    -0.118 C  
HETATM    2  C   UNL     1      -8.960   5.088  64.787  1.00  0.00    -0.094 C  
HETATM    3  C   UNL     1      -8.403   4.906  63.372  1.00  0.00    -0.115 C  
ENDROOT
BRANCH   2   4
HETATM    4  N   UNL     1      -9.228   3.801  65.437  1.00  0.00    -0.144 NA 
HETATM    5  H   UNL     1     -10.225   3.589  65.420  1.00  0.00     0.000 HD 
BRANCH   4   6
HETATM    6  C   UNL     1      -8.448   2.689  64.877  1.00  0.00    -0.095 C  
BRANCH   6   7
HETATM    7  C   UNL     1      -7.497   2.111  65.942  1.00  0.00    -0.067 C  
HETATM    8  H   UNL     1      -5.639   2.414  66.526  1.00  0.00     0.000 HD 
HETATM    9  O   UNL     1      -6.225   2.771  65.868  1.00  0.00    -0.023 OA 
BRANCH   7  10
HETATM   10  C   UNL     1      -8.086   2.267  67.351  1.00  0.00    -0.066 C  
BRANCH  10  11
HETATM   11  O   UNL     1      -7.408   3.331  68.036  1.00  0.00    -0.053 OA 
BRANCH  11  12
HETATM   12  C   UNL     1      -8.174   4.104  68.869  1.00  0.00    -0.071 A  
HETATM   13  C   UNL     1      -9.552   3.991  69.046  1.00  0.00    -0.223 A  
HETATM   14  C   UNL     1     -10.233   4.877  69.888  1.00  0.00    -0.299 A  
HETATM   15  C   UNL     1      -9.548   5.895  70.562  1.00  0.00    -0.208 A  
HETATM   16  C   UNL     1      -8.157   5.976  70.419  1.00  0.00    -0.111 A  
HETATM   17  C   UNL     1      -7.479   5.091  69.573  1.00  0.00    -0.057 A  
BRANCH  15  18
HETATM   18  C   UNL     1     -10.311   6.918  71.372  1.00  0.00    -0.219 C  
BRANCH  18  19
HETATM   19  C   UNL     1     -11.747   6.611  71.751  1.00  0.00    -0.318 C  
HETATM   20  N   UNL     1     -11.987   5.791  72.809  1.00  0.00    -0.539 N  
HETATM   21  O   UNL     1     -12.692   7.088  71.128  1.00  0.00    -0.381 OA 
HETATM   22  H2  UNL     1     -11.214   5.389  73.339  1.00  0.00     0.000 HD 
HETATM   23  H1  UNL     1     -12.953   5.584  73.064  1.00  0.00     0.000 HD 
ENDBRANCH  18  19
ENDBRANCH  15  18
ENDBRANCH  11  12
ENDBRANCH  10  11
ENDBRANCH   7  10
ENDBRANCH   6   7
ENDBRANCH   4   6
ENDBRANCH   2   4
TORSDOF 8
ENDMDL
MODEL      238
REMARK 921   NORMALIZED FREE ENERGY PREDICTED BY IDOCK:   -2.51 KCAL/MOL
REMARK 922        TOTAL FREE ENERGY PREDICTED BY IDOCK:   -4.26 KCAL/MOL
REMARK 923 INTER-LIGAND FREE ENERGY PREDICTED BY IDOCK:   -3.86 KCAL/MOL
REMARK 924 INTRA-LIGAND FREE ENERGY PREDICTED BY IDOCK:   -0.40 KCAL/MOL
REMARK 927      BINDING AFFINITY PREDICTED BY RF-SCORE:    0.00 PKD
ROOT
HETATM    1  C   UNL     1      -8.770  15.611  69.386  1.00  0.00    -0.249 C  
HETATM    2  C   UNL     1      -8.825  14.696  68.161  1.00  0.00    -0.173 C  
HETATM    3  C   UNL     1      -8.520  15.510  66.901  1.00  0.00    -0.289 C  
ENDROOT
BRANCH   2   4
HETATM    4  N   UNL     1      -7.861  13.609  68.355  1.00  0.00    -0.135 NA 
HETATM    5  H   UNL     1      -8.068  13.090  69.209  1.00  0.00     0.000 HD 
BRANCH   4   6
HETATM    6  C   UNL     1      -7.766  12.700  67.204  1.00  0.00    -0.091 C  
BRANCH   6   7
HETATM    7  C   UNL     1      -8.015  11.245  67.649  1.00  0.00    -0.118 C  
HETATM    8  H   UNL     1      -8.781  10.335  69.221  1.00  0.00     0.000 HD 
HETATM    9  O   UNL     1      -8.627  11.232  68.947  1.00  0.00    -0.138 OA 
BRANCH   7  10
HETATM   10  C   UNL     1      -8.907  10.506  66.643  1.00  0.00    -0.136 C  
BRANCH  10  11
HETATM   11  O   UNL     1      -9.793   9.624  67.348  1.00  0.00    -0.157 OA 
BRANCH  11  12
HETATM   12  C   UNL     1      -9.613   8.282  67.134  1.00  0.00    -0.180 A  
HETATM   13  C   UNL     1      -8.427   7.675  66.725  1.00  0.00    -0.127 A  
HETATM   14  C   UNL     1      -8.383   6.296  66.488  1.00  0.00    -0.114 A  
HETATM   15  C   UNL     1      -9.526   5.503  66.650  1.00  0.00    -0.154 A  
HETATM   16  C   UNL     1     -10.703   6.109  67.107  1.00  0.00    -0.422 A  
HETATM   17  C   UNL     1     -10.746   7.489  67.339  1.00  0.00    -0.331 A  
BRANCH  15  18
HETATM   18  C   UNL     1      -9.496   4.039  66.276  1.00  0.00    -0.199 C  
BRANCH  18  19
HETATM   19  C   UNL     1      -9.768   3.660  64.833  1.00  0.00    -0.172 C  
HETATM   20  N   UNL     1     -10.923   4.079  64.249  1.00  0.00    -0.580 N  
HETATM   21  O   UNL     1      -8.970   2.989  64.183  1.00  0.00    -0.100 OA 
HETATM   22  H2  UNL     1     -11.595   4.640  64.774  1.00  0.00     0.000 HD 
HETATM   23  H1  UNL     1     -11.106   3.824  63.278  1.00  0.00     0.000 HD 
ENDBRANCH  18  19
ENDBRANCH  15  18
ENDBRANCH  11  12
ENDBRANCH  10  11
ENDBRANCH   7  10
ENDBRANCH   6   7
ENDBRANCH   4   6
ENDBRANCH   2   4
TORSDOF 8
ENDMDL
MODEL      239
REMARK 921   NORMALIZED FREE ENERGY PREDICTED BY IDOCK:   -2.48 KCAL/MOL
REMARK 922        TOTAL FREE ENERGY PREDICTED BY IDOCK:   -4.21 KCAL/MOL
REMARK 923 INTER-LIGAND FREE ENERGY PREDICTED BY IDOCK:   -3.73 KCAL/MOL
REMARK 924 INTRA-LIGAND FREE ENERGY PREDICTED BY IDOCK:   -0.48 KCAL/MOL
REMARK 927      BINDING AFFINITY PREDICTED BY RF-SCORE:    0.00 PKD
ROOT
HETATM    1  C   UNL     1     -13.246   7.265  71.510  1.00  0.00    -0.434 C  
HETATM    2  C   UNL     1     -12.335   8.493  71.561  1.00  0.00    -0.314 C  
HETATM    3  C   UNL     1     -12.833   9.455  72.644  1.00  0.00    -0.178 C  
ENDROOT
BRANCH   2   4
HETATM    4  N   UNL     1     -10.965   8.040  71.822  1.00  0.00    -0.240 NA 
HETATM    5  H   UNL     1     -10.958   7.287  72.511  1.00  0.00     0.000 HD 
BRANCH   4   6
HETATM    6  C   UNL     1     -10.241   7.640  70.608  1.00  0.00    -0.199 C  
BRANCH   6   7
HETATM    7  C   UNL     1      -9.463   8.837  70.029  1.00  0.00    -0.169 C  
HETATM    8  H   UNL     1      -7.594   9.236  69.542  1.00  0.00     0.000 HD 
HETATM    9  O   UNL     1      -8.074   8.498  69.899  1.00  0.00    -0.111 OA 
BRANCH   7  10
HETATM   10  C   UNL     1     -10.028   9.257  68.666  1.00  0.00    -0.178 C  
BRANCH  10  11
HETATM   11  O   UNL     1     -11.008  10.288  68.852  1.00  0.00    -0.219 OA 
BRANCH  11  12
HETATM   12  C   UNL     1     -10.553  11.579  68.793  1.00  0.00    -0.211 A  
HETATM   13  C   UNL     1     -11.011  12.641  69.572  1.00  0.00     0.046 A  
HETATM   14  C   UNL     1     -10.502  13.930  69.381  1.00  0.00     0.092 A  
HETATM   15  C   UNL     1      -9.532  14.181  68.403  1.00  0.00    -0.214 A  
HETATM   16  C   UNL     1      -9.040  13.104  67.655  1.00  0.00    -0.201 A  
HETATM   17  C   UNL     1      -9.553  11.816  67.845  1.00  0.00    -0.187 A  
BRANCH  15  18
HETATM   18  C   UNL     1      -9.079  15.596  68.125  1.00  0.00    -0.181 C  
BRANCH  18  19
HETATM   19  C   UNL     1      -9.812  16.390  67.060  1.00  0.00    -0.251 C  
HETATM   20  N   UNL     1     -10.586  15.725  66.160  1.00  0.00    -0.311 N  
HETATM   21  O   UNL     1      -9.725  17.613  66.997  1.00  0.00    -0.273 OA 
HETATM   22  H2  UNL     1     -10.671  14.710  66.201  1.00  0.00     0.000 HD 
HETATM   23  H1  UNL     1     -11.079  16.259  65.444  1.00  0.00     0.000 HD 
ENDBRANCH  18  19
ENDBRANCH  15  18
ENDBRANCH  11  12
ENDBRANCH  10  11
ENDBRANCH   7  10
ENDBRANCH   6   7
ENDBRANCH   4   6
ENDBRANCH   2   4
TORSDOF 8
ENDMDL
MODEL      240
REMARK 921   NORMALIZED FREE ENERGY PREDICTED BY IDOCK:   -2.48 KCAL/MOL
REMARK 922        TOTAL FREE ENERGY PREDICTED BY IDOCK:   -4.21 KCAL/MOL
REMARK 923 INTER-LIGAND FREE ENERGY PREDICTED BY IDOCK:   -3.81 KCAL/MOL
REMARK 924 INTRA-LIGAND FREE ENERGY PREDICTED BY IDOCK:   -0.40 KCAL/MOL
REMARK 927      BINDING AFFINITY PREDICTED BY RF-SCORE:    0.00 PKD
ROOT
HETATM    1  C   UNL     1      -9.955   4.193  63.743  1.00  0.00    -0.094 C  
HETATM    2  C   UNL     1      -8.731   5.034  64.105  1.00  0.00    -0.097 C  
HETATM    3  C   UNL     1      -8.091   5.583  62.827  1.00  0.00    -0.101 C  
ENDROOT
BRANCH   2   4
HETATM    4  N   UNL     1      -9.159   6.108  65.006  1.00  0.00    -0.328 NA 
HETATM    5  H   UNL     1      -9.412   5.733  65.920  1.00  0.00     0.000 HD 
BRANCH   4   6
HETATM    6  C   UNL     1      -8.172   7.187  65.141  1.00  0.00    -0.113 C  
BRANCH   6   7
HETATM    7  C   UNL     1      -8.852   8.477  65.640  1.00  0.00    -0.173 C  
HETATM    8  H   UNL     1     -10.542   8.955  66.536  1.00  0.00     0.000 HD 
HETATM    9  O   UNL     1     -10.122   8.160  66.228  1.00  0.00    -0.197 OA 
BRANCH   7  10
HETATM   10  C   UNL     1      -7.971   9.206  66.662  1.00  0.00    -0.104 C  
BRANCH  10  11
HETATM   11  O   UNL     1      -8.803   9.836  67.647  1.00  0.00    -0.125 OA 
BRANCH  11  12
HETATM   12  C   UNL     1      -8.988  11.187  67.513  1.00  0.00    -0.139 A  
HETATM   13  C   UNL     1      -7.996  12.160  67.624  1.00  0.00    -0.157 A  
HETATM   14  C   UNL     1      -8.320  13.517  67.519  1.00  0.00    -0.185 A  
HETATM   15  C   UNL     1      -9.643  13.925  67.307  1.00  0.00    -0.243 A  
HETATM   16  C   UNL     1     -10.630  12.943  67.148  1.00  0.00    -0.246 A  
HETATM   17  C   UNL     1     -10.303  11.586  67.258  1.00  0.00    -0.236 A  
BRANCH  15  18
HETATM   18  C   UNL     1      -9.998  15.394  67.316  1.00  0.00    -0.226 C  
BRANCH  18  19
HETATM   19  C   UNL     1     -10.265  16.077  65.988  1.00  0.00    -0.341 C  
HETATM   20  N   UNL     1     -10.474  17.421  65.970  1.00  0.00    -0.334 N  
HETATM   21  O   UNL     1     -10.293  15.446  64.935  1.00  0.00    -0.367 OA 
HETATM   22  H2  UNL     1     -10.452  17.961  66.836  1.00  0.00     0.000 HD 
HETATM   23  H1  UNL     1     -10.654  17.881  65.077  1.00  0.00     0.000 HD 
ENDBRANCH  18  19
ENDBRANCH  15  18
ENDBRANCH  11  12
ENDBRANCH  10  11
ENDBRANCH   7  10
ENDBRANCH   6   7
ENDBRANCH   4   6
ENDBRANCH   2   4
TORSDOF 8
ENDMDL
MODEL      241
REMARK 921   NORMALIZED FREE ENERGY PREDICTED BY IDOCK:   -2.48 KCAL/MOL
REMARK 922        TOTAL FREE ENERGY PREDICTED BY IDOCK:   -4.21 KCAL/MOL
REMARK 923 INTER-LIGAND FREE ENERGY PREDICTED BY IDOCK:   -3.77 KCAL/MOL
REMARK 924 INTRA-LIGAND FREE ENERGY PREDICTED BY IDOCK:   -0.44 KCAL/MOL
REMARK 927      BINDING AFFINITY PREDICTED BY RF-SCORE:    0.00 PKD
ROOT
HETATM    1  C   UNL     1      -9.332  15.408  69.265  1.00  0.00    -0.254 C  
HETATM    2  C   UNL     1      -9.863  14.833  67.951  1.00  0.00    -0.212 C  
HETATM    3  C   UNL     1      -9.630  15.840  66.821  1.00  0.00    -0.253 C  
ENDROOT
BRANCH   2   4
HETATM    4  N   UNL     1      -9.183  13.560  67.696  1.00  0.00    -0.204 NA 
HETATM    5  H   UNL     1      -9.457  12.860  68.385  1.00  0.00     0.000 HD 
BRANCH   4   6
HETATM    6  C   UNL     1      -9.382  13.054  66.331  1.00  0.00    -0.182 C  
BRANCH   6   7
HETATM    7  C   UNL     1      -9.358  11.513  66.323  1.00  0.00    -0.213 C  
HETATM    8  H   UNL     1      -8.711  10.093  65.117  1.00  0.00     0.000 HD 
HETATM    9  O   UNL     1      -8.726  11.043  65.123  1.00  0.00    -0.161 OA 
BRANCH   7  10
HETATM   10  C   UNL     1      -8.618  10.966  67.550  1.00  0.00    -0.127 C  
BRANCH  10  11
HETATM   11  O   UNL     1      -8.242   9.602  67.312  1.00  0.00    -0.113 OA 
BRANCH  11  12
HETATM   12  C   UNL     1      -8.849   8.657  68.098  1.00  0.00    -0.142 A  
HETATM   13  C   UNL     1     -10.147   8.729  68.602  1.00  0.00    -0.207 A  
HETATM   14  C   UNL     1     -10.638   7.722  69.441  1.00  0.00    -0.211 A  
HETATM   15  C   UNL     1      -9.838   6.629  69.793  1.00  0.00    -0.174 A  
HETATM   16  C   UNL     1      -8.551   6.536  69.247  1.00  0.00    -0.127 A  
HETATM   17  C   UNL     1      -8.061   7.546  68.412  1.00  0.00    -0.125 A  
BRANCH  15  18
HETATM   18  C   UNL     1     -10.337   5.611  70.794  1.00  0.00    -0.310 C  
BRANCH  18  19
HETATM   19  C   UNL     1     -10.923   6.114  72.099  1.00  0.00    -0.262 C  
HETATM   20  N   UNL     1     -10.079   6.517  73.087  1.00  0.00    -0.181 N  
HETATM   21  O   UNL     1     -12.137   6.167  72.280  1.00  0.00    -0.311 OA 
HETATM   22  H2  UNL     1      -9.069   6.482  72.952  1.00  0.00     0.000 HD 
HETATM   23  H1  UNL     1     -10.474   6.855  73.965  1.00  0.00     0.000 HD 
ENDBRANCH  18  19
ENDBRANCH  15  18
ENDBRANCH  11  12
ENDBRANCH  10  11
ENDBRANCH   7  10
ENDBRANCH   6   7
ENDBRANCH   4   6
ENDBRANCH   2   4
TORSDOF 8
ENDMDL
MODEL      242
REMARK 921   NORMALIZED FREE ENERGY PREDICTED BY IDOCK:   -2.42 KCAL/MOL
REMARK 922        TOTAL FREE ENERGY PREDICTED BY IDOCK:   -4.12 KCAL/MOL
REMARK 923 INTER-LIGAND FREE ENERGY PREDICTED BY IDOCK:   -3.07 KCAL/MOL
REMARK 924 INTRA-LIGAND FREE ENERGY PREDICTED BY IDOCK:   -1.05 KCAL/MOL
REMARK 927      BINDING AFFINITY PREDICTED BY RF-SCORE:    0.00 PKD
ROOT
HETATM    1  C   UNL     1      -7.302   5.584  65.097  1.00  0.00    -0.068 C  
HETATM    2  C   UNL     1      -8.415   5.083  64.176  1.00  0.00    -0.136 C  
HETATM    3  C   UNL     1      -7.798   4.414  62.945  1.00  0.00    -0.067 C  
ENDROOT
BRANCH   2   4
HETATM    4  N   UNL     1      -9.260   4.156  64.935  1.00  0.00    -0.145 NA 
HETATM    5  H   UNL     1     -10.235   4.236  64.647  1.00  0.00     0.000 HD 
BRANCH   4   6
HETATM    6  C   UNL     1      -8.809   2.759  64.861  1.00  0.00    -0.119 C  
BRANCH   6   7
HETATM    7  C   UNL     1      -8.453   2.236  66.266  1.00  0.00    -0.101 C  
HETATM    8  H   UNL     1      -6.828   2.074  67.370  1.00  0.00     0.000 HD 
HETATM    9  O   UNL     1      -7.047   2.397  66.504  1.00  0.00    -0.050 OA 
BRANCH   7  10
HETATM   10  C   UNL     1      -9.253   2.973  67.348  1.00  0.00    -0.189 C  
BRANCH  10  11
HETATM   11  O   UNL     1      -8.448   4.021  67.907  1.00  0.00    -0.093 OA 
BRANCH  11  12
HETATM   12  C   UNL     1      -9.114   5.147  68.318  1.00  0.00    -0.112 A  
HETATM   13  C   UNL     1     -10.408   5.507  67.949  1.00  0.00    -0.240 A  
HETATM   14  C   UNL     1     -10.962   6.713  68.394  1.00  0.00    -0.313 A  
HETATM   15  C   UNL     1     -10.228   7.580  69.212  1.00  0.00    -0.201 A  
HETATM   16  C   UNL     1      -8.945   7.193  69.620  1.00  0.00    -0.141 A  
HETATM   17  C   UNL     1      -8.392   5.988  69.169  1.00  0.00    -0.114 A  
BRANCH  15  18
HETATM   18  C   UNL     1     -10.791   8.932  69.587  1.00  0.00    -0.186 C  
BRANCH  18  19
HETATM   19  C   UNL     1     -10.510  10.108  68.671  1.00  0.00    -0.202 C  
HETATM   20  N   UNL     1     -11.326  10.322  67.604  1.00  0.00    -0.397 N  
HETATM   21  O   UNL     1      -9.567  10.869  68.875  1.00  0.00    -0.192 OA 
HETATM   22  H2  UNL     1     -12.114   9.701  67.423  1.00  0.00     0.000 HD 
HETATM   23  H1  UNL     1     -11.136  11.113  66.989  1.00  0.00     0.000 HD 
ENDBRANCH  18  19
ENDBRANCH  15  18
ENDBRANCH  11  12
ENDBRANCH  10  11
ENDBRANCH   7  10
ENDBRANCH   6   7
ENDBRANCH   4   6
ENDBRANCH   2   4
TORSDOF 8
ENDMDL
MODEL      243
REMARK 921   NORMALIZED FREE ENERGY PREDICTED BY IDOCK:   -2.31 KCAL/MOL
REMARK 922        TOTAL FREE ENERGY PREDICTED BY IDOCK:   -3.96 KCAL/MOL
REMARK 923 INTER-LIGAND FREE ENERGY PREDICTED BY IDOCK:   -3.24 KCAL/MOL
REMARK 924 INTRA-LIGAND FREE ENERGY PREDICTED BY IDOCK:   -0.73 KCAL/MOL
REMARK 927      BINDING AFFINITY PREDICTED BY RF-SCORE:    0.00 PKD
ROOT
HETATM    1  C   UNL     1      -6.812   4.483  68.938  1.00  0.00    -0.050 C  
HETATM    2  C   UNL     1      -8.070   4.175  69.751  1.00  0.00    -0.055 C  
HETATM    3  C   UNL     1      -7.692   3.961  71.219  1.00  0.00    -0.059 C  
ENDROOT
BRANCH   2   4
HETATM    4  N   UNL     1      -9.010   5.288  69.586  1.00  0.00    -0.106 NA 
HETATM    5  H   UNL     1      -9.199   5.458  68.599  1.00  0.00     0.000 HD 
BRANCH   4   6
HETATM    6  C   UNL     1     -10.262   5.112  70.334  1.00  0.00    -0.264 C  
BRANCH   6   7
HETATM    7  C   UNL     1     -10.669   6.433  71.016  1.00  0.00    -0.251 C  
HETATM    8  H   UNL     1      -9.775   7.844  72.064  1.00  0.00     0.000 HD 
HETATM    9  O   UNL     1      -9.524   7.029  71.643  1.00  0.00    -0.157 OA 
BRANCH   7  10
HETATM   10  C   UNL     1     -11.280   7.411  70.005  1.00  0.00    -0.180 C  
BRANCH  10  11
HETATM   11  O   UNL     1     -10.308   7.725  68.997  1.00  0.00    -0.205 OA 
BRANCH  11  12
HETATM   12  C   UNL     1     -10.296   9.018  68.543  1.00  0.00    -0.203 A  
HETATM   13  C   UNL     1     -10.886   9.473  67.365  1.00  0.00    -0.215 A  
HETATM   14  C   UNL     1     -10.760  10.813  66.981  1.00  0.00    -0.320 A  
HETATM   15  C   UNL     1     -10.038  11.719  67.767  1.00  0.00    -0.199 A  
HETATM   16  C   UNL     1      -9.487  11.270  68.974  1.00  0.00    -0.030 A  
HETATM   17  C   UNL     1      -9.611   9.928  69.353  1.00  0.00    -0.229 A  
BRANCH  15  18
HETATM   18  C   UNL     1      -9.808  13.132  67.282  1.00  0.00    -0.232 C  
BRANCH  18  19
HETATM   19  C   UNL     1      -8.511  13.821  67.661  1.00  0.00    -0.183 C  
HETATM   20  N   UNL     1      -8.562  14.949  68.419  1.00  0.00    -0.153 N  
HETATM   21  O   UNL     1      -7.422  13.381  67.303  1.00  0.00    -0.146 OA 
HETATM   22  H2  UNL     1      -9.458  15.326  68.728  1.00  0.00     0.000 HD 
HETATM   23  H1  UNL     1      -7.689  15.412  68.674  1.00  0.00     0.000 HD 
ENDBRANCH  18  19
ENDBRANCH  15  18
ENDBRANCH  11  12
ENDBRANCH  10  11
ENDBRANCH   7  10
ENDBRANCH   6   7
ENDBRANCH   4   6
ENDBRANCH   2   4
TORSDOF 8
ENDMDL
MODEL      244
REMARK 921   NORMALIZED FREE ENERGY PREDICTED BY IDOCK:   -2.30 KCAL/MOL
REMARK 922        TOTAL FREE ENERGY PREDICTED BY IDOCK:   -3.94 KCAL/MOL
REMARK 923 INTER-LIGAND FREE ENERGY PREDICTED BY IDOCK:   -3.45 KCAL/MOL
REMARK 924 INTRA-LIGAND FREE ENERGY PREDICTED BY IDOCK:   -0.49 KCAL/MOL
REMARK 927      BINDING AFFINITY PREDICTED BY RF-SCORE:    0.00 PKD
ROOT
HETATM    1  C   UNL     1      -6.523   4.891  65.744  1.00  0.00    -0.040 C  
HETATM    2  C   UNL     1      -6.712   3.381  65.598  1.00  0.00    -0.044 C  
HETATM    3  C   UNL     1      -6.628   2.718  66.976  1.00  0.00    -0.036 C  
ENDROOT
BRANCH   2   4
HETATM    4  N   UNL     1      -8.007   3.139  64.954  1.00  0.00    -0.082 NA 
HETATM    5  H   UNL     1      -8.025   2.219  64.514  1.00  0.00     0.000 HD 
BRANCH   4   6
HETATM    6  C   UNL     1      -9.151   3.304  65.861  1.00  0.00    -0.152 C  
BRANCH   6   7
HETATM    7  C   UNL     1     -10.047   4.464  65.387  1.00  0.00    -0.223 C  
HETATM    8  H   UNL     1     -11.613   4.681  64.209  1.00  0.00     0.000 HD 
HETATM    9  O   UNL     1     -11.060   3.965  64.502  1.00  0.00    -0.305 OA 
BRANCH   7  10
HETATM   10  C   UNL     1     -10.700   5.179  66.577  1.00  0.00    -0.193 C  
BRANCH  10  11
HETATM   11  O   UNL     1      -9.681   5.630  67.481  1.00  0.00    -0.114 OA 
BRANCH  11  12
HETATM   12  C   UNL     1      -9.715   6.957  67.825  1.00  0.00    -0.129 A  
HETATM   13  C   UNL     1      -9.034   7.539  68.893  1.00  0.00    -0.134 A  
HETATM   14  C   UNL     1      -9.192   8.900  69.176  1.00  0.00    -0.144 A  
HETATM   15  C   UNL     1     -10.038   9.701  68.399  1.00  0.00    -0.199 A  
HETATM   16  C   UNL     1     -10.684   9.123  67.299  1.00  0.00    -0.224 A  
HETATM   17  C   UNL     1     -10.528   7.760  67.020  1.00  0.00    -0.419 A  
BRANCH  15  18
HETATM   18  C   UNL     1     -10.293  11.139  68.787  1.00  0.00    -0.222 C  
BRANCH  18  19
HETATM   19  C   UNL     1      -9.577  12.230  68.015  1.00  0.00    -0.206 C  
HETATM   20  N   UNL     1      -8.678  13.016  68.667  1.00  0.00    -0.371 N  
HETATM   21  O   UNL     1      -9.788  12.415  66.819  1.00  0.00    -0.213 OA 
HETATM   22  H2  UNL     1      -8.489  12.874  69.659  1.00  0.00     0.000 HD 
HETATM   23  H1  UNL     1      -8.197  13.750  68.147  1.00  0.00     0.000 HD 
ENDBRANCH  18  19
ENDBRANCH  15  18
ENDBRANCH  11  12
ENDBRANCH  10  11
ENDBRANCH   7  10
ENDBRANCH   6   7
ENDBRANCH   4   6
ENDBRANCH   2   4
TORSDOF 8
ENDMDL
MODEL      245
REMARK 921   NORMALIZED FREE ENERGY PREDICTED BY IDOCK:   -2.29 KCAL/MOL
REMARK 922        TOTAL FREE ENERGY PREDICTED BY IDOCK:   -3.93 KCAL/MOL
REMARK 923 INTER-LIGAND FREE ENERGY PREDICTED BY IDOCK:   -3.21 KCAL/MOL
REMARK 924 INTRA-LIGAND FREE ENERGY PREDICTED BY IDOCK:   -0.72 KCAL/MOL
REMARK 927      BINDING AFFINITY PREDICTED BY RF-SCORE:    0.00 PKD
ROOT
HETATM    1  C   UNL     1     -12.290   6.525  71.578  1.00  0.00    -0.282 C  
HETATM    2  C   UNL     1     -10.864   6.176  72.009  1.00  0.00    -0.247 C  
HETATM    3  C   UNL     1     -10.438   7.092  73.159  1.00  0.00    -0.361 C  
ENDROOT
BRANCH   2   4
HETATM    4  N   UNL     1     -10.833   4.763  72.397  1.00  0.00    -0.151 NA 
HETATM    5  H   UNL     1     -11.705   4.298  72.140  1.00  0.00     0.000 HD 
BRANCH   4   6
HETATM    6  C   UNL     1      -9.677   4.033  71.859  1.00  0.00    -0.167 C  
BRANCH   6   7
HETATM    7  C   UNL     1      -8.982   4.865  70.763  1.00  0.00    -0.131 C  
HETATM    8  H   UNL     1      -7.130   5.233  70.198  1.00  0.00     0.000 HD 
HETATM    9  O   UNL     1      -7.558   4.720  70.873  1.00  0.00    -0.065 OA 
BRANCH   7  10
HETATM   10  C   UNL     1      -9.444   4.433  69.366  1.00  0.00    -0.180 C  
BRANCH  10  11
HETATM   11  O   UNL     1     -10.174   5.505  68.751  1.00  0.00    -0.175 OA 
BRANCH  11  12
HETATM   12  C   UNL     1      -9.436   6.583  68.336  1.00  0.00    -0.120 A  
HETATM   13  C   UNL     1      -8.265   6.526  67.582  1.00  0.00    -0.122 A  
HETATM   14  C   UNL     1      -7.570   7.698  67.263  1.00  0.00    -0.108 A  
HETATM   15  C   UNL     1      -8.033   8.946  67.697  1.00  0.00    -0.102 A  
HETATM   16  C   UNL     1      -9.235   9.004  68.414  1.00  0.00    -0.137 A  
HETATM   17  C   UNL     1      -9.925   7.830  68.735  1.00  0.00    -0.181 A  
BRANCH  15  18
HETATM   18  C   UNL     1      -7.211  10.191  67.449  1.00  0.00    -0.088 C  
BRANCH  18  19
HETATM   19  C   UNL     1      -7.770  11.248  66.517  1.00  0.00    -0.125 C  
HETATM   20  N   UNL     1      -8.212  10.874  65.286  1.00  0.00    -0.348 N  
HETATM   21  O   UNL     1      -7.835  12.429  66.850  1.00  0.00    -0.121 OA 
HETATM   22  H2  UNL     1      -8.168   9.897  64.995  1.00  0.00     0.000 HD 
HETATM   23  H1  UNL     1      -8.588  11.585  64.660  1.00  0.00     0.000 HD 
ENDBRANCH  18  19
ENDBRANCH  15  18
ENDBRANCH  11  12
ENDBRANCH  10  11
ENDBRANCH   7  10
ENDBRANCH   6   7
ENDBRANCH   4   6
ENDBRANCH   2   4
TORSDOF 8
ENDMDL
MODEL      246
REMARK 921   NORMALIZED FREE ENERGY PREDICTED BY IDOCK:   -2.29 KCAL/MOL
REMARK 922        TOTAL FREE ENERGY PREDICTED BY IDOCK:   -3.93 KCAL/MOL
REMARK 923 INTER-LIGAND FREE ENERGY PREDICTED BY IDOCK:   -3.33 KCAL/MOL
REMARK 924 INTRA-LIGAND FREE ENERGY PREDICTED BY IDOCK:   -0.60 KCAL/MOL
REMARK 927      BINDING AFFINITY PREDICTED BY RF-SCORE:    0.00 PKD
ROOT
HETATM    1  C   UNL     1      -6.037   3.327  70.916  1.00  0.00    -0.018 C  
HETATM    2  C   UNL     1      -6.214   4.351  72.038  1.00  0.00    -0.021 C  
HETATM    3  C   UNL     1      -5.293   5.548  71.789  1.00  0.00    -0.016 C  
ENDROOT
BRANCH   2   4
HETATM    4  N   UNL     1      -7.625   4.748  72.081  1.00  0.00    -0.082 NA 
HETATM    5  H   UNL     1      -8.004   4.838  71.139  1.00  0.00     0.000 HD 
BRANCH   4   6
HETATM    6  C   UNL     1      -8.460   3.852  72.894  1.00  0.00    -0.095 C  
BRANCH   6   7
HETATM    7  C   UNL     1      -9.811   3.602  72.198  1.00  0.00    -0.170 C  
HETATM    8  H   UNL     1     -11.716   3.908  72.607  1.00  0.00     0.000 HD 
HETATM    9  O   UNL     1     -10.882   4.062  73.036  1.00  0.00    -0.180 OA 
BRANCH   7  10
HETATM   10  C   UNL     1      -9.872   4.309  70.838  1.00  0.00    -0.189 C  
BRANCH  10  11
HETATM   11  O   UNL     1     -10.971   5.231  70.828  1.00  0.00    -0.130 OA 
BRANCH  11  12
HETATM   12  C   UNL     1     -10.729   6.461  70.272  1.00  0.00    -0.266 A  
HETATM   13  C   UNL     1      -9.945   6.706  69.147  1.00  0.00    -0.168 A  
HETATM   14  C   UNL     1      -9.728   8.016  68.705  1.00  0.00    -0.157 A  
HETATM   15  C   UNL     1     -10.289   9.104  69.386  1.00  0.00    -0.220 A  
HETATM   16  C   UNL     1     -11.115   8.851  70.488  1.00  0.00    -0.288 A  
HETATM   17  C   UNL     1     -11.327   7.540  70.930  1.00  0.00    -0.297 A  
BRANCH  15  18
HETATM   18  C   UNL     1      -9.950  10.518  68.972  1.00  0.00    -0.223 C  
BRANCH  18  19
HETATM   19  C   UNL     1     -10.814  11.185  67.918  1.00  0.00    -0.235 C  
HETATM   20  N   UNL     1     -11.829  11.997  68.317  1.00  0.00    -0.325 N  
HETATM   21  O   UNL     1     -10.613  11.010  66.719  1.00  0.00    -0.244 OA 
HETATM   22  H2  UNL     1     -12.007  12.155  69.309  1.00  0.00     0.000 HD 
HETATM   23  H1  UNL     1     -12.409  12.446  67.608  1.00  0.00     0.000 HD 
ENDBRANCH  18  19
ENDBRANCH  15  18
ENDBRANCH  11  12
ENDBRANCH  10  11
ENDBRANCH   7  10
ENDBRANCH   6   7
ENDBRANCH   4   6
ENDBRANCH   2   4
TORSDOF 8
ENDMDL
MODEL      247
REMARK 921   NORMALIZED FREE ENERGY PREDICTED BY IDOCK:   -2.27 KCAL/MOL
REMARK 922        TOTAL FREE ENERGY PREDICTED BY IDOCK:   -3.90 KCAL/MOL
REMARK 923 INTER-LIGAND FREE ENERGY PREDICTED BY IDOCK:   -3.26 KCAL/MOL
REMARK 924 INTRA-LIGAND FREE ENERGY PREDICTED BY IDOCK:   -0.64 KCAL/MOL
REMARK 927      BINDING AFFINITY PREDICTED BY RF-SCORE:    0.00 PKD
ROOT
HETATM    1  C   UNL     1     -10.429   8.049  70.851  1.00  0.00    -0.223 C  
HETATM    2  C   UNL     1     -10.941   6.658  71.227  1.00  0.00    -0.253 C  
HETATM    3  C   UNL     1     -12.448   6.720  71.488  1.00  0.00    -0.390 C  
ENDROOT
BRANCH   2   4
HETATM    4  N   UNL     1     -10.614   5.736  70.135  1.00  0.00    -0.282 NA 
HETATM    5  H   UNL     1     -10.243   6.244  69.332  1.00  0.00     0.000 HD 
BRANCH   4   6
HETATM    6  C   UNL     1      -9.700   4.656  70.534  1.00  0.00    -0.214 C  
BRANCH   6   7
HETATM    7  C   UNL     1      -8.308   5.228  70.863  1.00  0.00    -0.116 C  
HETATM    8  H   UNL     1      -6.516   4.506  71.259  1.00  0.00     0.000 HD 
HETATM    9  O   UNL     1      -7.375   4.154  71.056  1.00  0.00    -0.042 OA 
BRANCH   7  10
HETATM   10  C   UNL     1      -7.813   6.154  69.745  1.00  0.00    -0.106 C  
BRANCH  10  11
HETATM   11  O   UNL     1      -8.118   5.570  68.471  1.00  0.00    -0.097 OA 
BRANCH  11  12
HETATM   12  C   UNL     1      -8.136   6.424  67.398  1.00  0.00    -0.116 A  
HETATM   13  C   UNL     1      -7.242   6.406  66.329  1.00  0.00    -0.072 A  
HETATM   14  C   UNL     1      -7.330   7.367  65.316  1.00  0.00    -0.076 A  
HETATM   15  C   UNL     1      -8.311   8.366  65.358  1.00  0.00    -0.166 A  
HETATM   16  C   UNL     1      -9.237   8.352  66.409  1.00  0.00    -0.253 A  
HETATM   17  C   UNL     1      -9.144   7.392  67.423  1.00  0.00    -0.129 A  
BRANCH  15  18
HETATM   18  C   UNL     1      -8.321   9.467  64.323  1.00  0.00    -0.172 C  
BRANCH  18  19
HETATM   19  C   UNL     1      -7.035  10.232  64.074  1.00  0.00    -0.049 C  
HETATM   20  N   UNL     1      -6.427  10.855  65.120  1.00  0.00    -0.366 N  
HETATM   21  O   UNL     1      -6.532  10.297  62.955  1.00  0.00    -0.133 OA 
HETATM   22  H2  UNL     1      -6.830  10.808  66.056  1.00  0.00     0.000 HD 
HETATM   23  H1  UNL     1      -5.562  11.369  64.952  1.00  0.00     0.000 HD 
ENDBRANCH  18  19
ENDBRANCH  15  18
ENDBRANCH  11  12
ENDBRANCH  10  11
ENDBRANCH   7  10
ENDBRANCH   6   7
ENDBRANCH   4   6
ENDBRANCH   2   4
TORSDOF 8
ENDMDL
MODEL      248
REMARK 921   NORMALIZED FREE ENERGY PREDICTED BY IDOCK:   -2.25 KCAL/MOL
REMARK 922        TOTAL FREE ENERGY PREDICTED BY IDOCK:   -3.87 KCAL/MOL
REMARK 923 INTER-LIGAND FREE ENERGY PREDICTED BY IDOCK:   -3.12 KCAL/MOL
REMARK 924 INTRA-LIGAND FREE ENERGY PREDICTED BY IDOCK:   -0.75 KCAL/MOL
REMARK 927      BINDING AFFINITY PREDICTED BY RF-SCORE:    0.00 PKD
ROOT
HETATM    1  C   UNL     1      -6.611   6.687  70.758  1.00  0.00    -0.053 C  
HETATM    2  C   UNL     1      -6.635   6.352  69.266  1.00  0.00    -0.044 C  
HETATM    3  C   UNL     1      -5.265   5.819  68.839  1.00  0.00    -0.004 C  
ENDROOT
BRANCH   2   4
HETATM    4  N   UNL     1      -7.699   5.371  69.031  1.00  0.00    -0.088 NA 
HETATM    5  H   UNL     1      -8.573   5.676  69.461  1.00  0.00     0.000 HD 
BRANCH   4   6
HETATM    6  C   UNL     1      -7.900   5.055  67.610  1.00  0.00    -0.095 C  
BRANCH   6   7
HETATM    7  C   UNL     1      -9.404   4.927  67.298  1.00  0.00    -0.131 C  
HETATM    8  H   UNL     1     -11.075   4.745  68.328  1.00  0.00     0.000 HD 
HETATM    9  O   UNL     1     -10.147   4.823  68.521  1.00  0.00    -0.130 OA 
BRANCH   7  10
HETATM   10  C   UNL     1      -9.902   6.128  66.484  1.00  0.00    -0.133 C  
BRANCH  10  11
HETATM   11  O   UNL     1     -10.807   6.904  67.283  1.00  0.00    -0.309 OA 
BRANCH  11  12
HETATM   12  C   UNL     1     -10.390   8.163  67.626  1.00  0.00    -0.247 A  
HETATM   13  C   UNL     1      -9.903   8.547  68.875  1.00  0.00    -0.181 A  
HETATM   14  C   UNL     1      -9.557   9.880  69.121  1.00  0.00    -0.204 A  
HETATM   15  C   UNL     1      -9.697  10.853  68.124  1.00  0.00    -0.174 A  
HETATM   16  C   UNL     1     -10.142  10.456  66.857  1.00  0.00    -0.269 A  
HETATM   17  C   UNL     1     -10.492   9.122  66.615  1.00  0.00    -0.237 A  
BRANCH  15  18
HETATM   18  C   UNL     1      -9.435  12.309  68.438  1.00  0.00    -0.175 C  
BRANCH  18  19
HETATM   19  C   UNL     1      -8.213  12.967  67.827  1.00  0.00    -0.168 C  
HETATM   20  N   UNL     1      -8.353  13.668  66.669  1.00  0.00    -0.394 N  
HETATM   21  O   UNL     1      -7.107  12.885  68.355  1.00  0.00    -0.084 OA 
HETATM   22  H2  UNL     1      -9.264  13.749  66.220  1.00  0.00     0.000 HD 
HETATM   23  H1  UNL     1      -7.530  14.111  66.258  1.00  0.00     0.000 HD 
ENDBRANCH  18  19
ENDBRANCH  15  18
ENDBRANCH  11  12
ENDBRANCH  10  11
ENDBRANCH   7  10
ENDBRANCH   6   7
ENDBRANCH   4   6
ENDBRANCH   2   4
TORSDOF 8
ENDMDL
MODEL      249
REMARK 921   NORMALIZED FREE ENERGY PREDICTED BY IDOCK:   -2.25 KCAL/MOL
REMARK 922        TOTAL FREE ENERGY PREDICTED BY IDOCK:   -3.87 KCAL/MOL
REMARK 923 INTER-LIGAND FREE ENERGY PREDICTED BY IDOCK:   -3.17 KCAL/MOL
REMARK 924 INTRA-LIGAND FREE ENERGY PREDICTED BY IDOCK:   -0.70 KCAL/MOL
REMARK 927      BINDING AFFINITY PREDICTED BY RF-SCORE:    0.00 PKD
ROOT
HETATM    1  C   UNL     1      -9.591   3.732  65.279  1.00  0.00    -0.174 C  
HETATM    2  C   UNL     1      -9.172   4.946  66.110  1.00  0.00    -0.146 C  
HETATM    3  C   UNL     1     -10.418   5.632  66.676  1.00  0.00    -0.340 C  
ENDROOT
BRANCH   2   4
HETATM    4  N   UNL     1      -8.269   4.490  67.171  1.00  0.00    -0.102 NA 
HETATM    5  H   UNL     1      -7.811   5.283  67.621  1.00  0.00     0.000 HD 
BRANCH   4   6
HETATM    6  C   UNL     1      -8.925   3.634  68.168  1.00  0.00    -0.130 C  
BRANCH   6   7
HETATM    7  C   UNL     1      -8.626   4.143  69.591  1.00  0.00    -0.072 C  
HETATM    8  H   UNL     1      -7.651   3.489  71.176  1.00  0.00     0.000 HD 
HETATM    9  O   UNL     1      -7.836   3.175  70.298  1.00  0.00    -0.043 OA 
BRANCH   7  10
HETATM   10  C   UNL     1      -7.891   5.489  69.553  1.00  0.00    -0.087 C  
BRANCH  10  11
HETATM   11  O   UNL     1      -8.369   6.325  70.617  1.00  0.00    -0.129 OA 
BRANCH  11  12
HETATM   12  C   UNL     1      -9.227   7.332  70.260  1.00  0.00    -0.155 A  
HETATM   13  C   UNL     1     -10.619   7.278  70.326  1.00  0.00    -0.243 A  
HETATM   14  C   UNL     1     -11.392   8.356  69.882  1.00  0.00     0.062 A  
HETATM   15  C   UNL     1     -10.786   9.506  69.359  1.00  0.00    -0.244 A  
HETATM   16  C   UNL     1      -9.387   9.576  69.338  1.00  0.00    -0.185 A  
HETATM   17  C   UNL     1      -8.617   8.494  69.779  1.00  0.00    -0.131 A  
BRANCH  15  18
HETATM   18  C   UNL     1     -11.632  10.612  68.772  1.00  0.00    -0.309 C  
BRANCH  18  19
HETATM   19  C   UNL     1     -11.084  11.386  67.589  1.00  0.00    -0.268 C  
HETATM   20  N   UNL     1     -11.020  12.743  67.662  1.00  0.00    -0.237 N  
HETATM   21  O   UNL     1     -10.695  10.816  66.573  1.00  0.00    -0.240 OA 
HETATM   22  H2  UNL     1     -11.336  13.232  68.500  1.00  0.00     0.000 HD 
HETATM   23  H1  UNL     1     -10.652  13.263  66.866  1.00  0.00     0.000 HD 
ENDBRANCH  18  19
ENDBRANCH  15  18
ENDBRANCH  11  12
ENDBRANCH  10  11
ENDBRANCH   7  10
ENDBRANCH   6   7
ENDBRANCH   4   6
ENDBRANCH   2   4
TORSDOF 8
ENDMDL
MODEL      250
REMARK 921   NORMALIZED FREE ENERGY PREDICTED BY IDOCK:   -2.22 KCAL/MOL
REMARK 922        TOTAL FREE ENERGY PREDICTED BY IDOCK:   -3.82 KCAL/MOL
REMARK 923 INTER-LIGAND FREE ENERGY PREDICTED BY IDOCK:   -3.15 KCAL/MOL
REMARK 924 INTRA-LIGAND FREE ENERGY PREDICTED BY IDOCK:   -0.68 KCAL/MOL
REMARK 927      BINDING AFFINITY PREDICTED BY RF-SCORE:    0.00 PKD
ROOT
HETATM    1  C   UNL     1     -10.158   9.791  65.663  1.00  0.00    -0.282 C  
HETATM    2  C   UNL     1      -9.839  10.986  64.763  1.00  0.00    -0.276 C  
HETATM    3  C   UNL     1     -11.129  11.748  64.447  1.00  0.00    -0.396 C  
ENDROOT
BRANCH   2   4
HETATM    4  N   UNL     1      -8.860  11.833  65.451  1.00  0.00    -0.390 NA 
HETATM    5  H   UNL     1      -8.967  12.808  65.173  1.00  0.00     0.000 HD 
BRANCH   4   6
HETATM    6  C   UNL     1      -8.899  11.702  66.914  1.00  0.00    -0.190 C  
BRANCH   6   7
HETATM    7  C   UNL     1      -7.492  11.906  67.508  1.00  0.00    -0.136 C  
HETATM    8  H   UNL     1      -6.689  12.955  68.972  1.00  0.00     0.000 HD 
HETATM    9  O   UNL     1      -7.557  12.829  68.605  1.00  0.00    -0.127 OA 
BRANCH   7  10
HETATM   10  C   UNL     1      -6.893  10.575  67.980  1.00  0.00    -0.073 C  
BRANCH  10  11
HETATM   11  O   UNL     1      -7.951   9.690  68.376  1.00  0.00    -0.095 OA 
BRANCH  11  12
HETATM   12  C   UNL     1      -7.738   8.353  68.163  1.00  0.00    -0.103 A  
HETATM   13  C   UNL     1      -6.645   7.799  67.497  1.00  0.00    -0.063 A  
HETATM   14  C   UNL     1      -6.566   6.417  67.294  1.00  0.00    -0.058 A  
HETATM   15  C   UNL     1      -7.581   5.566  67.749  1.00  0.00    -0.088 A  
HETATM   16  C   UNL     1      -8.653   6.120  68.459  1.00  0.00    -0.113 A  
HETATM   17  C   UNL     1      -8.732   7.504  68.656  1.00  0.00    -0.128 A  
BRANCH  15  18
HETATM   18  C   UNL     1      -7.542   4.091  67.419  1.00  0.00    -0.072 C  
BRANCH  18  19
HETATM   19  C   UNL     1      -8.694   3.220  67.881  1.00  0.00    -0.111 C  
HETATM   20  N   UNL     1      -9.760   3.044  67.055  1.00  0.00    -0.380 N  
HETATM   21  O   UNL     1      -8.683   2.670  68.980  1.00  0.00    -0.068 OA 
HETATM   22  H2  UNL     1      -9.784   3.491  66.138  1.00  0.00     0.000 HD 
HETATM   23  H1  UNL     1     -10.535   2.458  67.366  1.00  0.00     0.000 HD 
ENDBRANCH  18  19
ENDBRANCH  15  18
ENDBRANCH  11  12
ENDBRANCH  10  11
ENDBRANCH   7  10
ENDBRANCH   6   7
ENDBRANCH   4   6
ENDBRANCH   2   4
TORSDOF 8
ENDMDL
MODEL      251
REMARK 921   NORMALIZED FREE ENERGY PREDICTED BY IDOCK:   -2.15 KCAL/MOL
REMARK 922        TOTAL FREE ENERGY PREDICTED BY IDOCK:   -3.73 KCAL/MOL
REMARK 923 INTER-LIGAND FREE ENERGY PREDICTED BY IDOCK:   -3.45 KCAL/MOL
REMARK 924 INTRA-LIGAND FREE ENERGY PREDICTED BY IDOCK:   -0.28 KCAL/MOL
REMARK 927      BINDING AFFINITY PREDICTED BY RF-SCORE:    0.00 PKD
ROOT
HETATM    1  C   UNL     1      -8.031  13.791  68.188  1.00  0.00    -0.150 C  
HETATM    2  C   UNL     1      -7.457  12.375  68.125  1.00  0.00    -0.118 C  
HETATM    3  C   UNL     1      -6.123  12.396  67.374  1.00  0.00    -0.158 C  
ENDROOT
BRANCH   2   4
HETATM    4  N   UNL     1      -7.304  11.878  69.495  1.00  0.00    -0.335 NA 
HETATM    5  H   UNL     1      -8.165  12.012  70.026  1.00  0.00     0.000 HD 
BRANCH   4   6
HETATM    6  C   UNL     1      -6.863  10.478  69.564  1.00  0.00    -0.098 C  
BRANCH   6   7
HETATM    7  C   UNL     1      -8.074   9.530  69.470  1.00  0.00    -0.117 C  
HETATM    8  H   UNL     1     -10.000   9.614  69.882  1.00  0.00     0.000 HD 
HETATM    9  O   UNL     1      -9.253  10.199  69.940  1.00  0.00    -0.192 OA 
BRANCH   7  10
HETATM   10  C   UNL     1      -8.286   9.047  68.030  1.00  0.00    -0.110 C  
BRANCH  10  11
HETATM   11  O   UNL     1      -9.619   8.533  67.890  1.00  0.00    -0.147 OA 
BRANCH  11  12
HETATM   12  C   UNL     1      -9.750   7.363  67.188  1.00  0.00    -0.171 A  
HETATM   13  C   UNL     1     -10.849   6.506  67.232  1.00  0.00    -0.463 A  
HETATM   14  C   UNL     1     -10.843   5.309  66.509  1.00  0.00    -0.196 A  
HETATM   15  C   UNL     1      -9.735   4.946  65.733  1.00  0.00    -0.184 A  
HETATM   16  C   UNL     1      -8.653   5.831  65.653  1.00  0.00    -0.151 A  
HETATM   17  C   UNL     1      -8.660   7.026  66.382  1.00  0.00    -0.136 A  
BRANCH  15  18
HETATM   18  C   UNL     1      -9.692   3.596  65.053  1.00  0.00    -0.162 C  
BRANCH  18  19
HETATM   19  C   UNL     1      -9.079   2.431  65.806  1.00  0.00    -0.088 C  
HETATM   20  N   UNL     1      -9.430   2.229  67.104  1.00  0.00    -0.398 N  
HETATM   21  O   UNL     1      -8.280   1.668  65.268  1.00  0.00    -0.073 OA 
HETATM   22  H2  UNL     1     -10.094   2.851  67.564  1.00  0.00     0.000 HD 
HETATM   23  H1  UNL     1      -9.018   1.445  67.610  1.00  0.00     0.000 HD 
ENDBRANCH  18  19
ENDBRANCH  15  18
ENDBRANCH  11  12
ENDBRANCH  10  11
ENDBRANCH   7  10
ENDBRANCH   6   7
ENDBRANCH   4   6
ENDBRANCH   2   4
TORSDOF 8
ENDMDL
MODEL      252
REMARK 921   NORMALIZED FREE ENERGY PREDICTED BY IDOCK:   -2.14 KCAL/MOL
REMARK 922        TOTAL FREE ENERGY PREDICTED BY IDOCK:   -3.72 KCAL/MOL
REMARK 923 INTER-LIGAND FREE ENERGY PREDICTED BY IDOCK:   -3.50 KCAL/MOL
REMARK 924 INTRA-LIGAND FREE ENERGY PREDICTED BY IDOCK:   -0.22 KCAL/MOL
REMARK 927      BINDING AFFINITY PREDICTED BY RF-SCORE:    0.00 PKD
ROOT
HETATM    1  C   UNL     1     -11.158   5.041  73.275  1.00  0.00    -0.406 C  
HETATM    2  C   UNL     1      -9.660   5.329  73.377  1.00  0.00    -0.141 C  
HETATM    3  C   UNL     1      -9.414   6.386  74.457  1.00  0.00    -0.268 C  
ENDROOT
BRANCH   2   4
HETATM    4  N   UNL     1      -8.968   4.071  73.678  1.00  0.00    -0.092 NA 
HETATM    5  H   UNL     1      -9.496   3.274  73.321  1.00  0.00     0.000 HD 
BRANCH   4   6
HETATM    6  C   UNL     1      -7.581   4.036  73.193  1.00  0.00    -0.075 C  
BRANCH   6   7
HETATM    7  C   UNL     1      -7.398   5.020  72.022  1.00  0.00    -0.089 C  
HETATM    8  H   UNL     1      -6.333   6.639  71.659  1.00  0.00     0.000 HD 
HETATM    9  O   UNL     1      -6.446   6.032  72.382  1.00  0.00    -0.055 OA 
BRANCH   7  10
HETATM   10  C   UNL     1      -6.931   4.290  70.756  1.00  0.00    -0.037 C  
BRANCH  10  11
HETATM   11  O   UNL     1      -7.966   4.345  69.764  1.00  0.00    -0.057 OA 
BRANCH  11  12
HETATM   12  C   UNL     1      -8.831   5.405  69.845  1.00  0.00    -0.125 A  
HETATM   13  C   UNL     1      -8.478   6.726  70.115  1.00  0.00    -0.139 A  
HETATM   14  C   UNL     1      -9.462   7.714  70.225  1.00  0.00    -0.161 A  
HETATM   15  C   UNL     1     -10.818   7.396  70.073  1.00  0.00    -0.266 A  
HETATM   16  C   UNL     1     -11.166   6.077  69.756  1.00  0.00    -0.440 A  
HETATM   17  C   UNL     1     -10.179   5.090  69.650  1.00  0.00    -0.306 A  
BRANCH  15  18
HETATM   18  C   UNL     1     -11.877   8.447  70.314  1.00  0.00     0.198 C  
BRANCH  18  19
HETATM   19  C   UNL     1     -11.928   9.120  71.672  1.00  0.00    -0.367 C  
HETATM   20  N   UNL     1     -12.255   8.377  72.763  1.00  0.00    -0.531 N  
HETATM   21  O   UNL     1     -11.677  10.315  71.806  1.00  0.00    -0.141 OA 
HETATM   22  H2  UNL     1     -12.463   7.383  72.669  1.00  0.00     0.000 HD 
HETATM   23  H1  UNL     1     -12.289   8.830  73.677  1.00  0.00     0.000 HD 
ENDBRANCH  18  19
ENDBRANCH  15  18
ENDBRANCH  11  12
ENDBRANCH  10  11
ENDBRANCH   7  10
ENDBRANCH   6   7
ENDBRANCH   4   6
ENDBRANCH   2   4
TORSDOF 8
ENDMDL
MODEL      253
REMARK 921   NORMALIZED FREE ENERGY PREDICTED BY IDOCK:   -2.03 KCAL/MOL
REMARK 922        TOTAL FREE ENERGY PREDICTED BY IDOCK:   -3.55 KCAL/MOL
REMARK 923 INTER-LIGAND FREE ENERGY PREDICTED BY IDOCK:   -2.58 KCAL/MOL
REMARK 924 INTRA-LIGAND FREE ENERGY PREDICTED BY IDOCK:   -0.97 KCAL/MOL
REMARK 927      BINDING AFFINITY PREDICTED BY RF-SCORE:    0.00 PKD
ROOT
HETATM    1  C   UNL     1     -10.182   4.568  65.334  1.00  0.00    -0.224 C  
HETATM    2  C   UNL     1      -9.590   5.729  66.134  1.00  0.00    -0.099 C  
HETATM    3  C   UNL     1     -10.277   5.811  67.500  1.00  0.00    -0.239 C  
ENDROOT
BRANCH   2   4
HETATM    4  N   UNL     1      -8.146   5.511  66.262  1.00  0.00    -0.105 NA 
HETATM    5  H   UNL     1      -7.843   5.648  67.227  1.00  0.00     0.000 HD 
BRANCH   4   6
HETATM    6  C   UNL     1      -7.705   4.203  65.759  1.00  0.00    -0.090 C  
BRANCH   6   7
HETATM    7  C   UNL     1      -7.318   3.281  66.931  1.00  0.00    -0.070 C  
HETATM    8  H   UNL     1      -6.785   1.397  67.162  1.00  0.00     0.000 HD 
HETATM    9  O   UNL     1      -7.024   1.966  66.439  1.00  0.00    -0.041 OA 
BRANCH   7  10
HETATM   10  C   UNL     1      -6.107   3.836  67.693  1.00  0.00    -0.028 C  
BRANCH  10  11
HETATM   11  O   UNL     1      -6.308   3.659  69.103  1.00  0.00    -0.028 OA 
BRANCH  11  12
HETATM   12  C   UNL     1      -7.176   4.530  69.708  1.00  0.00    -0.050 A  
HETATM   13  C   UNL     1      -8.380   4.185  70.321  1.00  0.00    -0.079 A  
HETATM   14  C   UNL     1      -9.209   5.175  70.860  1.00  0.00    -0.188 A  
HETATM   15  C   UNL     1      -8.852   6.527  70.790  1.00  0.00    -0.144 A  
HETATM   16  C   UNL     1      -7.620   6.865  70.215  1.00  0.00    -0.091 A  
HETATM   17  C   UNL     1      -6.794   5.874  69.673  1.00  0.00    -0.061 A  
BRANCH  15  18
HETATM   18  C   UNL     1      -9.811   7.594  71.267  1.00  0.00    -0.187 C  
BRANCH  18  19
HETATM   19  C   UNL     1     -10.482   7.407  72.614  1.00  0.00    -0.255 C  
HETATM   20  N   UNL     1      -9.758   7.621  73.745  1.00  0.00    -0.350 N  
HETATM   21  O   UNL     1     -11.661   7.073  72.703  1.00  0.00    -0.247 OA 
HETATM   22  H2  UNL     1      -8.779   7.902  73.688  1.00  0.00     0.000 HD 
HETATM   23  H1  UNL     1     -10.210   7.495  74.651  1.00  0.00     0.000 HD 
ENDBRANCH  18  19
ENDBRANCH  15  18
ENDBRANCH  11  12
ENDBRANCH  10  11
ENDBRANCH   7  10
ENDBRANCH   6   7
ENDBRANCH   4   6
ENDBRANCH   2   4
TORSDOF 8
ENDMDL
MODEL      254
REMARK 921   NORMALIZED FREE ENERGY PREDICTED BY IDOCK:   -1.84 KCAL/MOL
REMARK 922        TOTAL FREE ENERGY PREDICTED BY IDOCK:   -3.27 KCAL/MOL
REMARK 923 INTER-LIGAND FREE ENERGY PREDICTED BY IDOCK:   -2.47 KCAL/MOL
REMARK 924 INTRA-LIGAND FREE ENERGY PREDICTED BY IDOCK:   -0.80 KCAL/MOL
REMARK 927      BINDING AFFINITY PREDICTED BY RF-SCORE:    0.00 PKD
ROOT
HETATM    1  C   UNL     1     -10.748   6.019  66.711  1.00  0.00    -0.374 C  
HETATM    2  C   UNL     1     -10.059   5.417  67.937  1.00  0.00    -0.168 C  
HETATM    3  C   UNL     1      -8.562   5.262  67.658  1.00  0.00    -0.104 C  
ENDROOT
BRANCH   2   4
HETATM    4  N   UNL     1     -10.312   6.294  69.084  1.00  0.00    -0.195 NA 
HETATM    5  H   UNL     1     -11.285   6.225  69.384  1.00  0.00     0.000 HD 
BRANCH   4   6
HETATM    6  C   UNL     1      -9.401   6.057  70.213  1.00  0.00    -0.159 C  
BRANCH   6   7
HETATM    7  C   UNL     1      -9.265   7.333  71.067  1.00  0.00    -0.154 C  
HETATM    8  H   UNL     1      -8.440   7.827  72.788  1.00  0.00     0.000 HD 
HETATM    9  O   UNL     1      -8.524   7.041  72.261  1.00  0.00    -0.111 OA 
BRANCH   7  10
HETATM   10  C   UNL     1      -8.568   8.451  70.281  1.00  0.00    -0.128 C  
BRANCH  10  11
HETATM   11  O   UNL     1      -7.939   7.897  69.117  1.00  0.00    -0.114 OA 
BRANCH  11  12
HETATM   12  C   UNL     1      -7.933   8.684  67.995  1.00  0.00    -0.107 A  
HETATM   13  C   UNL     1      -6.803   9.055  67.268  1.00  0.00    -0.077 A  
HETATM   14  C   UNL     1      -6.919   9.910  66.166  1.00  0.00    -0.102 A  
HETATM   15  C   UNL     1      -8.166  10.414  65.778  1.00  0.00    -0.156 A  
HETATM   16  C   UNL     1      -9.305  10.001  66.482  1.00  0.00    -0.201 A  
HETATM   17  C   UNL     1      -9.185   9.149  67.586  1.00  0.00    -0.143 A  
BRANCH  15  18
HETATM   18  C   UNL     1      -8.263  11.430  64.663  1.00  0.00     0.779 C  
BRANCH  18  19
HETATM   19  C   UNL     1      -9.517  11.444  63.809  1.00  0.00    -0.171 C  
HETATM   20  N   UNL     1      -9.617  10.569  62.772  1.00  0.00    -0.451 N  
HETATM   21  O   UNL     1     -10.440  12.222  64.036  1.00  0.00    -0.337 OA 
HETATM   22  H2  UNL     1      -8.861   9.914  62.572  1.00  0.00     0.000 HD 
HETATM   23  H1  UNL     1     -10.460  10.579  62.198  1.00  0.00     0.000 HD 
ENDBRANCH  18  19
ENDBRANCH  15  18
ENDBRANCH  11  12
ENDBRANCH  10  11
ENDBRANCH   7  10
ENDBRANCH   6   7
ENDBRANCH   4   6
ENDBRANCH   2   4
TORSDOF 8
ENDMDL
MODEL      255
REMARK 921   NORMALIZED FREE ENERGY PREDICTED BY IDOCK:   -1.83 KCAL/MOL
REMARK 922        TOTAL FREE ENERGY PREDICTED BY IDOCK:   -3.26 KCAL/MOL
REMARK 923 INTER-LIGAND FREE ENERGY PREDICTED BY IDOCK:   -2.86 KCAL/MOL
REMARK 924 INTRA-LIGAND FREE ENERGY PREDICTED BY IDOCK:   -0.39 KCAL/MOL
REMARK 927      BINDING AFFINITY PREDICTED BY RF-SCORE:    0.00 PKD
ROOT
HETATM    1  C   UNL     1     -14.157   7.896  70.874  1.00  0.00     0.086 C  
HETATM    2  C   UNL     1     -12.886   8.606  71.341  1.00  0.00    -0.264 C  
HETATM    3  C   UNL     1     -11.806   7.567  71.656  1.00  0.00    -0.322 C  
ENDROOT
BRANCH   2   4
HETATM    4  N   UNL     1     -12.461   9.532  70.287  1.00  0.00    -0.412 NA 
HETATM    5  H   UNL     1     -13.176  10.241  70.119  1.00  0.00     0.000 HD 
BRANCH   4   6
HETATM    6  C   UNL     1     -11.159  10.159  70.549  1.00  0.00    -0.327 C  
BRANCH   6   7
HETATM    7  C   UNL     1     -10.336  10.248  69.250  1.00  0.00    -0.231 C  
HETATM    8  H   UNL     1      -8.468  10.641  68.757  1.00  0.00     0.000 HD 
HETATM    9  O   UNL     1      -8.975  10.586  69.558  1.00  0.00    -0.145 OA 
BRANCH   7  10
HETATM   10  C   UNL     1     -10.382   8.925  68.476  1.00  0.00    -0.198 C  
BRANCH  10  11
HETATM   11  O   UNL     1      -9.105   8.680  67.870  1.00  0.00    -0.139 OA 
BRANCH  11  12
HETATM   12  C   UNL     1      -8.730   7.367  67.747  1.00  0.00    -0.126 A  
HETATM   13  C   UNL     1      -9.547   6.263  67.982  1.00  0.00    -0.115 A  
HETATM   14  C   UNL     1      -9.033   4.966  67.874  1.00  0.00    -0.120 A  
HETATM   15  C   UNL     1      -7.691   4.752  67.535  1.00  0.00    -0.090 A  
HETATM   16  C   UNL     1      -6.886   5.863  67.254  1.00  0.00    -0.063 A  
HETATM   17  C   UNL     1      -7.402   7.159  67.367  1.00  0.00    -0.092 A  
BRANCH  15  18
HETATM   18  C   UNL     1      -7.118   3.353  67.540  1.00  0.00    -0.058 C  
BRANCH  18  19
HETATM   19  C   UNL     1      -7.824   2.284  66.728  1.00  0.00    -0.071 C  
HETATM   20  N   UNL     1      -7.213   1.792  65.617  1.00  0.00    -0.051 N  
HETATM   21  O   UNL     1      -8.927   1.854  67.053  1.00  0.00    -0.124 OA 
HETATM   22  H2  UNL     1      -6.295   2.136  65.334  1.00  0.00     0.000 HD 
HETATM   23  H1  UNL     1      -7.688   1.073  65.070  1.00  0.00     0.000 HD 
ENDBRANCH  18  19
ENDBRANCH  15  18
ENDBRANCH  11  12
ENDBRANCH  10  11
ENDBRANCH   7  10
ENDBRANCH   6   7
ENDBRANCH   4   6
ENDBRANCH   2   4
TORSDOF 8
ENDMDL
MODEL      256
REMARK 921   NORMALIZED FREE ENERGY PREDICTED BY IDOCK:   -1.63 KCAL/MOL
REMARK 922        TOTAL FREE ENERGY PREDICTED BY IDOCK:   -2.97 KCAL/MOL
REMARK 923 INTER-LIGAND FREE ENERGY PREDICTED BY IDOCK:   -2.33 KCAL/MOL
REMARK 924 INTRA-LIGAND FREE ENERGY PREDICTED BY IDOCK:   -0.64 KCAL/MOL
REMARK 927      BINDING AFFINITY PREDICTED BY RF-SCORE:    0.00 PKD
ROOT
HETATM    1  C   UNL     1     -10.190   4.561  65.336  1.00  0.00    -0.224 C  
HETATM    2  C   UNL     1      -9.638   5.743  66.134  1.00  0.00    -0.099 C  
HETATM    3  C   UNL     1     -10.350   5.824  67.487  1.00  0.00    -0.274 C  
ENDROOT
BRANCH   2   4
HETATM    4  N   UNL     1      -8.191   5.559  66.289  1.00  0.00    -0.109 NA 
HETATM    5  H   UNL     1      -7.738   6.442  66.528  1.00  0.00     0.000 HD 
BRANCH   4   6
HETATM    6  C   UNL     1      -7.835   4.513  67.258  1.00  0.00    -0.097 C  
BRANCH   6   7
HETATM    7  C   UNL     1      -7.283   5.145  68.550  1.00  0.00    -0.062 C  
HETATM    8  H   UNL     1      -6.709   4.512  70.327  1.00  0.00     0.000 HD 
HETATM    9  O   UNL     1      -7.049   4.123  69.530  1.00  0.00    -0.048 OA 
BRANCH   7  10
HETATM   10  C   UNL     1      -5.984   5.914  68.277  1.00  0.00    -0.020 C  
BRANCH  10  11
HETATM   11  O   UNL     1      -6.004   7.155  68.997  1.00  0.00    -0.021 OA 
BRANCH  11  12
HETATM   12  C   UNL     1      -6.795   8.147  68.478  1.00  0.00    -0.068 A  
HETATM   13  C   UNL     1      -7.907   8.711  69.102  1.00  0.00    -0.099 A  
HETATM   14  C   UNL     1      -8.669   9.684  68.446  1.00  0.00    -0.120 A  
HETATM   15  C   UNL     1      -8.334  10.106  67.153  1.00  0.00    -0.125 A  
HETATM   16  C   UNL     1      -7.189   9.572  66.549  1.00  0.00    -0.089 A  
HETATM   17  C   UNL     1      -6.431   8.595  67.206  1.00  0.00    -0.058 A  
BRANCH  15  18
HETATM   18  C   UNL     1      -9.233  11.068  66.410  1.00  0.00    -0.192 C  
BRANCH  18  19
HETATM   19  C   UNL     1      -9.725  12.303  67.139  1.00  0.00    -0.201 C  
HETATM   20  N   UNL     1      -8.864  13.337  67.337  1.00  0.00    -0.194 N  
HETATM   21  O   UNL     1     -10.880  12.389  67.549  1.00  0.00    -0.225 OA 
HETATM   22  H2  UNL     1      -7.903  13.282  67.001  1.00  0.00     0.000 HD 
HETATM   23  H1  UNL     1      -9.195  14.167  67.828  1.00  0.00     0.000 HD 
ENDBRANCH  18  19
ENDBRANCH  15  18
ENDBRANCH  11  12
ENDBRANCH  10  11
ENDBRANCH   7  10
ENDBRANCH   6   7
ENDBRANCH   4   6
ENDBRANCH   2   4
TORSDOF 8
ENDMDL
MODEL      257
REMARK 921   NORMALIZED FREE ENERGY PREDICTED BY IDOCK:   -1.62 KCAL/MOL
REMARK 922        TOTAL FREE ENERGY PREDICTED BY IDOCK:   -2.95 KCAL/MOL
REMARK 923 INTER-LIGAND FREE ENERGY PREDICTED BY IDOCK:   -2.32 KCAL/MOL
REMARK 924 INTRA-LIGAND FREE ENERGY PREDICTED BY IDOCK:   -0.63 KCAL/MOL
REMARK 927      BINDING AFFINITY PREDICTED BY RF-SCORE:    0.00 PKD
ROOT
HETATM    1  C   UNL     1      -6.035   3.358  70.913  1.00  0.00    -0.017 C  
HETATM    2  C   UNL     1      -6.251   4.419  71.994  1.00  0.00    -0.021 C  
HETATM    3  C   UNL     1      -5.225   5.542  71.821  1.00  0.00    -0.009 C  
ENDROOT
BRANCH   2   4
HETATM    4  N   UNL     1      -7.627   4.914  71.885  1.00  0.00    -0.094 NA 
HETATM    5  H   UNL     1      -7.881   5.062  70.908  1.00  0.00     0.000 HD 
BRANCH   4   6
HETATM    6  C   UNL     1      -8.612   4.054  72.554  1.00  0.00    -0.103 C  
BRANCH   6   7
HETATM    7  C   UNL     1      -9.906   3.972  71.720  1.00  0.00    -0.179 C  
HETATM    8  H   UNL     1     -11.806   4.434  71.968  1.00  0.00     0.000 HD 
HETATM    9  O   UNL     1     -11.008   4.485  72.482  1.00  0.00    -0.127 OA 
BRANCH   7  10
HETATM   10  C   UNL     1      -9.767   4.756  70.409  1.00  0.00    -0.219 C  
BRANCH  10  11
HETATM   11  O   UNL     1      -8.865   4.066  69.533  1.00  0.00    -0.079 OA 
BRANCH  11  12
HETATM   12  C   UNL     1      -9.202   4.047  68.204  1.00  0.00    -0.153 A  
HETATM   13  C   UNL     1      -9.816   5.085  67.505  1.00  0.00    -0.201 A  
HETATM   14  C   UNL     1     -10.160   4.926  66.158  1.00  0.00    -0.280 A  
HETATM   15  C   UNL     1      -9.901   3.723  65.489  1.00  0.00    -0.116 A  
HETATM   16  C   UNL     1      -9.241   2.700  66.181  1.00  0.00    -0.063 A  
HETATM   17  C   UNL     1      -8.902   2.860  67.530  1.00  0.00    -0.162 A  
BRANCH  15  18
HETATM   18  C   UNL     1     -10.385   3.521  64.071  1.00  0.00    -0.242 C  
BRANCH  18  19
HETATM   19  C   UNL     1      -9.445   3.873  62.934  1.00  0.00    -0.124 C  
HETATM   20  N   UNL     1      -8.703   2.886  62.364  1.00  0.00    -0.074 N  
HETATM   21  O   UNL     1      -9.345   5.024  62.516  1.00  0.00    -0.054 OA 
HETATM   22  H2  UNL     1      -8.777   1.924  62.697  1.00  0.00     0.000 HD 
HETATM   23  H1  UNL     1      -8.071   3.122  61.599  1.00  0.00     0.000 HD 
ENDBRANCH  18  19
ENDBRANCH  15  18
ENDBRANCH  11  12
ENDBRANCH  10  11
ENDBRANCH   7  10
ENDBRANCH   6   7
ENDBRANCH   4   6
ENDBRANCH   2   4
TORSDOF 8
ENDMDL
MODEL      258
REMARK 921   NORMALIZED FREE ENERGY PREDICTED BY IDOCK:   -1.26 KCAL/MOL
REMARK 922        TOTAL FREE ENERGY PREDICTED BY IDOCK:   -2.43 KCAL/MOL
REMARK 923 INTER-LIGAND FREE ENERGY PREDICTED BY IDOCK:   -1.64 KCAL/MOL
REMARK 924 INTRA-LIGAND FREE ENERGY PREDICTED BY IDOCK:   -0.79 KCAL/MOL
REMARK 927      BINDING AFFINITY PREDICTED BY RF-SCORE:    0.00 PKD
ROOT
HETATM    1  C   UNL     1      -6.070   3.372  70.889  1.00  0.00    -0.018 C  
HETATM    2  C   UNL     1      -6.263   4.491  71.913  1.00  0.00    -0.021 C  
HETATM    3  C   UNL     1      -5.132   5.513  71.774  1.00  0.00    -0.009 C  
ENDROOT
BRANCH   2   4
HETATM    4  N   UNL     1      -7.579   5.099  71.689  1.00  0.00    -0.098 NA 
HETATM    5  H   UNL     1      -7.526   5.820  70.970  1.00  0.00     0.000 HD 
BRANCH   4   6
HETATM    6  C   UNL     1      -8.628   4.121  71.370  1.00  0.00    -0.101 C  
BRANCH   6   7
HETATM    7  C   UNL     1      -9.560   4.674  70.275  1.00  0.00    -0.200 C  
HETATM    8  H   UNL     1     -11.443   5.241  70.143  1.00  0.00     0.000 HD 
HETATM    9  O   UNL     1     -10.868   4.900  70.818  1.00  0.00     0.004 OA 
BRANCH   7  10
HETATM   10  C   UNL     1      -9.006   5.978  69.686  1.00  0.00    -0.132 C  
BRANCH  10  11
HETATM   11  O   UNL     1      -7.882   5.682  68.844  1.00  0.00    -0.093 OA 
BRANCH  11  12
HETATM   12  C   UNL     1      -7.786   6.403  67.682  1.00  0.00    -0.102 A  
HETATM   13  C   UNL     1      -8.349   7.657  67.453  1.00  0.00    -0.116 A  
HETATM   14  C   UNL     1      -8.226   8.270  66.201  1.00  0.00    -0.119 A  
HETATM   15  C   UNL     1      -7.541   7.637  65.156  1.00  0.00    -0.095 A  
HETATM   16  C   UNL     1      -6.936   6.399  65.404  1.00  0.00    -0.052 A  
HETATM   17  C   UNL     1      -7.065   5.785  66.656  1.00  0.00    -0.069 A  
BRANCH  15  18
HETATM   18  C   UNL     1      -7.518   8.255  63.777  1.00  0.00    -0.121 C  
BRANCH  18  19
HETATM   19  C   UNL     1      -6.340   9.133  63.402  1.00  0.00    -0.090 C  
HETATM   20  N   UNL     1      -5.296   8.581  62.727  1.00  0.00    -0.069 N  
HETATM   21  O   UNL     1      -6.311  10.327  63.690  1.00  0.00    -0.136 OA 
HETATM   22  H2  UNL     1      -5.306   7.592  62.477  1.00  0.00     0.000 HD 
HETATM   23  H1  UNL     1      -4.504   9.172  62.474  1.00  0.00     0.000 HD 
ENDBRANCH  18  19
ENDBRANCH  15  18
ENDBRANCH  11  12
ENDBRANCH  10  11
ENDBRANCH   7  10
ENDBRANCH   6   7
ENDBRANCH   4   6
ENDBRANCH   2   4
TORSDOF 8
ENDMDL
MODEL      259
REMARK 921   NORMALIZED FREE ENERGY PREDICTED BY IDOCK:    1.24 KCAL/MOL
REMARK 922        TOTAL FREE ENERGY PREDICTED BY IDOCK:    1.24 KCAL/MOL
REMARK 923 INTER-LIGAND FREE ENERGY PREDICTED BY IDOCK:   -1.78 KCAL/MOL
REMARK 924 INTRA-LIGAND FREE ENERGY PREDICTED BY IDOCK:    3.02 KCAL/MOL
REMARK 927      BINDING AFFINITY PREDICTED BY RF-SCORE:    0.00 PKD
ROOT
HETATM    1  C   UNL     1     -10.175   5.308  65.469  1.00  0.00     0.168 C  
HETATM    2  C   UNL     1      -9.504   6.036  66.634  1.00  0.00    -0.149 C  
HETATM    3  C   UNL     1     -10.546   6.342  67.714  1.00  0.00    -0.329 C  
ENDROOT
BRANCH   2   4
HETATM    4  N   UNL     1      -8.421   5.190  67.145  1.00  0.00    -0.107 NA 
HETATM    5  H   UNL     1      -8.564   4.976  68.132  1.00  0.00     0.000 HD 
BRANCH   4   6
HETATM    6  C   UNL     1      -8.226   3.958  66.368  1.00  0.00    -0.104 C  
BRANCH   6   7
HETATM    7  C   UNL     1      -9.248   2.887  66.797  1.00  0.00    -0.124 C  
HETATM    8  H   UNL     1     -10.460   1.618  65.899  1.00  0.00     0.000 HD 
HETATM    9  O   UNL     1      -9.829   2.278  65.635  1.00  0.00     0.311 OA 
BRANCH   7  10
HETATM   10  C   UNL     1      -8.590   1.815  67.675  1.00  0.00    -0.086 C  
BRANCH  10  11
HETATM   11  O   UNL     1      -9.286   1.730  68.926  1.00  0.00    -0.115 OA 
BRANCH  11  12
HETATM   12  C   UNL     1      -9.020   2.717  69.839  1.00  0.00    -0.102 A  
HETATM   13  C   UNL     1      -9.552   2.802  71.125  1.00  0.00    -0.224 A  
HETATM   14  C   UNL     1      -9.246   3.891  71.948  1.00  0.00    -0.178 A  
HETATM   15  C   UNL     1      -8.406   4.917  71.497  1.00  0.00    -0.113 A  
HETATM   16  C   UNL     1      -7.835   4.805  70.223  1.00  0.00    -0.058 A  
HETATM   17  C   UNL     1      -8.147   3.716  69.400  1.00  0.00    -0.063 A  
BRANCH  15  18
HETATM   18  C   UNL     1      -8.179   6.144  72.350  1.00  0.00    -0.108 C  
BRANCH  18  19
HETATM   19  C   UNL     1      -8.445   6.045  73.839  1.00  0.00    -0.116 C  
HETATM   20  N   UNL     1      -8.557   4.815  74.407  1.00  0.00    -0.109 N  
HETATM   21  O   UNL     1      -8.556   7.048  74.540  1.00  0.00    -0.172 OA 
HETATM   22  H2  UNL     1      -8.464   3.972  73.840  1.00  0.00     0.000 HD 
HETATM   23  H1  UNL     1      -8.735   4.748  75.410  1.00  0.00     0.000 HD 
ENDBRANCH  18  19
ENDBRANCH  15  18
ENDBRANCH  11  12
ENDBRANCH  10  11
ENDBRANCH   7  10
ENDBRANCH   6   7
ENDBRANCH   4   6
ENDBRANCH   2   4
TORSDOF 8
ENDMDL
MODEL      260
REMARK 921   NORMALIZED FREE ENERGY PREDICTED BY IDOCK:    2.22 KCAL/MOL
REMARK 922        TOTAL FREE ENERGY PREDICTED BY IDOCK:    2.69 KCAL/MOL
REMARK 923 INTER-LIGAND FREE ENERGY PREDICTED BY IDOCK:    1.88 KCAL/MOL
REMARK 924 INTRA-LIGAND FREE ENERGY PREDICTED BY IDOCK:    0.82 KCAL/MOL
REMARK 927      BINDING AFFINITY PREDICTED BY RF-SCORE:    0.00 PKD
ROOT
HETATM    1  C   UNL     1     -14.265  12.768  73.579  1.00  0.00     4.915 C  
HETATM    2  C   UNL     1     -13.577  12.554  72.230  1.00  0.00    -0.342 C  
HETATM    3  C   UNL     1     -12.705  13.768  71.902  1.00  0.00    -0.347 C  
ENDROOT
BRANCH   2   4
HETATM    4  N   UNL     1     -12.788  11.320  72.305  1.00  0.00    -0.142 NA 
HETATM    5  H   UNL     1     -12.357  11.223  73.225  1.00  0.00     0.000 HD 
BRANCH   4   6
HETATM    6  C   UNL     1     -13.554  10.114  71.960  1.00  0.00    -0.229 C  
BRANCH   6   7
HETATM    7  C   UNL     1     -12.659   9.109  71.210  1.00  0.00    -0.288 C  
HETATM    8  H   UNL     1     -12.915   7.440  70.191  1.00  0.00     0.000 HD 
HETATM    9  O   UNL     1     -13.466   8.061  70.653  1.00  0.00     0.353 OA 
BRANCH   7  10
HETATM   10  C   UNL     1     -11.862   9.801  70.097  1.00  0.00    -0.079 C  
BRANCH  10  11
HETATM   11  O   UNL     1     -10.548  10.119  70.577  1.00  0.00    -0.290 OA 
BRANCH  11  12
HETATM   12  C   UNL     1      -9.856   9.099  71.177  1.00  0.00    -0.301 A  
HETATM   13  C   UNL     1     -10.263   8.395  72.310  1.00  0.00    -0.396 A  
HETATM   14  C   UNL     1      -9.441   7.406  72.862  1.00  0.00    -0.217 A  
HETATM   15  C   UNL     1      -8.196   7.109  72.294  1.00  0.00    -0.108 A  
HETATM   16  C   UNL     1      -7.812   7.785  71.130  1.00  0.00    -0.089 A  
HETATM   17  C   UNL     1      -8.634   8.777  70.582  1.00  0.00    -0.203 A  
BRANCH  15  18
HETATM   18  C   UNL     1      -7.268   6.125  72.969  1.00  0.00    -0.085 C  
BRANCH  18  19
HETATM   19  C   UNL     1      -7.871   5.078  73.884  1.00  0.00    -0.102 C  
HETATM   20  N   UNL     1      -7.116   4.007  74.248  1.00  0.00    -0.060 N  
HETATM   21  O   UNL     1      -9.021   5.178  74.305  1.00  0.00    -0.115 OA 
HETATM   22  H2  UNL     1      -6.158   3.910  73.910  1.00  0.00     0.000 HD 
HETATM   23  H1  UNL     1      -7.522   3.302  74.863  1.00  0.00     0.000 HD 
ENDBRANCH  18  19
ENDBRANCH  15  18
ENDBRANCH  11  12
ENDBRANCH  10  11
ENDBRANCH   7  10
ENDBRANCH   6   7
ENDBRANCH   4   6
ENDBRANCH   2   4
TORSDOF 8
ENDMDL
