MODEL        1
REMARK 921   NORMALIZED FREE ENERGY PREDICTED BY IDOCK:   -6.03 KCAL/MOL
REMARK 922        TOTAL FREE ENERGY PREDICTED BY IDOCK:   -8.92 KCAL/MOL
REMARK 923 INTER-LIGAND FREE ENERGY PREDICTED BY IDOCK:   -8.15 KCAL/MOL
REMARK 924 INTRA-LIGAND FREE ENERGY PREDICTED BY IDOCK:   -0.78 KCAL/MOL
REMARK 927      BINDING AFFINITY PREDICTED BY RF-SCORE:    0.00 PKD
ROOT
HETATM    1  C   UNL     1     -12.137  12.312  63.803  1.00  0.00    -0.532 C  
HETATM    2  N   UNL     1     -13.073  12.592  64.881  1.00  0.00    -0.809 NA 
HETATM    3  H   UNL     1     -13.196  11.780  65.485  1.00  0.00     0.000 HD 
ENDROOT
BRANCH   2   4
HETATM    4  C   UNL     1     -12.684  13.777  65.655  1.00  0.00    -0.478 C  
BRANCH   4   5
HETATM    5  C   UNL     1     -11.867  13.317  66.865  1.00  0.00    -0.446 C  
BRANCH   5   6
HETATM    6  C   UNL     1     -11.702  14.405  67.944  1.00  0.00    -0.356 C  
BRANCH   6   7
HETATM    7  C   UNL     1     -10.712  15.453  67.446  1.00  0.00    -0.296 A  
HETATM    8  C   UNL     1      -8.973  17.433  66.470  1.00  0.00    -0.285 A  
HETATM    9  C   UNL     1      -9.638  15.112  66.611  1.00  0.00    -0.272 A  
HETATM   10  C   UNL     1     -10.906  16.806  67.774  1.00  0.00    -0.285 A  
HETATM   11  C   UNL     1      -8.772  16.097  66.131  1.00  0.00    -0.358 A  
HETATM   12  C   UNL     1     -10.040  17.789  67.291  1.00  0.00    -0.337 A  
ENDBRANCH   6   7
BRANCH   6  13
HETATM   13  O   UNL     1     -11.289  13.823  69.198  1.00  0.00    -0.255 OA 
BRANCH  13  14
HETATM   14  C   UNL     1     -12.158  13.977  70.251  1.00  0.00    -0.355 A  
HETATM   15  C   UNL     1     -12.726  15.213  70.594  1.00  0.00    -0.451 A  
HETATM   16  C   UNL     1     -13.855  14.235  72.486  1.00  0.00    -0.575 A  
HETATM   17  C   UNL     1     -13.552  15.346  71.708  1.00  0.00    -0.596 A  
HETATM   18  C   UNL     1     -13.362  12.984  72.119  1.00  0.00    -0.622 A  
HETATM   19  C   UNL     1     -12.535  12.836  70.989  1.00  0.00    -0.369 A  
HETATM   20  C   UNL     1     -12.067  11.453  70.623  1.00  0.00    -0.469 C  
ENDBRANCH  13  14
ENDBRANCH   6  13
ENDBRANCH   5   6
ENDBRANCH   4   5
ENDBRANCH   2   4
TORSDOF 6
ENDMDL
MODEL        2
REMARK 921   NORMALIZED FREE ENERGY PREDICTED BY IDOCK:   -5.98 KCAL/MOL
REMARK 922        TOTAL FREE ENERGY PREDICTED BY IDOCK:   -8.85 KCAL/MOL
REMARK 923 INTER-LIGAND FREE ENERGY PREDICTED BY IDOCK:   -7.81 KCAL/MOL
REMARK 924 INTRA-LIGAND FREE ENERGY PREDICTED BY IDOCK:   -1.04 KCAL/MOL
REMARK 927      BINDING AFFINITY PREDICTED BY RF-SCORE:    0.00 PKD
ROOT
HETATM    1  C   UNL     1     -14.206  15.110  72.116  1.00  0.00    -0.559 C  
HETATM    2  N   UNL     1     -14.030  15.349  70.692  1.00  0.00    -0.783 NA 
HETATM    3  H   UNL     1     -14.626  16.111  70.369  1.00  0.00     0.000 HD 
ENDROOT
BRANCH   2   4
HETATM    4  C   UNL     1     -12.625  15.588  70.342  1.00  0.00    -0.378 C  
BRANCH   4   5
HETATM    5  C   UNL     1     -11.834  14.306  70.613  1.00  0.00    -0.349 C  
BRANCH   5   6
HETATM    6  C   UNL     1     -11.978  13.250  69.501  1.00  0.00    -0.307 C  
BRANCH   6   7
HETATM    7  C   UNL     1     -11.990  11.861  70.131  1.00  0.00    -0.413 A  
HETATM    8  C   UNL     1     -11.985   9.349  71.393  1.00  0.00    -0.446 A  
HETATM    9  C   UNL     1     -11.060  10.877  69.762  1.00  0.00    -0.328 A  
HETATM   10  C   UNL     1     -12.910  11.566  71.153  1.00  0.00    -0.414 A  
HETATM   11  C   UNL     1     -11.063   9.628  70.386  1.00  0.00    -0.346 A  
HETATM   12  C   UNL     1     -12.908  10.318  71.777  1.00  0.00    -0.565 A  
ENDBRANCH   6   7
BRANCH   6  13
HETATM   13  O   UNL     1     -10.927  13.390  68.522  1.00  0.00    -0.249 OA 
BRANCH  13  14
HETATM   14  C   UNL     1     -11.331  13.518  67.215  1.00  0.00    -0.315 A  
HETATM   15  C   UNL     1     -11.938  12.473  66.501  1.00  0.00    -0.367 A  
HETATM   16  C   UNL     1     -12.043  13.821  64.505  1.00  0.00    -0.463 A  
HETATM   17  C   UNL     1     -12.276  12.616  65.156  1.00  0.00    -0.539 A  
HETATM   18  C   UNL     1     -11.509  14.896  65.216  1.00  0.00    -0.336 A  
HETATM   19  C   UNL     1     -11.174  14.766  66.578  1.00  0.00    -0.342 A  
HETATM   20  C   UNL     1     -10.640  15.973  67.299  1.00  0.00    -0.313 C  
ENDBRANCH  13  14
ENDBRANCH   6  13
ENDBRANCH   5   6
ENDBRANCH   4   5
ENDBRANCH   2   4
TORSDOF 6
ENDMDL
MODEL        3
REMARK 921   NORMALIZED FREE ENERGY PREDICTED BY IDOCK:   -5.96 KCAL/MOL
REMARK 922        TOTAL FREE ENERGY PREDICTED BY IDOCK:   -8.83 KCAL/MOL
REMARK 923 INTER-LIGAND FREE ENERGY PREDICTED BY IDOCK:   -7.83 KCAL/MOL
REMARK 924 INTRA-LIGAND FREE ENERGY PREDICTED BY IDOCK:   -1.00 KCAL/MOL
REMARK 927      BINDING AFFINITY PREDICTED BY RF-SCORE:    0.00 PKD
ROOT
HETATM    1  C   UNL     1     -14.022  15.277  72.181  1.00  0.00    -0.549 C  
HETATM    2  N   UNL     1     -14.017  15.402  70.731  1.00  0.00    -0.859 NA 
HETATM    3  H   UNL     1     -14.560  16.211  70.428  1.00  0.00     0.000 HD 
ENDROOT
BRANCH   2   4
HETATM    4  C   UNL     1     -12.655  15.443  70.185  1.00  0.00    -0.293 C  
BRANCH   4   5
HETATM    5  C   UNL     1     -11.934  14.154  70.589  1.00  0.00    -0.385 C  
BRANCH   5   6
HETATM    6  C   UNL     1     -11.989  13.056  69.509  1.00  0.00    -0.289 C  
BRANCH   6   7
HETATM    7  C   UNL     1     -11.947  11.690  70.186  1.00  0.00    -0.441 A  
HETATM    8  C   UNL     1     -11.903   9.125  71.336  1.00  0.00    -0.415 A  
HETATM    9  C   UNL     1     -12.827  11.358  71.227  1.00  0.00    -0.481 A  
HETATM   10  C   UNL     1     -11.053  10.709  69.724  1.00  0.00    -0.358 A  
HETATM   11  C   UNL     1     -12.800  10.085  71.801  1.00  0.00    -0.546 A  
HETATM   12  C   UNL     1     -11.030   9.437  70.297  1.00  0.00    -0.305 A  
ENDBRANCH   6   7
BRANCH   6  13
HETATM   13  O   UNL     1     -10.917  13.221  68.557  1.00  0.00    -0.246 OA 
BRANCH  13  14
HETATM   14  C   UNL     1     -11.295  13.423  67.252  1.00  0.00    -0.319 A  
HETATM   15  C   UNL     1     -12.018  12.474  66.513  1.00  0.00    -0.367 A  
HETATM   16  C   UNL     1     -11.948  13.866  64.546  1.00  0.00    -0.464 A  
HETATM   17  C   UNL     1     -12.327  12.684  65.170  1.00  0.00    -0.547 A  
HETATM   18  C   UNL     1     -11.294  14.854  65.282  1.00  0.00    -0.358 A  
HETATM   19  C   UNL     1     -10.986  14.656  66.642  1.00  0.00    -0.323 A  
HETATM   20  C   UNL     1     -10.315  15.776  67.391  1.00  0.00    -0.282 C  
ENDBRANCH  13  14
ENDBRANCH   6  13
ENDBRANCH   5   6
ENDBRANCH   4   5
ENDBRANCH   2   4
TORSDOF 6
ENDMDL
MODEL        4
REMARK 921   NORMALIZED FREE ENERGY PREDICTED BY IDOCK:   -5.95 KCAL/MOL
REMARK 922        TOTAL FREE ENERGY PREDICTED BY IDOCK:   -8.82 KCAL/MOL
REMARK 923 INTER-LIGAND FREE ENERGY PREDICTED BY IDOCK:   -7.83 KCAL/MOL
REMARK 924 INTRA-LIGAND FREE ENERGY PREDICTED BY IDOCK:   -0.99 KCAL/MOL
REMARK 927      BINDING AFFINITY PREDICTED BY RF-SCORE:    0.00 PKD
ROOT
HETATM    1  C   UNL     1     -10.521   9.436  67.273  1.00  0.00    -0.264 C  
HETATM    2  N   UNL     1     -11.447  10.105  68.176  1.00  0.00    -0.628 NA 
HETATM    3  H   UNL     1     -11.904   9.438  68.797  1.00  0.00     0.000 HD 
ENDROOT
BRANCH   2   4
HETATM    4  C   UNL     1     -10.797  11.179  68.936  1.00  0.00    -0.216 C  
BRANCH   4   5
HETATM    5  C   UNL     1     -11.882  12.002  69.635  1.00  0.00    -0.401 C  
BRANCH   5   6
HETATM    6  C   UNL     1     -11.693  13.523  69.482  1.00  0.00    -0.322 C  
BRANCH   6   7
HETATM    7  C   UNL     1     -12.176  14.215  70.752  1.00  0.00    -0.435 A  
HETATM    8  C   UNL     1     -12.966  15.468  73.141  1.00  0.00    -0.634 A  
HETATM    9  C   UNL     1     -13.242  13.705  71.508  1.00  0.00    -0.409 A  
HETATM   10  C   UNL     1     -11.506  15.359  71.222  1.00  0.00    -0.444 A  
HETATM   11  C   UNL     1     -13.637  14.331  72.692  1.00  0.00    -0.601 A  
HETATM   12  C   UNL     1     -11.901  15.981  72.406  1.00  0.00    -0.639 A  
ENDBRANCH   6   7
BRANCH   6  13
HETATM   13  O   UNL     1     -12.378  14.008  68.307  1.00  0.00    -0.252 OA 
BRANCH  13  14
HETATM   14  C   UNL     1     -11.592  14.614  67.357  1.00  0.00    -0.389 A  
HETATM   15  C   UNL     1     -10.792  15.734  67.634  1.00  0.00    -0.310 A  
HETATM   16  C   UNL     1     -10.085  15.868  65.333  1.00  0.00    -0.296 A  
HETATM   17  C   UNL     1     -10.059  16.365  66.630  1.00  0.00    -0.290 A  
HETATM   18  C   UNL     1     -10.814  14.713  65.053  1.00  0.00    -0.431 A  
HETATM   19  C   UNL     1     -11.550  14.061  66.061  1.00  0.00    -0.362 A  
HETATM   20  C   UNL     1     -12.284  12.797  65.704  1.00  0.00    -0.503 C  
ENDBRANCH  13  14
ENDBRANCH   6  13
ENDBRANCH   5   6
ENDBRANCH   4   5
ENDBRANCH   2   4
TORSDOF 6
ENDMDL
MODEL        5
REMARK 921   NORMALIZED FREE ENERGY PREDICTED BY IDOCK:   -5.92 KCAL/MOL
REMARK 922        TOTAL FREE ENERGY PREDICTED BY IDOCK:   -8.77 KCAL/MOL
REMARK 923 INTER-LIGAND FREE ENERGY PREDICTED BY IDOCK:   -7.91 KCAL/MOL
REMARK 924 INTRA-LIGAND FREE ENERGY PREDICTED BY IDOCK:   -0.86 KCAL/MOL
REMARK 927      BINDING AFFINITY PREDICTED BY RF-SCORE:    0.00 PKD
ROOT
HETATM    1  C   UNL     1     -13.864  15.347  72.276  1.00  0.00    -0.548 C  
HETATM    2  N   UNL     1     -13.863  15.446  70.824  1.00  0.00    -0.860 NA 
HETATM    3  H   UNL     1     -14.312  16.307  70.512  1.00  0.00     0.000 HD 
ENDROOT
BRANCH   2   4
HETATM    4  C   UNL     1     -12.512  15.319  70.264  1.00  0.00    -0.363 C  
BRANCH   4   5
HETATM    5  C   UNL     1     -11.918  13.988  70.732  1.00  0.00    -0.364 C  
BRANCH   5   6
HETATM    6  C   UNL     1     -12.100  12.844  69.715  1.00  0.00    -0.245 C  
BRANCH   6   7
HETATM    7  C   UNL     1     -12.152  11.517  70.464  1.00  0.00    -0.472 A  
HETATM    8  C   UNL     1     -12.274   9.019  71.747  1.00  0.00    -0.434 A  
HETATM    9  C   UNL     1     -13.112  11.269  71.456  1.00  0.00    -0.459 A  
HETATM   10  C   UNL     1     -11.261  10.485  70.119  1.00  0.00    -0.389 A  
HETATM   11  C   UNL     1     -13.168  10.029  72.096  1.00  0.00    -0.489 A  
HETATM   12  C   UNL     1     -11.320   9.246  70.758  1.00  0.00    -0.349 A  
ENDBRANCH   6   7
BRANCH   6  13
HETATM   13  O   UNL     1     -11.050  12.867  68.726  1.00  0.00    -0.243 OA 
BRANCH  13  14
HETATM   14  C   UNL     1     -11.456  12.970  67.417  1.00  0.00    -0.332 A  
HETATM   15  C   UNL     1     -12.168  14.075  66.927  1.00  0.00    -0.415 A  
HETATM   16  C   UNL     1     -12.344  13.067  64.744  1.00  0.00    -0.490 A  
HETATM   17  C   UNL     1     -12.622  14.117  65.610  1.00  0.00    -0.495 A  
HETATM   18  C   UNL     1     -11.573  11.993  65.191  1.00  0.00    -0.330 A  
HETATM   19  C   UNL     1     -11.101  11.946  66.516  1.00  0.00    -0.357 A  
HETATM   20  C   UNL     1     -10.241  10.780  66.925  1.00  0.00    -0.274 C  
ENDBRANCH  13  14
ENDBRANCH   6  13
ENDBRANCH   5   6
ENDBRANCH   4   5
ENDBRANCH   2   4
TORSDOF 6
ENDMDL
MODEL        6
REMARK 921   NORMALIZED FREE ENERGY PREDICTED BY IDOCK:   -5.91 KCAL/MOL
REMARK 922        TOTAL FREE ENERGY PREDICTED BY IDOCK:   -8.76 KCAL/MOL
REMARK 923 INTER-LIGAND FREE ENERGY PREDICTED BY IDOCK:   -7.55 KCAL/MOL
REMARK 924 INTRA-LIGAND FREE ENERGY PREDICTED BY IDOCK:   -1.21 KCAL/MOL
REMARK 927      BINDING AFFINITY PREDICTED BY RF-SCORE:    0.00 PKD
ROOT
HETATM    1  C   UNL     1     -12.103  12.502  65.108  1.00  0.00    -0.446 C  
HETATM    2  N   UNL     1     -12.144  12.384  66.558  1.00  0.00    -0.598 NA 
HETATM    3  H   UNL     1     -12.999  11.922  66.867  1.00  0.00     0.000 HD 
ENDROOT
BRANCH   2   4
HETATM    4  C   UNL     1     -10.954  11.711  67.090  1.00  0.00    -0.280 C  
BRANCH   4   5
HETATM    5  C   UNL     1     -11.400  10.717  68.165  1.00  0.00    -0.377 C  
BRANCH   5   6
HETATM    6  C   UNL     1     -11.425  11.318  69.584  1.00  0.00    -0.309 C  
BRANCH   6   7
HETATM    7  C   UNL     1     -11.521  10.187  70.602  1.00  0.00    -0.432 A  
HETATM    8  C   UNL     1     -11.736   8.177  72.555  1.00  0.00    -0.457 A  
HETATM    9  C   UNL     1     -10.378   9.525  71.076  1.00  0.00    -0.353 A  
HETATM   10  C   UNL     1     -12.772   9.830  71.134  1.00  0.00    -0.433 A  
HETATM   11  C   UNL     1     -10.487   8.523  72.042  1.00  0.00    -0.407 A  
HETATM   12  C   UNL     1     -12.878   8.830  72.101  1.00  0.00    -0.456 A  
ENDBRANCH   6   7
BRANCH   6  13
HETATM   13  O   UNL     1     -12.509  12.262  69.721  1.00  0.00    -0.056 OA 
BRANCH  13  14
HETATM   14  C   UNL     1     -12.170  13.504  70.202  1.00  0.00    -0.330 A  
HETATM   15  C   UNL     1     -11.351  14.397  69.495  1.00  0.00    -0.318 A  
HETATM   16  C   UNL     1     -11.436  15.994  71.298  1.00  0.00    -0.475 A  
HETATM   17  C   UNL     1     -10.974  15.622  70.042  1.00  0.00    -0.336 A  
HETATM   18  C   UNL     1     -12.310  15.153  71.987  1.00  0.00    -0.429 A  
HETATM   19  C   UNL     1     -12.707  13.918  71.438  1.00  0.00    -0.445 A  
HETATM   20  C   UNL     1     -13.684  13.075  72.212  1.00  0.00    -0.608 C  
ENDBRANCH  13  14
ENDBRANCH   6  13
ENDBRANCH   5   6
ENDBRANCH   4   5
ENDBRANCH   2   4
TORSDOF 6
ENDMDL
MODEL        7
REMARK 921   NORMALIZED FREE ENERGY PREDICTED BY IDOCK:   -5.89 KCAL/MOL
REMARK 922        TOTAL FREE ENERGY PREDICTED BY IDOCK:   -8.73 KCAL/MOL
REMARK 923 INTER-LIGAND FREE ENERGY PREDICTED BY IDOCK:   -7.56 KCAL/MOL
REMARK 924 INTRA-LIGAND FREE ENERGY PREDICTED BY IDOCK:   -1.17 KCAL/MOL
REMARK 927      BINDING AFFINITY PREDICTED BY RF-SCORE:    0.00 PKD
ROOT
HETATM    1  C   UNL     1      -7.163  15.120  69.539  1.00  0.00    -0.204 C  
HETATM    2  N   UNL     1      -8.604  15.107  69.742  1.00  0.00    -0.424 NA 
HETATM    3  H   UNL     1      -8.837  15.085  70.735  1.00  0.00     0.000 HD 
ENDROOT
BRANCH   2   4
HETATM    4  C   UNL     1      -9.267  16.228  69.065  1.00  0.00    -0.253 C  
BRANCH   4   5
HETATM    5  C   UNL     1     -10.703  16.327  69.587  1.00  0.00    -0.338 C  
BRANCH   5   6
HETATM    6  C   UNL     1     -11.631  15.224  69.043  1.00  0.00    -0.343 C  
BRANCH   6   7
HETATM    7  C   UNL     1     -12.443  14.644  70.196  1.00  0.00    -0.369 A  
HETATM    8  C   UNL     1     -13.881  13.640  72.393  1.00  0.00    -0.691 A  
HETATM    9  C   UNL     1     -12.354  13.289  70.550  1.00  0.00    -0.389 A  
HETATM   10  C   UNL     1     -13.257  15.489  70.971  1.00  0.00    -0.539 A  
HETATM   11  C   UNL     1     -13.073  12.791  71.639  1.00  0.00    -0.428 A  
HETATM   12  C   UNL     1     -13.972  14.989  72.060  1.00  0.00    -0.605 A  
ENDBRANCH   6   7
BRANCH   6  13
HETATM   13  O   UNL     1     -10.871  14.210  68.353  1.00  0.00    -0.241 OA 
BRANCH  13  14
HETATM   14  C   UNL     1     -11.191  14.011  67.031  1.00  0.00    -0.313 A  
HETATM   15  C   UNL     1     -11.218  15.052  66.090  1.00  0.00    -0.307 A  
HETATM   16  C   UNL     1     -11.956  13.545  64.359  1.00  0.00    -0.466 A  
HETATM   17  C   UNL     1     -11.612  14.826  64.772  1.00  0.00    -0.418 A  
HETATM   18  C   UNL     1     -11.865  12.484  65.259  1.00  0.00    -0.461 A  
HETATM   19  C   UNL     1     -11.458  12.699  66.590  1.00  0.00    -0.409 A  
HETATM   20  C   UNL     1     -11.341  11.507  67.502  1.00  0.00    -0.366 C  
ENDBRANCH  13  14
ENDBRANCH   6  13
ENDBRANCH   5   6
ENDBRANCH   4   5
ENDBRANCH   2   4
TORSDOF 6
ENDMDL
MODEL        8
REMARK 921   NORMALIZED FREE ENERGY PREDICTED BY IDOCK:   -5.89 KCAL/MOL
REMARK 922        TOTAL FREE ENERGY PREDICTED BY IDOCK:   -8.73 KCAL/MOL
REMARK 923 INTER-LIGAND FREE ENERGY PREDICTED BY IDOCK:   -7.73 KCAL/MOL
REMARK 924 INTRA-LIGAND FREE ENERGY PREDICTED BY IDOCK:   -1.00 KCAL/MOL
REMARK 927      BINDING AFFINITY PREDICTED BY RF-SCORE:    0.00 PKD
ROOT
HETATM    1  C   UNL     1     -10.357  17.929  68.176  1.00  0.00    -0.389 C  
HETATM    2  N   UNL     1     -10.802  16.623  67.714  1.00  0.00    -0.325 NA 
HETATM    3  H   UNL     1     -11.171  16.672  66.765  1.00  0.00     0.000 HD 
ENDROOT
BRANCH   2   4
HETATM    4  C   UNL     1      -9.746  15.610  67.822  1.00  0.00    -0.218 C  
BRANCH   4   5
HETATM    5  C   UNL     1     -10.247  14.481  68.726  1.00  0.00    -0.244 C  
BRANCH   5   6
HETATM    6  C   UNL     1     -11.764  14.236  68.617  1.00  0.00    -0.345 C  
BRANCH   6   7
HETATM    7  C   UNL     1     -12.377  14.277  70.013  1.00  0.00    -0.403 A  
HETATM    8  C   UNL     1     -13.593  14.291  72.547  1.00  0.00    -0.620 A  
HETATM    9  C   UNL     1     -12.823  15.478  70.585  1.00  0.00    -0.466 A  
HETATM   10  C   UNL     1     -12.563  13.082  70.729  1.00  0.00    -0.321 A  
HETATM   11  C   UNL     1     -13.422  15.484  71.846  1.00  0.00    -0.576 A  
HETATM   12  C   UNL     1     -13.164  13.090  71.988  1.00  0.00    -0.543 A  
ENDBRANCH   6   7
BRANCH   6  13
HETATM   13  O   UNL     1     -12.034  12.987  67.945  1.00  0.00    -0.347 OA 
BRANCH  13  14
HETATM   14  C   UNL     1     -11.907  12.999  66.577  1.00  0.00    -0.403 A  
HETATM   15  C   UNL     1     -12.399  14.040  65.775  1.00  0.00    -0.506 A  
HETATM   16  C   UNL     1     -11.700  12.904  63.768  1.00  0.00    -0.557 A  
HETATM   17  C   UNL     1     -12.312  13.987  64.385  1.00  0.00    -0.401 A  
HETATM   18  C   UNL     1     -11.137  11.895  64.548  1.00  0.00    -0.381 A  
HETATM   19  C   UNL     1     -11.210  11.943  65.954  1.00  0.00    -0.373 A  
HETATM   20  C   UNL     1     -10.549  10.843  66.740  1.00  0.00    -0.313 C  
ENDBRANCH  13  14
ENDBRANCH   6  13
ENDBRANCH   5   6
ENDBRANCH   4   5
ENDBRANCH   2   4
TORSDOF 6
ENDMDL
MODEL        9
REMARK 921   NORMALIZED FREE ENERGY PREDICTED BY IDOCK:   -5.89 KCAL/MOL
REMARK 922        TOTAL FREE ENERGY PREDICTED BY IDOCK:   -8.73 KCAL/MOL
REMARK 923 INTER-LIGAND FREE ENERGY PREDICTED BY IDOCK:   -7.94 KCAL/MOL
REMARK 924 INTRA-LIGAND FREE ENERGY PREDICTED BY IDOCK:   -0.79 KCAL/MOL
REMARK 927      BINDING AFFINITY PREDICTED BY RF-SCORE:    0.00 PKD
ROOT
HETATM    1  C   UNL     1      -9.949  19.316  68.572  1.00  0.00    -0.433 C  
HETATM    2  N   UNL     1     -10.499  18.102  69.157  1.00  0.00    -0.386 NA 
HETATM    3  H   UNL     1     -11.503  18.188  69.311  1.00  0.00     0.000 HD 
ENDROOT
BRANCH   2   4
HETATM    4  C   UNL     1     -10.183  16.913  68.357  1.00  0.00    -0.322 C  
BRANCH   4   5
HETATM    5  C   UNL     1     -10.341  15.676  69.246  1.00  0.00    -0.250 C  
BRANCH   5   6
HETATM    6  C   UNL     1     -11.781  15.130  69.288  1.00  0.00    -0.329 C  
BRANCH   6   7
HETATM    7  C   UNL     1     -12.378  15.402  70.665  1.00  0.00    -0.451 A  
HETATM    8  C   UNL     1     -13.406  15.825  73.246  1.00  0.00    -0.649 A  
HETATM    9  C   UNL     1     -13.716  15.102  70.959  1.00  0.00    -0.450 A  
HETATM   10  C   UNL     1     -11.561  15.907  71.692  1.00  0.00    -0.541 A  
HETATM   11  C   UNL     1     -14.227  15.317  72.241  1.00  0.00    -0.642 A  
HETATM   12  C   UNL     1     -12.073  16.119  72.972  1.00  0.00    -0.636 A  
ENDBRANCH   6   7
BRANCH   6  13
HETATM   13  O   UNL     1     -11.806  13.726  68.955  1.00  0.00    -0.320 OA 
BRANCH  13  14
HETATM   14  C   UNL     1     -11.884  13.424  67.617  1.00  0.00    -0.354 A  
HETATM   15  C   UNL     1     -12.357  14.333  66.658  1.00  0.00    -0.320 A  
HETATM   16  C   UNL     1     -12.112  12.699  64.903  1.00  0.00    -0.494 A  
HETATM   17  C   UNL     1     -12.486  13.970  65.318  1.00  0.00    -0.495 A  
HETATM   18  C   UNL     1     -11.570  11.805  65.826  1.00  0.00    -0.194 A  
HETATM   19  C   UNL     1     -11.425  12.164  67.180  1.00  0.00    -0.413 A  
HETATM   20  C   UNL     1     -10.797  11.170  68.119  1.00  0.00    -0.266 C  
ENDBRANCH  13  14
ENDBRANCH   6  13
ENDBRANCH   5   6
ENDBRANCH   4   5
ENDBRANCH   2   4
TORSDOF 6
ENDMDL
MODEL       10
REMARK 921   NORMALIZED FREE ENERGY PREDICTED BY IDOCK:   -5.85 KCAL/MOL
REMARK 922        TOTAL FREE ENERGY PREDICTED BY IDOCK:   -8.67 KCAL/MOL
REMARK 923 INTER-LIGAND FREE ENERGY PREDICTED BY IDOCK:   -7.45 KCAL/MOL
REMARK 924 INTRA-LIGAND FREE ENERGY PREDICTED BY IDOCK:   -1.22 KCAL/MOL
REMARK 927      BINDING AFFINITY PREDICTED BY RF-SCORE:    0.00 PKD
ROOT
HETATM    1  C   UNL     1      -9.752   9.501  69.730  1.00  0.00    -0.214 C  
HETATM    2  N   UNL     1      -9.876  10.942  69.566  1.00  0.00    -0.437 NA 
HETATM    3  H   UNL     1      -9.094  11.432  69.999  1.00  0.00     0.000 HD 
ENDROOT
BRANCH   2   4
HETATM    4  C   UNL     1     -10.031  11.326  68.158  1.00  0.00    -0.181 C  
BRANCH   4   5
HETATM    5  C   UNL     1     -11.507  11.640  67.901  1.00  0.00    -0.381 C  
BRANCH   5   6
HETATM    6  C   UNL     1     -11.882  13.105  68.194  1.00  0.00    -0.348 C  
BRANCH   6   7
HETATM    7  C   UNL     1     -11.582  13.952  66.962  1.00  0.00    -0.394 A  
HETATM    8  C   UNL     1     -11.072  15.602  64.744  1.00  0.00    -0.426 A  
HETATM    9  C   UNL     1     -12.228  13.724  65.738  1.00  0.00    -0.495 A  
HETATM   10  C   UNL     1     -10.684  15.030  67.057  1.00  0.00    -0.304 A  
HETATM   11  C   UNL     1     -11.970  14.541  64.635  1.00  0.00    -0.478 A  
HETATM   12  C   UNL     1     -10.430  15.847  65.955  1.00  0.00    -0.373 A  
ENDBRANCH   6   7
BRANCH   6  13
HETATM   13  O   UNL     1     -11.188  13.588  69.364  1.00  0.00    -0.248 OA 
BRANCH  13  14
HETATM   14  C   UNL     1     -11.975  13.912  70.442  1.00  0.00    -0.323 A  
HETATM   15  C   UNL     1     -12.759  12.968  71.124  1.00  0.00    -0.372 A  
HETATM   16  C   UNL     1     -13.644  14.670  72.583  1.00  0.00    -0.571 A  
HETATM   17  C   UNL     1     -13.597  13.344  72.172  1.00  0.00    -0.660 A  
HETATM   18  C   UNL     1     -12.818  15.611  71.969  1.00  0.00    -0.518 A  
HETATM   19  C   UNL     1     -11.960  15.240  70.916  1.00  0.00    -0.391 A  
HETATM   20  C   UNL     1     -11.064  16.293  70.321  1.00  0.00    -0.340 C  
ENDBRANCH  13  14
ENDBRANCH   6  13
ENDBRANCH   5   6
ENDBRANCH   4   5
ENDBRANCH   2   4
TORSDOF 6
ENDMDL
MODEL       11
REMARK 921   NORMALIZED FREE ENERGY PREDICTED BY IDOCK:   -5.84 KCAL/MOL
REMARK 922        TOTAL FREE ENERGY PREDICTED BY IDOCK:   -8.67 KCAL/MOL
REMARK 923 INTER-LIGAND FREE ENERGY PREDICTED BY IDOCK:   -7.42 KCAL/MOL
REMARK 924 INTRA-LIGAND FREE ENERGY PREDICTED BY IDOCK:   -1.25 KCAL/MOL
REMARK 927      BINDING AFFINITY PREDICTED BY RF-SCORE:    0.00 PKD
ROOT
HETATM    1  C   UNL     1     -10.262  17.816  68.133  1.00  0.00    -0.382 C  
HETATM    2  N   UNL     1     -10.766  16.962  69.198  1.00  0.00    -0.325 NA 
HETATM    3  H   UNL     1     -11.684  16.582  68.964  1.00  0.00     0.000 HD 
ENDROOT
BRANCH   2   4
HETATM    4  C   UNL     1      -9.821  15.894  69.543  1.00  0.00    -0.268 C  
BRANCH   4   5
HETATM    5  C   UNL     1      -9.708  14.944  68.347  1.00  0.00    -0.209 C  
BRANCH   5   6
HETATM    6  C   UNL     1     -10.874  13.942  68.247  1.00  0.00    -0.249 C  
BRANCH   6   7
HETATM    7  C   UNL     1     -11.317  13.838  66.791  1.00  0.00    -0.345 A  
HETATM    8  C   UNL     1     -12.211  13.727  64.129  1.00  0.00    -0.443 A  
HETATM    9  C   UNL     1     -11.907  12.671  66.284  1.00  0.00    -0.471 A  
HETATM   10  C   UNL     1     -11.194  14.952  65.943  1.00  0.00    -0.328 A  
HETATM   11  C   UNL     1     -12.346  12.615  64.959  1.00  0.00    -0.561 A  
HETATM   12  C   UNL     1     -11.636  14.895  64.621  1.00  0.00    -0.395 A  
ENDBRANCH   6   7
BRANCH   6  13
HETATM   13  O   UNL     1     -11.959  14.331  69.116  1.00  0.00    -0.319 OA 
BRANCH  13  14
HETATM   14  C   UNL     1     -12.341  13.404  70.055  1.00  0.00    -0.226 A  
HETATM   15  C   UNL     1     -12.014  12.042  69.958  1.00  0.00    -0.400 A  
HETATM   16  C   UNL     1     -13.247  11.543  71.968  1.00  0.00    -0.443 A  
HETATM   17  C   UNL     1     -12.475  11.119  70.894  1.00  0.00    -0.509 A  
HETATM   18  C   UNL     1     -13.522  12.901  72.124  1.00  0.00    -0.619 A  
HETATM   19  C   UNL     1     -13.052  13.845  71.190  1.00  0.00    -0.351 A  
HETATM   20  C   UNL     1     -13.348  15.300  71.435  1.00  0.00    -0.573 C  
ENDBRANCH  13  14
ENDBRANCH   6  13
ENDBRANCH   5   6
ENDBRANCH   4   5
ENDBRANCH   2   4
TORSDOF 6
ENDMDL
MODEL       12
REMARK 921   NORMALIZED FREE ENERGY PREDICTED BY IDOCK:   -5.83 KCAL/MOL
REMARK 922        TOTAL FREE ENERGY PREDICTED BY IDOCK:   -8.65 KCAL/MOL
REMARK 923 INTER-LIGAND FREE ENERGY PREDICTED BY IDOCK:   -7.73 KCAL/MOL
REMARK 924 INTRA-LIGAND FREE ENERGY PREDICTED BY IDOCK:   -0.92 KCAL/MOL
REMARK 927      BINDING AFFINITY PREDICTED BY RF-SCORE:    0.00 PKD
ROOT
HETATM    1  C   UNL     1     -10.358  19.847  68.198  1.00  0.00    -0.397 C  
HETATM    2  N   UNL     1     -10.154  18.707  69.079  1.00  0.00    -0.471 NA 
HETATM    3  H   UNL     1     -10.663  18.821  69.955  1.00  0.00     0.000 HD 
ENDROOT
BRANCH   2   4
HETATM    4  C   UNL     1     -10.498  17.438  68.427  1.00  0.00    -0.384 C  
BRANCH   4   5
HETATM    5  C   UNL     1     -10.772  16.394  69.513  1.00  0.00    -0.325 C  
BRANCH   5   6
HETATM    6  C   UNL     1     -11.635  15.214  69.027  1.00  0.00    -0.330 C  
BRANCH   6   7
HETATM    7  C   UNL     1     -12.382  14.620  70.216  1.00  0.00    -0.406 A  
HETATM    8  C   UNL     1     -13.812  13.457  72.338  1.00  0.00    -0.665 A  
HETATM    9  C   UNL     1     -13.281  15.383  70.976  1.00  0.00    -0.560 A  
HETATM   10  C   UNL     1     -12.221  13.260  70.533  1.00  0.00    -0.416 A  
HETATM   11  C   UNL     1     -13.987  14.805  72.033  1.00  0.00    -0.582 A  
HETATM   12  C   UNL     1     -12.929  12.684  71.588  1.00  0.00    -0.400 A  
ENDBRANCH   6   7
BRANCH   6  13
HETATM   13  O   UNL     1     -10.824  14.230  68.351  1.00  0.00    -0.240 OA 
BRANCH  13  14
HETATM   14  C   UNL     1     -11.146  13.980  67.039  1.00  0.00    -0.304 A  
HETATM   15  C   UNL     1     -12.388  13.457  66.647  1.00  0.00    -0.324 A  
HETATM   16  C   UNL     1     -11.699  13.398  64.338  1.00  0.00    -0.435 A  
HETATM   17  C   UNL     1     -12.657  13.153  65.313  1.00  0.00    -0.531 A  
HETATM   18  C   UNL     1     -10.487  13.986  64.696  1.00  0.00    -0.398 A  
HETATM   19  C   UNL     1     -10.208  14.307  66.038  1.00  0.00    -0.327 A  
HETATM   20  C   UNL     1      -8.899  14.977  66.355  1.00  0.00    -0.238 C  
ENDBRANCH  13  14
ENDBRANCH   6  13
ENDBRANCH   5   6
ENDBRANCH   4   5
ENDBRANCH   2   4
TORSDOF 6
ENDMDL
MODEL       13
REMARK 921   NORMALIZED FREE ENERGY PREDICTED BY IDOCK:   -5.82 KCAL/MOL
REMARK 922        TOTAL FREE ENERGY PREDICTED BY IDOCK:   -8.64 KCAL/MOL
REMARK 923 INTER-LIGAND FREE ENERGY PREDICTED BY IDOCK:   -7.55 KCAL/MOL
REMARK 924 INTRA-LIGAND FREE ENERGY PREDICTED BY IDOCK:   -1.09 KCAL/MOL
REMARK 927      BINDING AFFINITY PREDICTED BY RF-SCORE:    0.00 PKD
ROOT
HETATM    1  C   UNL     1      -8.336  10.228  69.255  1.00  0.00    -0.163 C  
HETATM    2  N   UNL     1      -9.575  10.982  69.141  1.00  0.00    -0.397 NA 
HETATM    3  H   UNL     1      -9.527  11.854  69.668  1.00  0.00     0.000 HD 
ENDROOT
BRANCH   2   4
HETATM    4  C   UNL     1      -9.944  11.227  67.742  1.00  0.00    -0.176 C  
BRANCH   4   5
HETATM    5  C   UNL     1     -11.464  11.392  67.664  1.00  0.00    -0.348 C  
BRANCH   5   6
HETATM    6  C   UNL     1     -11.952  12.793  68.082  1.00  0.00    -0.246 C  
BRANCH   6   7
HETATM    7  C   UNL     1     -11.664  13.777  66.953  1.00  0.00    -0.424 A  
HETATM    8  C   UNL     1     -11.094  15.505  64.810  1.00  0.00    -0.421 A  
HETATM    9  C   UNL     1     -10.717  14.803  67.094  1.00  0.00    -0.299 A  
HETATM   10  C   UNL     1     -12.312  13.627  65.714  1.00  0.00    -0.524 A  
HETATM   11  C   UNL     1     -10.438  15.664  66.030  1.00  0.00    -0.343 A  
HETATM   12  C   UNL     1     -12.030  14.486  64.652  1.00  0.00    -0.478 A  
ENDBRANCH   6   7
BRANCH   6  13
HETATM   13  O   UNL     1     -11.338  13.200  69.323  1.00  0.00    -0.266 OA 
BRANCH  13  14
HETATM   14  C   UNL     1     -12.189  13.684  70.287  1.00  0.00    -0.353 A  
HETATM   15  C   UNL     1     -12.568  15.034  70.359  1.00  0.00    -0.399 A  
HETATM   16  C   UNL     1     -13.857  14.626  72.354  1.00  0.00    -0.580 A  
HETATM   17  C   UNL     1     -13.379  15.504  71.389  1.00  0.00    -0.592 A  
HETATM   18  C   UNL     1     -13.554  13.268  72.259  1.00  0.00    -0.703 A  
HETATM   19  C   UNL     1     -12.743  12.780  71.216  1.00  0.00    -0.364 A  
HETATM   20  C   UNL     1     -12.485  11.299  71.146  1.00  0.00    -0.479 C  
ENDBRANCH  13  14
ENDBRANCH   6  13
ENDBRANCH   5   6
ENDBRANCH   4   5
ENDBRANCH   2   4
TORSDOF 6
ENDMDL
MODEL       14
REMARK 921   NORMALIZED FREE ENERGY PREDICTED BY IDOCK:   -5.79 KCAL/MOL
REMARK 922        TOTAL FREE ENERGY PREDICTED BY IDOCK:   -8.60 KCAL/MOL
REMARK 923 INTER-LIGAND FREE ENERGY PREDICTED BY IDOCK:   -7.36 KCAL/MOL
REMARK 924 INTRA-LIGAND FREE ENERGY PREDICTED BY IDOCK:   -1.24 KCAL/MOL
REMARK 927      BINDING AFFINITY PREDICTED BY RF-SCORE:    0.00 PKD
ROOT
HETATM    1  C   UNL     1     -10.628  14.913  65.348  1.00  0.00    -0.373 C  
HETATM    2  N   UNL     1     -10.833  14.013  66.473  1.00  0.00    -0.298 NA 
HETATM    3  H   UNL     1     -10.082  14.100  67.157  1.00  0.00     0.000 HD 
ENDROOT
BRANCH   2   4
HETATM    4  C   UNL     1     -12.147  14.204  67.099  1.00  0.00    -0.397 C  
BRANCH   4   5
HETATM    5  C   UNL     1     -12.020  13.894  68.593  1.00  0.00    -0.401 C  
BRANCH   5   6
HETATM    6  C   UNL     1     -11.329  15.014  69.395  1.00  0.00    -0.297 C  
BRANCH   6   7
HETATM    7  C   UNL     1     -12.146  15.303  70.651  1.00  0.00    -0.399 A  
HETATM    8  C   UNL     1     -13.580  15.768  73.022  1.00  0.00    -0.638 A  
HETATM    9  C   UNL     1     -13.481  14.892  70.771  1.00  0.00    -0.279 A  
HETATM   10  C   UNL     1     -11.539  15.942  71.746  1.00  0.00    -0.541 A  
HETATM   11  C   UNL     1     -14.195  15.128  71.948  1.00  0.00    -0.676 A  
HETATM   12  C   UNL     1     -12.253  16.175  72.922  1.00  0.00    -0.640 A  
ENDBRANCH   6   7
BRANCH   6  13
HETATM   13  O   UNL     1     -11.153  16.193  68.581  1.00  0.00    -0.318 OA 
BRANCH  13  14
HETATM   14  C   UNL     1      -9.897  16.749  68.589  1.00  0.00    -0.261 A  
HETATM   15  C   UNL     1      -8.748  16.031  68.955  1.00  0.00    -0.245 A  
HETATM   16  C   UNL     1      -7.366  17.986  68.680  1.00  0.00    -0.286 A  
HETATM   17  C   UNL     1      -7.499  16.645  69.016  1.00  0.00    -0.232 A  
HETATM   18  C   UNL     1      -8.481  18.699  68.242  1.00  0.00    -0.350 A  
HETATM   19  C   UNL     1      -9.747  18.086  68.166  1.00  0.00    -0.323 A  
HETATM   20  C   UNL     1     -10.903  18.898  67.648  1.00  0.00    -0.407 C  
ENDBRANCH  13  14
ENDBRANCH   6  13
ENDBRANCH   5   6
ENDBRANCH   4   5
ENDBRANCH   2   4
TORSDOF 6
ENDMDL
MODEL       15
REMARK 921   NORMALIZED FREE ENERGY PREDICTED BY IDOCK:   -5.79 KCAL/MOL
REMARK 922        TOTAL FREE ENERGY PREDICTED BY IDOCK:   -8.59 KCAL/MOL
REMARK 923 INTER-LIGAND FREE ENERGY PREDICTED BY IDOCK:   -7.29 KCAL/MOL
REMARK 924 INTRA-LIGAND FREE ENERGY PREDICTED BY IDOCK:   -1.31 KCAL/MOL
REMARK 927      BINDING AFFINITY PREDICTED BY RF-SCORE:    0.00 PKD
ROOT
HETATM    1  C   UNL     1     -10.715   8.836  70.012  1.00  0.00    -0.228 C  
HETATM    2  N   UNL     1     -10.346  10.242  70.092  1.00  0.00    -0.426 NA 
HETATM    3  H   UNL     1      -9.635  10.397  70.807  1.00  0.00     0.000 HD 
ENDROOT
BRANCH   2   4
HETATM    4  C   UNL     1      -9.919  10.774  68.793  1.00  0.00    -0.193 C  
BRANCH   4   5
HETATM    5  C   UNL     1     -11.167  11.072  67.958  1.00  0.00    -0.372 C  
BRANCH   5   6
HETATM    6  C   UNL     1     -11.761  12.469  68.222  1.00  0.00    -0.340 C  
BRANCH   6   7
HETATM    7  C   UNL     1     -11.497  13.359  67.011  1.00  0.00    -0.372 A  
HETATM    8  C   UNL     1     -11.026  14.908  64.713  1.00  0.00    -0.390 A  
HETATM    9  C   UNL     1     -10.238  13.936  66.783  1.00  0.00    -0.268 A  
HETATM   10  C   UNL     1     -12.511  13.563  66.060  1.00  0.00    -0.456 A  
HETATM   11  C   UNL     1     -10.008  14.710  65.644  1.00  0.00    -0.381 A  
HETATM   12  C   UNL     1     -12.278  14.334  64.921  1.00  0.00    -0.449 A  
ENDBRANCH   6   7
BRANCH   6  13
HETATM   13  O   UNL     1     -11.223  13.034  69.436  1.00  0.00    -0.226 OA 
BRANCH  13  14
HETATM   14  C   UNL     1     -12.143  13.441  70.371  1.00  0.00    -0.333 A  
HETATM   15  C   UNL     1     -12.750  12.557  71.277  1.00  0.00    -0.350 A  
HETATM   16  C   UNL     1     -14.098  14.331  72.196  1.00  0.00    -0.634 A  
HETATM   17  C   UNL     1     -13.729  12.993  72.168  1.00  0.00    -0.547 A  
HETATM   18  C   UNL     1     -13.455  15.240  71.356  1.00  0.00    -0.588 A  
HETATM   19  C   UNL     1     -12.457  14.813  70.459  1.00  0.00    -0.411 A  
HETATM   20  C   UNL     1     -11.773  15.848  69.608  1.00  0.00    -0.322 C  
ENDBRANCH  13  14
ENDBRANCH   6  13
ENDBRANCH   5   6
ENDBRANCH   4   5
ENDBRANCH   2   4
TORSDOF 6
ENDMDL
MODEL       16
REMARK 921   NORMALIZED FREE ENERGY PREDICTED BY IDOCK:   -5.78 KCAL/MOL
REMARK 922        TOTAL FREE ENERGY PREDICTED BY IDOCK:   -8.58 KCAL/MOL
REMARK 923 INTER-LIGAND FREE ENERGY PREDICTED BY IDOCK:   -7.61 KCAL/MOL
REMARK 924 INTRA-LIGAND FREE ENERGY PREDICTED BY IDOCK:   -0.97 KCAL/MOL
REMARK 927      BINDING AFFINITY PREDICTED BY RF-SCORE:    0.00 PKD
ROOT
HETATM    1  C   UNL     1     -12.919   7.086  71.552  1.00  0.00    -0.359 C  
HETATM    2  N   UNL     1     -12.625   8.182  72.464  1.00  0.00    -0.575 NA 
HETATM    3  H   UNL     1     -12.168   7.845  73.311  1.00  0.00     0.000 HD 
ENDROOT
BRANCH   2   4
HETATM    4  C   UNL     1     -11.838   9.239  71.819  1.00  0.00    -0.384 C  
BRANCH   4   5
HETATM    5  C   UNL     1     -12.804  10.265  71.221  1.00  0.00    -0.522 C  
BRANCH   5   6
HETATM    6  C   UNL     1     -12.108  11.326  70.347  1.00  0.00    -0.384 C  
BRANCH   6   7
HETATM    7  C   UNL     1     -12.506  12.714  70.838  1.00  0.00    -0.368 A  
HETATM    8  C   UNL     1     -13.348  15.244  71.727  1.00  0.00    -0.540 A  
HETATM    9  C   UNL     1     -12.161  13.873  70.127  1.00  0.00    -0.418 A  
HETATM   10  C   UNL     1     -13.290  12.846  71.997  1.00  0.00    -0.579 A  
HETATM   11  C   UNL     1     -12.576  15.130  70.572  1.00  0.00    -0.429 A  
HETATM   12  C   UNL     1     -13.706  14.102  72.439  1.00  0.00    -0.645 A  
ENDBRANCH   6   7
BRANCH   6  13
HETATM   13  O   UNL     1     -12.429  11.133  68.953  1.00  0.00    -0.460 OA 
BRANCH  13  14
HETATM   14  C   UNL     1     -11.371  10.855  68.123  1.00  0.00    -0.315 A  
HETATM   15  C   UNL     1     -10.550   9.728  68.287  1.00  0.00    -0.271 A  
HETATM   16  C   UNL     1      -9.155  10.403  66.441  1.00  0.00    -0.177 A  
HETATM   17  C   UNL     1      -9.444   9.513  67.467  1.00  0.00    -0.155 A  
HETATM   18  C   UNL     1     -10.001  11.489  66.213  1.00  0.00    -0.252 A  
HETATM   19  C   UNL     1     -11.127  11.710  67.029  1.00  0.00    -0.359 A  
HETATM   20  C   UNL     1     -12.023  12.876  66.707  1.00  0.00    -0.418 C  
ENDBRANCH  13  14
ENDBRANCH   6  13
ENDBRANCH   5   6
ENDBRANCH   4   5
ENDBRANCH   2   4
TORSDOF 6
ENDMDL
MODEL       17
REMARK 921   NORMALIZED FREE ENERGY PREDICTED BY IDOCK:   -5.71 KCAL/MOL
REMARK 922        TOTAL FREE ENERGY PREDICTED BY IDOCK:   -8.49 KCAL/MOL
REMARK 923 INTER-LIGAND FREE ENERGY PREDICTED BY IDOCK:   -7.70 KCAL/MOL
REMARK 924 INTRA-LIGAND FREE ENERGY PREDICTED BY IDOCK:   -0.79 KCAL/MOL
REMARK 927      BINDING AFFINITY PREDICTED BY RF-SCORE:    0.00 PKD
ROOT
HETATM    1  C   UNL     1     -14.191  15.341  72.126  1.00  0.00    -0.571 C  
HETATM    2  N   UNL     1     -13.769  15.389  70.734  1.00  0.00    -0.845 NA 
HETATM    3  H   UNL     1     -14.298  16.086  70.212  1.00  0.00     0.000 HD 
ENDROOT
BRANCH   2   4
HETATM    4  C   UNL     1     -12.324  15.609  70.604  1.00  0.00    -0.413 C  
BRANCH   4   5
HETATM    5  C   UNL     1     -11.804  14.742  69.454  1.00  0.00    -0.360 C  
BRANCH   5   6
HETATM    6  C   UNL     1     -11.287  15.560  68.254  1.00  0.00    -0.357 C  
BRANCH   6   7
HETATM    7  C   UNL     1     -11.366  14.701  66.997  1.00  0.00    -0.362 A  
HETATM    8  C   UNL     1     -11.582  13.194  64.634  1.00  0.00    -0.384 A  
HETATM    9  C   UNL     1     -11.916  13.411  67.020  1.00  0.00    -0.429 A  
HETATM   10  C   UNL     1     -10.937  15.226  65.765  1.00  0.00    -0.340 A  
HETATM   11  C   UNL     1     -12.018  12.661  65.846  1.00  0.00    -0.497 A  
HETATM   12  C   UNL     1     -11.042  14.476  64.593  1.00  0.00    -0.356 A  
ENDBRANCH   6   7
BRANCH   6  13
HETATM   13  O   UNL     1      -9.948  16.039  68.500  1.00  0.00    -0.213 OA 
BRANCH  13  14
HETATM   14  C   UNL     1      -9.725  17.368  68.236  1.00  0.00    -0.299 A  
HETATM   15  C   UNL     1     -10.746  18.249  67.847  1.00  0.00    -0.335 A  
HETATM   16  C   UNL     1      -9.173  20.061  67.613  1.00  0.00    -0.457 A  
HETATM   17  C   UNL     1     -10.472  19.576  67.522  1.00  0.00    -0.596 A  
HETATM   18  C   UNL     1      -8.156  19.223  68.069  1.00  0.00    -0.341 A  
HETATM   19  C   UNL     1      -8.424  17.882  68.410  1.00  0.00    -0.300 A  
HETATM   20  C   UNL     1      -7.291  17.040  68.934  1.00  0.00    -0.245 C  
ENDBRANCH  13  14
ENDBRANCH   6  13
ENDBRANCH   5   6
ENDBRANCH   4   5
ENDBRANCH   2   4
TORSDOF 6
ENDMDL
MODEL       18
REMARK 921   NORMALIZED FREE ENERGY PREDICTED BY IDOCK:   -5.71 KCAL/MOL
REMARK 922        TOTAL FREE ENERGY PREDICTED BY IDOCK:   -8.48 KCAL/MOL
REMARK 923 INTER-LIGAND FREE ENERGY PREDICTED BY IDOCK:   -7.73 KCAL/MOL
REMARK 924 INTRA-LIGAND FREE ENERGY PREDICTED BY IDOCK:   -0.76 KCAL/MOL
REMARK 927      BINDING AFFINITY PREDICTED BY RF-SCORE:    0.00 PKD
ROOT
HETATM    1  C   UNL     1     -10.748   9.926  67.717  1.00  0.00    -0.277 C  
HETATM    2  N   UNL     1     -11.874  10.781  68.064  1.00  0.00    -0.773 NA 
HETATM    3  H   UNL     1     -12.300  10.491  68.944  1.00  0.00     0.000 HD 
ENDROOT
BRANCH   2   4
HETATM    4  C   UNL     1     -11.498  12.199  68.098  1.00  0.00    -0.317 C  
BRANCH   4   5
HETATM    5  C   UNL     1     -11.862  12.763  69.474  1.00  0.00    -0.379 C  
BRANCH   5   6
HETATM    6  C   UNL     1     -11.493  14.250  69.645  1.00  0.00    -0.282 C  
BRANCH   6   7
HETATM    7  C   UNL     1     -12.174  14.790  70.898  1.00  0.00    -0.384 A  
HETATM    8  C   UNL     1     -13.476  15.867  73.144  1.00  0.00    -0.650 A  
HETATM    9  C   UNL     1     -11.436  15.344  71.955  1.00  0.00    -0.513 A  
HETATM   10  C   UNL     1     -13.577  14.797  70.983  1.00  0.00    -0.364 A  
HETATM   11  C   UNL     1     -12.084  15.874  73.073  1.00  0.00    -0.615 A  
HETATM   12  C   UNL     1     -14.223  15.329  72.099  1.00  0.00    -0.667 A  
ENDBRANCH   6   7
BRANCH   6  13
HETATM   13  O   UNL     1     -11.850  15.004  68.467  1.00  0.00    -0.331 OA 
BRANCH  13  14
HETATM   14  C   UNL     1     -10.922  15.919  68.032  1.00  0.00    -0.336 A  
HETATM   15  C   UNL     1     -10.349  16.881  68.878  1.00  0.00    -0.333 A  
HETATM   16  C   UNL     1      -9.101  17.831  67.047  1.00  0.00    -0.256 A  
HETATM   17  C   UNL     1      -9.461  17.838  68.389  1.00  0.00    -0.297 A  
HETATM   18  C   UNL     1      -9.602  16.838  66.205  1.00  0.00    -0.313 A  
HETATM   19  C   UNL     1     -10.492  15.861  66.691  1.00  0.00    -0.306 A  
HETATM   20  C   UNL     1     -10.966  14.793  65.743  1.00  0.00    -0.334 C  
ENDBRANCH  13  14
ENDBRANCH   6  13
ENDBRANCH   5   6
ENDBRANCH   4   5
ENDBRANCH   2   4
TORSDOF 6
ENDMDL
MODEL       19
REMARK 921   NORMALIZED FREE ENERGY PREDICTED BY IDOCK:   -5.69 KCAL/MOL
REMARK 922        TOTAL FREE ENERGY PREDICTED BY IDOCK:   -8.47 KCAL/MOL
REMARK 923 INTER-LIGAND FREE ENERGY PREDICTED BY IDOCK:   -7.58 KCAL/MOL
REMARK 924 INTRA-LIGAND FREE ENERGY PREDICTED BY IDOCK:   -0.88 KCAL/MOL
REMARK 927      BINDING AFFINITY PREDICTED BY RF-SCORE:    0.00 PKD
ROOT
HETATM    1  C   UNL     1     -12.091  13.215  63.608  1.00  0.00    -0.513 C  
HETATM    2  N   UNL     1     -12.261  14.484  64.301  1.00  0.00    -0.681 NA 
HETATM    3  H   UNL     1     -13.131  14.940  64.027  1.00  0.00     0.000 HD 
ENDROOT
BRANCH   2   4
HETATM    4  C   UNL     1     -12.176  14.332  65.758  1.00  0.00    -0.403 C  
BRANCH   4   5
HETATM    5  C   UNL     1     -10.959  15.116  66.255  1.00  0.00    -0.335 C  
BRANCH   5   6
HETATM    6  C   UNL     1     -11.204  15.848  67.589  1.00  0.00    -0.219 C  
BRANCH   6   7
HETATM    7  C   UNL     1     -10.644  17.263  67.489  1.00  0.00    -0.329 A  
HETATM    8  C   UNL     1      -9.701  19.908  67.367  1.00  0.00    -0.519 A  
HETATM    9  C   UNL     1     -10.556  17.935  66.260  1.00  0.00    -0.241 A  
HETATM   10  C   UNL     1     -10.261  17.947  68.657  1.00  0.00    -0.387 A  
HETATM   11  C   UNL     1     -10.082  19.247  66.200  1.00  0.00    -0.517 A  
HETATM   12  C   UNL     1      -9.791  19.259  68.595  1.00  0.00    -0.500 A  
ENDBRANCH   6   7
BRANCH   6  13
HETATM   13  O   UNL     1     -10.626  15.115  68.689  1.00  0.00    -0.223 OA 
BRANCH  13  14
HETATM   14  C   UNL     1     -11.500  14.711  69.670  1.00  0.00    -0.289 A  
HETATM   15  C   UNL     1     -12.145  15.612  70.531  1.00  0.00    -0.430 A  
HETATM   16  C   UNL     1     -13.201  13.804  71.726  1.00  0.00    -0.467 A  
HETATM   17  C   UNL     1     -12.974  15.164  71.559  1.00  0.00    -0.458 A  
HETATM   18  C   UNL     1     -12.628  12.896  70.835  1.00  0.00    -0.355 A  
HETATM   19  C   UNL     1     -11.798  13.339  69.787  1.00  0.00    -0.394 A  
HETATM   20  C   UNL     1     -11.243  12.313  68.836  1.00  0.00    -0.323 C  
ENDBRANCH  13  14
ENDBRANCH   6  13
ENDBRANCH   5   6
ENDBRANCH   4   5
ENDBRANCH   2   4
TORSDOF 6
ENDMDL
MODEL       20
REMARK 921   NORMALIZED FREE ENERGY PREDICTED BY IDOCK:   -5.69 KCAL/MOL
REMARK 922        TOTAL FREE ENERGY PREDICTED BY IDOCK:   -8.47 KCAL/MOL
REMARK 923 INTER-LIGAND FREE ENERGY PREDICTED BY IDOCK:   -7.56 KCAL/MOL
REMARK 924 INTRA-LIGAND FREE ENERGY PREDICTED BY IDOCK:   -0.91 KCAL/MOL
REMARK 927      BINDING AFFINITY PREDICTED BY RF-SCORE:    0.00 PKD
ROOT
HETATM    1  C   UNL     1     -12.289  15.521  71.269  1.00  0.00    -0.408 C  
HETATM    2  N   UNL     1     -12.540  15.125  69.891  1.00  0.00    -0.589 NA 
HETATM    3  H   UNL     1     -12.590  15.938  69.277  1.00  0.00     0.000 HD 
ENDROOT
BRANCH   2   4
HETATM    4  C   UNL     1     -11.551  14.154  69.408  1.00  0.00    -0.304 C  
BRANCH   4   5
HETATM    5  C   UNL     1     -12.000  13.649  68.035  1.00  0.00    -0.385 C  
BRANCH   5   6
HETATM    6  C   UNL     1     -11.408  12.277  67.661  1.00  0.00    -0.311 C  
BRANCH   6   7
HETATM    7  C   UNL     1     -11.456  12.109  66.146  1.00  0.00    -0.429 A  
HETATM    8  C   UNL     1     -11.441  11.846  63.348  1.00  0.00    -0.470 A  
HETATM    9  C   UNL     1     -12.381  12.809  65.358  1.00  0.00    -0.528 A  
HETATM   10  C   UNL     1     -10.516  11.283  65.505  1.00  0.00    -0.323 A  
HETATM   11  C   UNL     1     -12.375  12.674  63.968  1.00  0.00    -0.528 A  
HETATM   12  C   UNL     1     -10.511  11.151  64.116  1.00  0.00    -0.442 A  
ENDBRANCH   6   7
BRANCH   6  13
HETATM   13  O   UNL     1     -12.105  11.215  68.346  1.00  0.00    -0.605 OA 
BRANCH  13  14
HETATM   14  C   UNL     1     -11.342  10.423  69.169  1.00  0.00    -0.226 A  
HETATM   15  C   UNL     1     -10.235   9.693  68.710  1.00  0.00    -0.213 A  
HETATM   16  C   UNL     1      -9.883   8.739  70.895  1.00  0.00    -0.278 A  
HETATM   17  C   UNL     1      -9.522   8.847  69.558  1.00  0.00    -0.159 A  
HETATM   18  C   UNL     1     -10.934   9.512  71.389  1.00  0.00    -0.415 A  
HETATM   19  C   UNL     1     -11.653  10.378  70.543  1.00  0.00    -0.433 A  
HETATM   20  C   UNL     1     -12.750  11.215  71.145  1.00  0.00    -0.510 C  
ENDBRANCH  13  14
ENDBRANCH   6  13
ENDBRANCH   5   6
ENDBRANCH   4   5
ENDBRANCH   2   4
TORSDOF 6
ENDMDL
MODEL       21
REMARK 921   NORMALIZED FREE ENERGY PREDICTED BY IDOCK:   -5.69 KCAL/MOL
REMARK 922        TOTAL FREE ENERGY PREDICTED BY IDOCK:   -8.46 KCAL/MOL
REMARK 923 INTER-LIGAND FREE ENERGY PREDICTED BY IDOCK:   -7.63 KCAL/MOL
REMARK 924 INTRA-LIGAND FREE ENERGY PREDICTED BY IDOCK:   -0.83 KCAL/MOL
REMARK 927      BINDING AFFINITY PREDICTED BY RF-SCORE:    0.00 PKD
ROOT
HETATM    1  C   UNL     1     -11.105  12.714  63.949  1.00  0.00    -0.427 C  
HETATM    2  N   UNL     1     -10.163  13.720  64.416  1.00  0.00    -0.729 NA 
HETATM    3  H   UNL     1      -9.502  13.976  63.683  1.00  0.00     0.000 HD 
ENDROOT
BRANCH   2   4
HETATM    4  C   UNL     1     -10.843  14.904  64.955  1.00  0.00    -0.413 C  
BRANCH   4   5
HETATM    5  C   UNL     1      -9.844  15.690  65.808  1.00  0.00    -0.386 C  
BRANCH   5   6
HETATM    6  C   UNL     1     -10.438  16.199  67.136  1.00  0.00    -0.305 C  
BRANCH   6   7
HETATM    7  C   UNL     1     -10.249  17.710  67.219  1.00  0.00    -0.343 A  
HETATM    8  C   UNL     1      -9.995  20.500  67.434  1.00  0.00    -0.525 A  
HETATM    9  C   UNL     1     -10.335  18.525  66.080  1.00  0.00    -0.457 A  
HETATM   10  C   UNL     1     -10.045  18.320  68.469  1.00  0.00    -0.419 A  
HETATM   11  C   UNL     1     -10.203  19.911  66.188  1.00  0.00    -0.611 A  
HETATM   12  C   UNL     1      -9.916  19.705  68.574  1.00  0.00    -0.542 A  
ENDBRANCH   6   7
BRANCH   6  13
HETATM   13  O   UNL     1      -9.840  15.516  68.258  1.00  0.00    -0.210 OA 
BRANCH  13  14
HETATM   14  C   UNL     1     -10.553  14.460  68.772  1.00  0.00    -0.254 A  
HETATM   15  C   UNL     1     -10.449  13.155  68.268  1.00  0.00    -0.258 A  
HETATM   16  C   UNL     1     -12.123  12.363  69.810  1.00  0.00    -0.292 A  
HETATM   17  C   UNL     1     -11.236  12.120  68.769  1.00  0.00    -0.314 A  
HETATM   18  C   UNL     1     -12.188  13.636  70.376  1.00  0.00    -0.434 A  
HETATM   19  C   UNL     1     -11.389  14.686  69.884  1.00  0.00    -0.302 A  
HETATM   20  C   UNL     1     -11.477  16.027  70.562  1.00  0.00    -0.409 C  
ENDBRANCH  13  14
ENDBRANCH   6  13
ENDBRANCH   5   6
ENDBRANCH   4   5
ENDBRANCH   2   4
TORSDOF 6
ENDMDL
MODEL       22
REMARK 921   NORMALIZED FREE ENERGY PREDICTED BY IDOCK:   -5.68 KCAL/MOL
REMARK 922        TOTAL FREE ENERGY PREDICTED BY IDOCK:   -8.45 KCAL/MOL
REMARK 923 INTER-LIGAND FREE ENERGY PREDICTED BY IDOCK:   -7.81 KCAL/MOL
REMARK 924 INTRA-LIGAND FREE ENERGY PREDICTED BY IDOCK:   -0.64 KCAL/MOL
REMARK 927      BINDING AFFINITY PREDICTED BY RF-SCORE:    0.00 PKD
ROOT
HETATM    1  C   UNL     1     -10.626   9.404  67.664  1.00  0.00    -0.271 C  
HETATM    2  N   UNL     1     -11.631  10.311  68.199  1.00  0.00    -0.696 NA 
HETATM    3  H   UNL     1     -12.359   9.801  68.699  1.00  0.00     0.000 HD 
ENDROOT
BRANCH   2   4
HETATM    4  C   UNL     1     -11.038  11.354  69.043  1.00  0.00    -0.243 C  
BRANCH   4   5
HETATM    5  C   UNL     1     -12.152  12.300  69.498  1.00  0.00    -0.260 C  
BRANCH   5   6
HETATM    6  C   UNL     1     -11.753  13.787  69.450  1.00  0.00    -0.325 C  
BRANCH   6   7
HETATM    7  C   UNL     1     -12.119  14.444  70.777  1.00  0.00    -0.408 A  
HETATM    8  C   UNL     1     -12.683  15.650  73.252  1.00  0.00    -0.626 A  
HETATM    9  C   UNL     1     -12.934  13.797  71.718  1.00  0.00    -0.441 A  
HETATM   10  C   UNL     1     -11.582  15.702  71.105  1.00  0.00    -0.462 A  
HETATM   11  C   UNL     1     -13.218  14.400  72.945  1.00  0.00    -0.613 A  
HETATM   12  C   UNL     1     -11.865  16.301  72.333  1.00  0.00    -0.606 A  
ENDBRANCH   6   7
BRANCH   6  13
HETATM   13  O   UNL     1     -12.377  14.449  68.329  1.00  0.00    -0.201 OA 
BRANCH  13  14
HETATM   14  C   UNL     1     -11.796  14.234  67.102  1.00  0.00    -0.425 A  
HETATM   15  C   UNL     1     -12.222  13.224  66.226  1.00  0.00    -0.440 A  
HETATM   16  C   UNL     1     -10.492  13.787  64.645  1.00  0.00    -0.433 A  
HETATM   17  C   UNL     1     -11.568  12.991  65.018  1.00  0.00    -0.359 A  
HETATM   18  C   UNL     1     -10.100  14.843  65.466  1.00  0.00    -0.400 A  
HETATM   19  C   UNL     1     -10.761  15.094  66.684  1.00  0.00    -0.310 A  
HETATM   20  C   UNL     1     -10.316  16.273  67.507  1.00  0.00    -0.288 C  
ENDBRANCH  13  14
ENDBRANCH   6  13
ENDBRANCH   5   6
ENDBRANCH   4   5
ENDBRANCH   2   4
TORSDOF 6
ENDMDL
MODEL       23
REMARK 921   NORMALIZED FREE ENERGY PREDICTED BY IDOCK:   -5.67 KCAL/MOL
REMARK 922        TOTAL FREE ENERGY PREDICTED BY IDOCK:   -8.44 KCAL/MOL
REMARK 923 INTER-LIGAND FREE ENERGY PREDICTED BY IDOCK:   -7.52 KCAL/MOL
REMARK 924 INTRA-LIGAND FREE ENERGY PREDICTED BY IDOCK:   -0.92 KCAL/MOL
REMARK 927      BINDING AFFINITY PREDICTED BY RF-SCORE:    0.00 PKD
ROOT
HETATM    1  C   UNL     1     -12.042  12.510  63.362  1.00  0.00    -0.529 C  
HETATM    2  N   UNL     1     -12.386  13.923  63.322  1.00  0.00    -1.148 NA 
HETATM    3  H   UNL     1     -13.275  14.074  62.846  1.00  0.00     0.000 HD 
ENDROOT
BRANCH   2   4
HETATM    4  C   UNL     1     -12.390  14.528  64.660  1.00  0.00    -0.403 C  
BRANCH   4   5
HETATM    5  C   UNL     1     -12.244  13.410  65.696  1.00  0.00    -0.510 C  
BRANCH   5   6
HETATM    6  C   UNL     1     -11.267  13.755  66.837  1.00  0.00    -0.313 C  
BRANCH   6   7
HETATM    7  C   UNL     1     -11.538  12.832  68.020  1.00  0.00    -0.388 A  
HETATM    8  C   UNL     1     -11.958  11.187  70.260  1.00  0.00    -0.460 A  
HETATM    9  C   UNL     1     -11.265  11.458  67.958  1.00  0.00    -0.346 A  
HETATM   10  C   UNL     1     -12.015  13.369  69.229  1.00  0.00    -0.367 A  
HETATM   11  C   UNL     1     -11.479  10.640  69.070  1.00  0.00    -0.342 A  
HETATM   12  C   UNL     1     -12.226  12.551  70.339  1.00  0.00    -0.368 A  
ENDBRANCH   6   7
BRANCH   6  13
HETATM   13  O   UNL     1     -11.376  15.148  67.200  1.00  0.00    -0.338 OA 
BRANCH  13  14
HETATM   14  C   UNL     1     -10.199  15.854  67.245  1.00  0.00    -0.278 A  
HETATM   15  C   UNL     1      -9.323  15.943  66.152  1.00  0.00    -0.385 A  
HETATM   16  C   UNL     1      -7.752  17.237  67.442  1.00  0.00    -0.194 A  
HETATM   17  C   UNL     1      -8.105  16.613  66.252  1.00  0.00    -0.361 A  
HETATM   18  C   UNL     1      -8.640  17.224  68.516  1.00  0.00    -0.270 A  
HETATM   19  C   UNL     1      -9.878  16.560  68.422  1.00  0.00    -0.237 A  
HETATM   20  C   UNL     1     -10.809  16.616  69.603  1.00  0.00    -0.282 C  
ENDBRANCH  13  14
ENDBRANCH   6  13
ENDBRANCH   5   6
ENDBRANCH   4   5
ENDBRANCH   2   4
TORSDOF 6
ENDMDL
MODEL       24
REMARK 921   NORMALIZED FREE ENERGY PREDICTED BY IDOCK:   -5.66 KCAL/MOL
REMARK 922        TOTAL FREE ENERGY PREDICTED BY IDOCK:   -8.43 KCAL/MOL
REMARK 923 INTER-LIGAND FREE ENERGY PREDICTED BY IDOCK:   -7.47 KCAL/MOL
REMARK 924 INTRA-LIGAND FREE ENERGY PREDICTED BY IDOCK:   -0.95 KCAL/MOL
REMARK 927      BINDING AFFINITY PREDICTED BY RF-SCORE:    0.00 PKD
ROOT
HETATM    1  C   UNL     1     -10.772   7.204  67.164  1.00  0.00    -0.352 C  
HETATM    2  N   UNL     1     -10.985   8.512  67.766  1.00  0.00    -0.486 NA 
HETATM    3  H   UNL     1     -11.280   8.427  68.739  1.00  0.00     0.000 HD 
ENDROOT
BRANCH   2   4
HETATM    4  C   UNL     1      -9.806   9.376  67.641  1.00  0.00    -0.174 C  
BRANCH   4   5
HETATM    5  C   UNL     1      -9.889  10.466  68.712  1.00  0.00    -0.190 C  
BRANCH   5   6
HETATM    6  C   UNL     1     -10.857  11.609  68.350  1.00  0.00    -0.219 C  
BRANCH   6   7
HETATM    7  C   UNL     1     -11.706  11.947  69.571  1.00  0.00    -0.410 A  
HETATM    8  C   UNL     1     -13.180  12.619  71.868  1.00  0.00    -0.504 A  
HETATM    9  C   UNL     1     -12.234  10.946  70.400  1.00  0.00    -0.453 A  
HETATM   10  C   UNL     1     -11.921  13.292  69.922  1.00  0.00    -0.400 A  
HETATM   11  C   UNL     1     -12.970  11.281  71.538  1.00  0.00    -0.520 A  
HETATM   12  C   UNL     1     -12.655  13.625  71.061  1.00  0.00    -0.441 A  
ENDBRANCH   6   7
BRANCH   6  13
HETATM   13  O   UNL     1     -11.667  11.253  67.210  1.00  0.00    -0.566 OA 
BRANCH  13  14
HETATM   14  C   UNL     1     -11.756  12.196  66.215  1.00  0.00    -0.320 A  
HETATM   15  C   UNL     1     -12.397  13.431  66.393  1.00  0.00    -0.381 A  
HETATM   16  C   UNL     1     -11.989  14.039  64.096  1.00  0.00    -0.439 A  
HETATM   17  C   UNL     1     -12.528  14.337  65.342  1.00  0.00    -0.434 A  
HETATM   18  C   UNL     1     -11.284  12.849  63.918  1.00  0.00    -0.471 A  
HETATM   19  C   UNL     1     -11.137  11.932  64.976  1.00  0.00    -0.360 A  
HETATM   20  C   UNL     1     -10.330  10.685  64.732  1.00  0.00    -0.353 C  
ENDBRANCH  13  14
ENDBRANCH   6  13
ENDBRANCH   5   6
ENDBRANCH   4   5
ENDBRANCH   2   4
TORSDOF 6
ENDMDL
MODEL       25
REMARK 921   NORMALIZED FREE ENERGY PREDICTED BY IDOCK:   -5.65 KCAL/MOL
REMARK 922        TOTAL FREE ENERGY PREDICTED BY IDOCK:   -8.41 KCAL/MOL
REMARK 923 INTER-LIGAND FREE ENERGY PREDICTED BY IDOCK:   -7.32 KCAL/MOL
REMARK 924 INTRA-LIGAND FREE ENERGY PREDICTED BY IDOCK:   -1.09 KCAL/MOL
REMARK 927      BINDING AFFINITY PREDICTED BY RF-SCORE:    0.00 PKD
ROOT
HETATM    1  C   UNL     1     -14.088  15.342  72.268  1.00  0.00    -0.564 C  
HETATM    2  N   UNL     1     -13.791  15.401  70.845  1.00  0.00    -0.844 NA 
HETATM    3  H   UNL     1     -13.657  16.363  70.535  1.00  0.00     0.000 HD 
ENDROOT
BRANCH   2   4
HETATM    4  C   UNL     1     -12.642  14.562  70.486  1.00  0.00    -0.351 C  
BRANCH   4   5
HETATM    5  C   UNL     1     -11.400  15.454  70.400  1.00  0.00    -0.350 C  
BRANCH   5   6
HETATM    6  C   UNL     1     -10.716  15.423  69.020  1.00  0.00    -0.242 C  
BRANCH   6   7
HETATM    7  C   UNL     1      -9.823  16.650  68.879  1.00  0.00    -0.261 A  
HETATM    8  C   UNL     1      -8.222  18.932  68.518  1.00  0.00    -0.388 A  
HETATM    9  C   UNL     1      -8.426  16.540  68.810  1.00  0.00    -0.248 A  
HETATM   10  C   UNL     1     -10.403  17.925  68.752  1.00  0.00    -0.311 A  
HETATM   11  C   UNL     1      -7.631  17.675  68.636  1.00  0.00    -0.276 A  
HETATM   12  C   UNL     1      -9.607  19.057  68.575  1.00  0.00    -0.442 A  
ENDBRANCH   6   7
BRANCH   6  13
HETATM   13  O   UNL     1     -11.697  15.344  67.964  1.00  0.00    -0.336 OA 
BRANCH  13  14
HETATM   14  C   UNL     1     -11.480  14.381  67.008  1.00  0.00    -0.361 A  
HETATM   15  C   UNL     1     -11.819  13.032  67.196  1.00  0.00    -0.431 A  
HETATM   16  C   UNL     1     -10.910  12.444  65.042  1.00  0.00    -0.331 A  
HETATM   17  C   UNL     1     -11.523  12.071  66.231  1.00  0.00    -0.408 A  
HETATM   18  C   UNL     1     -10.632  13.790  64.805  1.00  0.00    -0.444 A  
HETATM   19  C   UNL     1     -10.936  14.771  65.768  1.00  0.00    -0.334 A  
HETATM   20  C   UNL     1     -10.648  16.211  65.435  1.00  0.00    -0.399 C  
ENDBRANCH  13  14
ENDBRANCH   6  13
ENDBRANCH   5   6
ENDBRANCH   4   5
ENDBRANCH   2   4
TORSDOF 6
ENDMDL
MODEL       26
REMARK 921   NORMALIZED FREE ENERGY PREDICTED BY IDOCK:   -5.64 KCAL/MOL
REMARK 922        TOTAL FREE ENERGY PREDICTED BY IDOCK:   -8.39 KCAL/MOL
REMARK 923 INTER-LIGAND FREE ENERGY PREDICTED BY IDOCK:   -7.19 KCAL/MOL
REMARK 924 INTRA-LIGAND FREE ENERGY PREDICTED BY IDOCK:   -1.20 KCAL/MOL
REMARK 927      BINDING AFFINITY PREDICTED BY RF-SCORE:    0.00 PKD
ROOT
HETATM    1  C   UNL     1      -8.120   9.887  68.412  1.00  0.00    -0.101 C  
HETATM    2  N   UNL     1      -8.876  10.880  69.160  1.00  0.00    -0.351 NA 
HETATM    3  H   UNL     1      -8.958  11.752  68.637  1.00  0.00     0.000 HD 
ENDROOT
BRANCH   2   4
HETATM    4  C   UNL     1     -10.194  10.379  69.567  1.00  0.00    -0.231 C  
BRANCH   4   5
HETATM    5  C   UNL     1     -11.147  10.503  68.375  1.00  0.00    -0.335 C  
BRANCH   5   6
HETATM    6  C   UNL     1     -11.816  11.887  68.266  1.00  0.00    -0.277 C  
BRANCH   6   7
HETATM    7  C   UNL     1     -11.710  12.378  66.826  1.00  0.00    -0.430 A  
HETATM    8  C   UNL     1     -11.405  13.297  64.187  1.00  0.00    -0.424 A  
HETATM    9  C   UNL     1     -12.328  13.566  66.406  1.00  0.00    -0.413 A  
HETATM   10  C   UNL     1     -10.927  11.665  65.901  1.00  0.00    -0.334 A  
HETATM   11  C   UNL     1     -12.180  14.018  65.093  1.00  0.00    -0.446 A  
HETATM   12  C   UNL     1     -10.778  12.121  64.591  1.00  0.00    -0.346 A  
ENDBRANCH   6   7
BRANCH   6  13
HETATM   13  O   UNL     1     -11.224  12.816  69.199  1.00  0.00    -0.256 OA 
BRANCH  13  14
HETATM   14  C   UNL     1     -12.065  13.324  70.160  1.00  0.00    -0.333 A  
HETATM   15  C   UNL     1     -12.635  12.530  71.167  1.00  0.00    -0.349 A  
HETATM   16  C   UNL     1     -13.860  14.415  72.038  1.00  0.00    -0.567 A  
HETATM   17  C   UNL     1     -13.536  13.065  72.087  1.00  0.00    -0.638 A  
HETATM   18  C   UNL     1     -13.249  15.236  71.091  1.00  0.00    -0.567 A  
HETATM   19  C   UNL     1     -12.329  14.708  70.164  1.00  0.00    -0.390 A  
HETATM   20  C   UNL     1     -11.672  15.653  69.194  1.00  0.00    -0.402 C  
ENDBRANCH  13  14
ENDBRANCH   6  13
ENDBRANCH   5   6
ENDBRANCH   4   5
ENDBRANCH   2   4
TORSDOF 6
ENDMDL
MODEL       27
REMARK 921   NORMALIZED FREE ENERGY PREDICTED BY IDOCK:   -5.61 KCAL/MOL
REMARK 922        TOTAL FREE ENERGY PREDICTED BY IDOCK:   -8.35 KCAL/MOL
REMARK 923 INTER-LIGAND FREE ENERGY PREDICTED BY IDOCK:   -7.47 KCAL/MOL
REMARK 924 INTRA-LIGAND FREE ENERGY PREDICTED BY IDOCK:   -0.88 KCAL/MOL
REMARK 927      BINDING AFFINITY PREDICTED BY RF-SCORE:    0.00 PKD
ROOT
HETATM    1  C   UNL     1     -12.319  12.382  63.761  1.00  0.00    -0.528 C  
HETATM    2  N   UNL     1     -12.416  13.766  63.320  1.00  0.00    -1.092 NA 
HETATM    3  H   UNL     1     -13.326  13.957  62.902  1.00  0.00     0.000 HD 
ENDROOT
BRANCH   2   4
HETATM    4  C   UNL     1     -12.118  14.711  64.402  1.00  0.00    -0.462 C  
BRANCH   4   5
HETATM    5  C   UNL     1     -12.335  13.999  65.740  1.00  0.00    -0.506 C  
BRANCH   5   6
HETATM    6  C   UNL     1     -11.231  14.289  66.775  1.00  0.00    -0.332 C  
BRANCH   6   7
HETATM    7  C   UNL     1     -11.553  13.547  68.068  1.00  0.00    -0.372 A  
HETATM    8  C   UNL     1     -12.242  12.140  70.401  1.00  0.00    -0.378 A  
HETATM    9  C   UNL     1     -11.849  14.233  69.255  1.00  0.00    -0.372 A  
HETATM   10  C   UNL     1     -11.621  12.143  68.069  1.00  0.00    -0.411 A  
HETATM   11  C   UNL     1     -12.186  13.532  70.415  1.00  0.00    -0.426 A  
HETATM   12  C   UNL     1     -11.960  11.445  69.228  1.00  0.00    -0.400 A  
ENDBRANCH   6   7
BRANCH   6  13
HETATM   13  O   UNL     1     -11.088  15.709  66.987  1.00  0.00    -0.297 OA 
BRANCH  13  14
HETATM   14  C   UNL     1      -9.803  16.195  66.976  1.00  0.00    -0.245 A  
HETATM   15  C   UNL     1      -8.682  15.377  66.769  1.00  0.00    -0.304 A  
HETATM   16  C   UNL     1      -7.190  17.246  67.068  1.00  0.00    -0.218 A  
HETATM   17  C   UNL     1      -7.388  15.892  66.831  1.00  0.00    -0.207 A  
HETATM   18  C   UNL     1      -8.291  18.090  67.203  1.00  0.00    -0.241 A  
HETATM   19  C   UNL     1      -9.603  17.582  67.132  1.00  0.00    -0.262 A  
HETATM   20  C   UNL     1     -10.750  18.550  67.245  1.00  0.00    -0.417 C  
ENDBRANCH  13  14
ENDBRANCH   6  13
ENDBRANCH   5   6
ENDBRANCH   4   5
ENDBRANCH   2   4
TORSDOF 6
ENDMDL
MODEL       28
REMARK 921   NORMALIZED FREE ENERGY PREDICTED BY IDOCK:   -5.60 KCAL/MOL
REMARK 922        TOTAL FREE ENERGY PREDICTED BY IDOCK:   -8.34 KCAL/MOL
REMARK 923 INTER-LIGAND FREE ENERGY PREDICTED BY IDOCK:   -7.61 KCAL/MOL
REMARK 924 INTRA-LIGAND FREE ENERGY PREDICTED BY IDOCK:   -0.72 KCAL/MOL
REMARK 927      BINDING AFFINITY PREDICTED BY RF-SCORE:    0.00 PKD
ROOT
HETATM    1  C   UNL     1     -12.022  15.975  72.578  1.00  0.00    -0.545 C  
HETATM    2  N   UNL     1     -11.278  15.115  71.669  1.00  0.00    -0.562 NA 
HETATM    3  H   UNL     1     -11.465  14.130  71.856  1.00  0.00     0.000 HD 
ENDROOT
BRANCH   2   4
HETATM    4  C   UNL     1     -11.535  15.448  70.263  1.00  0.00    -0.316 C  
BRANCH   4   5
HETATM    5  C   UNL     1     -10.200  15.787  69.595  1.00  0.00    -0.289 C  
BRANCH   5   6
HETATM    6  C   UNL     1     -10.292  15.898  68.061  1.00  0.00    -0.262 C  
BRANCH   6   7
HETATM    7  C   UNL     1     -10.234  17.369  67.664  1.00  0.00    -0.342 A  
HETATM    8  C   UNL     1     -10.221  20.099  66.996  1.00  0.00    -0.558 A  
HETATM    9  C   UNL     1     -10.438  17.782  66.338  1.00  0.00    -0.297 A  
HETATM   10  C   UNL     1     -10.036  18.351  68.650  1.00  0.00    -0.415 A  
HETATM   11  C   UNL     1     -10.425  19.138  66.007  1.00  0.00    -0.546 A  
HETATM   12  C   UNL     1     -10.027  19.706  68.317  1.00  0.00    -0.543 A  
ENDBRANCH   6   7
BRANCH   6  13
HETATM   13  O   UNL     1     -11.486  15.251  67.572  1.00  0.00    -0.333 OA 
BRANCH  13  14
HETATM   14  C   UNL     1     -11.296  14.244  66.656  1.00  0.00    -0.349 A  
HETATM   15  C   UNL     1     -10.883  14.484  65.336  1.00  0.00    -0.362 A  
HETATM   16  C   UNL     1     -11.025  12.138  64.804  1.00  0.00    -0.356 A  
HETATM   17  C   UNL     1     -10.764  13.445  64.415  1.00  0.00    -0.423 A  
HETATM   18  C   UNL     1     -11.364  11.869  66.130  1.00  0.00    -0.383 A  
HETATM   19  C   UNL     1     -11.476  12.910  67.072  1.00  0.00    -0.390 A  
HETATM   20  C   UNL     1     -11.806  12.551  68.496  1.00  0.00    -0.341 C  
ENDBRANCH  13  14
ENDBRANCH   6  13
ENDBRANCH   5   6
ENDBRANCH   4   5
ENDBRANCH   2   4
TORSDOF 6
ENDMDL
MODEL       29
REMARK 921   NORMALIZED FREE ENERGY PREDICTED BY IDOCK:   -5.55 KCAL/MOL
REMARK 922        TOTAL FREE ENERGY PREDICTED BY IDOCK:   -8.27 KCAL/MOL
REMARK 923 INTER-LIGAND FREE ENERGY PREDICTED BY IDOCK:   -7.10 KCAL/MOL
REMARK 924 INTRA-LIGAND FREE ENERGY PREDICTED BY IDOCK:   -1.17 KCAL/MOL
REMARK 927      BINDING AFFINITY PREDICTED BY RF-SCORE:    0.00 PKD
ROOT
HETATM    1  C   UNL     1      -9.018  16.202  69.048  1.00  0.00    -0.247 C  
HETATM    2  N   UNL     1      -9.681  15.138  69.787  1.00  0.00    -0.454 NA 
HETATM    3  H   UNL     1      -9.334  15.083  70.745  1.00  0.00     0.000 HD 
ENDROOT
BRANCH   2   4
HETATM    4  C   UNL     1     -11.142  15.273  69.758  1.00  0.00    -0.282 C  
BRANCH   4   5
HETATM    5  C   UNL     1     -11.757  14.008  70.362  1.00  0.00    -0.292 C  
BRANCH   5   6
HETATM    6  C   UNL     1     -11.909  12.857  69.349  1.00  0.00    -0.312 C  
BRANCH   6   7
HETATM    7  C   UNL     1     -11.933  11.531  70.104  1.00  0.00    -0.452 A  
HETATM    8  C   UNL     1     -11.956   9.145  71.589  1.00  0.00    -0.437 A  
HETATM    9  C   UNL     1     -10.964  10.541  69.881  1.00  0.00    -0.359 A  
HETATM   10  C   UNL     1     -12.906  11.308  71.093  1.00  0.00    -0.452 A  
HETATM   11  C   UNL     1     -10.980   9.354  70.616  1.00  0.00    -0.352 A  
HETATM   12  C   UNL     1     -12.918  10.122  71.828  1.00  0.00    -0.567 A  
ENDBRANCH   6   7
BRANCH   6  13
HETATM   13  O   UNL     1     -10.857  12.899  68.363  1.00  0.00    -0.236 OA 
BRANCH  13  14
HETATM   14  C   UNL     1     -11.260  12.920  67.050  1.00  0.00    -0.288 A  
HETATM   15  C   UNL     1     -12.157  13.874  66.544  1.00  0.00    -0.484 A  
HETATM   16  C   UNL     1     -12.122  12.838  64.368  1.00  0.00    -0.484 A  
HETATM   17  C   UNL     1     -12.596  13.825  65.223  1.00  0.00    -0.510 A  
HETATM   18  C   UNL     1     -11.174  11.925  64.830  1.00  0.00    -0.356 A  
HETATM   19  C   UNL     1     -10.715  11.972  66.160  1.00  0.00    -0.312 A  
HETATM   20  C   UNL     1      -9.662  10.985  66.586  1.00  0.00    -0.226 C  
ENDBRANCH  13  14
ENDBRANCH   6  13
ENDBRANCH   5   6
ENDBRANCH   4   5
ENDBRANCH   2   4
TORSDOF 6
ENDMDL
MODEL       30
REMARK 921   NORMALIZED FREE ENERGY PREDICTED BY IDOCK:   -5.51 KCAL/MOL
REMARK 922        TOTAL FREE ENERGY PREDICTED BY IDOCK:   -8.22 KCAL/MOL
REMARK 923 INTER-LIGAND FREE ENERGY PREDICTED BY IDOCK:   -7.34 KCAL/MOL
REMARK 924 INTRA-LIGAND FREE ENERGY PREDICTED BY IDOCK:   -0.88 KCAL/MOL
REMARK 927      BINDING AFFINITY PREDICTED BY RF-SCORE:    0.00 PKD
ROOT
HETATM    1  C   UNL     1     -11.361  12.752  64.734  1.00  0.00    -0.309 C  
HETATM    2  N   UNL     1     -11.694  12.331  66.087  1.00  0.00    -0.501 NA 
HETATM    3  H   UNL     1     -10.944  11.775  66.496  1.00  0.00     0.000 HD 
ENDROOT
BRANCH   2   4
HETATM    4  C   UNL     1     -12.044  13.467  66.948  1.00  0.00    -0.368 C  
BRANCH   4   5
HETATM    5  C   UNL     1     -11.123  13.450  68.170  1.00  0.00    -0.284 C  
BRANCH   5   6
HETATM    6  C   UNL     1     -11.180  14.747  69.000  1.00  0.00    -0.270 C  
BRANCH   6   7
HETATM    7  C   UNL     1     -12.053  14.513  70.229  1.00  0.00    -0.386 A  
HETATM    8  C   UNL     1     -13.731  14.019  72.429  1.00  0.00    -0.669 A  
HETATM    9  C   UNL     1     -12.760  15.561  70.839  1.00  0.00    -0.525 A  
HETATM   10  C   UNL     1     -12.212  13.211  70.735  1.00  0.00    -0.375 A  
HETATM   11  C   UNL     1     -13.589  15.314  71.936  1.00  0.00    -0.575 A  
HETATM   12  C   UNL     1     -13.043  12.967  71.829  1.00  0.00    -0.469 A  
ENDBRANCH   6   7
BRANCH   6  13
HETATM   13  O   UNL     1     -11.658  15.847  68.198  1.00  0.00    -0.329 OA 
BRANCH  13  14
HETATM   14  C   UNL     1     -10.779  16.886  68.013  1.00  0.00    -0.364 A  
HETATM   15  C   UNL     1     -10.313  17.686  69.069  1.00  0.00    -0.272 A  
HETATM   16  C   UNL     1      -9.054  19.065  67.545  1.00  0.00    -0.322 A  
HETATM   17  C   UNL     1      -9.473  18.774  68.837  1.00  0.00    -0.331 A  
HETATM   18  C   UNL     1      -9.445  18.240  66.491  1.00  0.00    -0.312 A  
HETATM   19  C   UNL     1     -10.285  17.132  66.716  1.00  0.00    -0.311 A  
HETATM   20  C   UNL     1     -10.639  16.256  65.544  1.00  0.00    -0.369 C  
ENDBRANCH  13  14
ENDBRANCH   6  13
ENDBRANCH   5   6
ENDBRANCH   4   5
ENDBRANCH   2   4
TORSDOF 6
ENDMDL
MODEL       31
REMARK 921   NORMALIZED FREE ENERGY PREDICTED BY IDOCK:   -5.50 KCAL/MOL
REMARK 922        TOTAL FREE ENERGY PREDICTED BY IDOCK:   -8.21 KCAL/MOL
REMARK 923 INTER-LIGAND FREE ENERGY PREDICTED BY IDOCK:   -6.78 KCAL/MOL
REMARK 924 INTRA-LIGAND FREE ENERGY PREDICTED BY IDOCK:   -1.43 KCAL/MOL
REMARK 927      BINDING AFFINITY PREDICTED BY RF-SCORE:    0.00 PKD
ROOT
HETATM    1  C   UNL     1     -14.193  14.450  71.787  1.00  0.00    -0.488 C  
HETATM    2  N   UNL     1     -13.420  15.420  71.025  1.00  0.00    -0.651 NA 
HETATM    3  H   UNL     1     -13.852  16.343  71.057  1.00  0.00     0.000 HD 
ENDROOT
BRANCH   2   4
HETATM    4  C   UNL     1     -12.019  15.473  71.461  1.00  0.00    -0.398 C  
BRANCH   4   5
HETATM    5  C   UNL     1     -11.226  16.293  70.440  1.00  0.00    -0.336 C  
BRANCH   5   6
HETATM    6  C   UNL     1     -10.788  15.479  69.207  1.00  0.00    -0.252 C  
BRANCH   6   7
HETATM    7  C   UNL     1     -10.097  16.411  68.216  1.00  0.00    -0.248 A  
HETATM    8  C   UNL     1      -8.732  18.124  66.455  1.00  0.00    -0.252 A  
HETATM    9  C   UNL     1     -10.539  17.727  68.013  1.00  0.00    -0.372 A  
HETATM   10  C   UNL     1      -8.952  15.973  67.528  1.00  0.00    -0.201 A  
HETATM   11  C   UNL     1      -9.862  18.575  67.134  1.00  0.00    -0.335 A  
HETATM   12  C   UNL     1      -8.276  16.823  66.652  1.00  0.00    -0.296 A  
ENDBRANCH   6   7
BRANCH   6  13
HETATM   13  O   UNL     1     -11.915  14.799  68.615  1.00  0.00    -0.311 OA 
BRANCH  13  14
HETATM   14  C   UNL     1     -11.732  13.470  68.322  1.00  0.00    -0.359 A  
HETATM   15  C   UNL     1     -11.721  12.468  69.305  1.00  0.00    -0.379 A  
HETATM   16  C   UNL     1     -11.249  10.774  67.657  1.00  0.00    -0.370 A  
HETATM   17  C   UNL     1     -11.466  11.137  68.980  1.00  0.00    -0.364 A  
HETATM   18  C   UNL     1     -11.329  11.742  66.655  1.00  0.00    -0.381 A  
HETATM   19  C   UNL     1     -11.596  13.088  66.971  1.00  0.00    -0.413 A  
HETATM   20  C   UNL     1     -11.709  14.076  65.843  1.00  0.00    -0.373 C  
ENDBRANCH  13  14
ENDBRANCH   6  13
ENDBRANCH   5   6
ENDBRANCH   4   5
ENDBRANCH   2   4
TORSDOF 6
ENDMDL
MODEL       32
REMARK 921   NORMALIZED FREE ENERGY PREDICTED BY IDOCK:   -5.50 KCAL/MOL
REMARK 922        TOTAL FREE ENERGY PREDICTED BY IDOCK:   -8.20 KCAL/MOL
REMARK 923 INTER-LIGAND FREE ENERGY PREDICTED BY IDOCK:   -7.31 KCAL/MOL
REMARK 924 INTRA-LIGAND FREE ENERGY PREDICTED BY IDOCK:   -0.89 KCAL/MOL
REMARK 927      BINDING AFFINITY PREDICTED BY RF-SCORE:    0.00 PKD
ROOT
HETATM    1  C   UNL     1     -12.748  12.179  63.427  1.00  0.00    -0.381 C  
HETATM    2  N   UNL     1     -12.307  13.544  63.186  1.00  0.00    -1.024 NA 
HETATM    3  H   UNL     1     -13.063  14.116  62.810  1.00  0.00     0.000 HD 
ENDROOT
BRANCH   2   4
HETATM    4  C   UNL     1     -11.724  14.156  64.386  1.00  0.00    -0.392 C  
BRANCH   4   5
HETATM    5  C   UNL     1     -12.621  13.823  65.582  1.00  0.00    -0.551 C  
BRANCH   5   6
HETATM    6  C   UNL     1     -11.882  13.091  66.718  1.00  0.00    -0.388 C  
BRANCH   6   7
HETATM    7  C   UNL     1     -11.698  14.048  67.891  1.00  0.00    -0.397 A  
HETATM    8  C   UNL     1     -11.471  15.811  70.068  1.00  0.00    -0.359 A  
HETATM    9  C   UNL     1     -11.232  15.358  67.704  1.00  0.00    -0.311 A  
HETATM   10  C   UNL     1     -12.059  13.642  69.187  1.00  0.00    -0.361 A  
HETATM   11  C   UNL     1     -11.114  16.232  68.788  1.00  0.00    -0.355 A  
HETATM   12  C   UNL     1     -11.943  14.517  70.268  1.00  0.00    -0.379 A  
ENDBRANCH   6   7
BRANCH   6  13
HETATM   13  O   UNL     1     -10.624  12.559  66.251  1.00  0.00    -0.243 OA 
BRANCH  13  14
HETATM   14  C   UNL     1     -10.434  11.210  66.434  1.00  0.00    -0.260 A  
HETATM   15  C   UNL     1     -10.825  10.538  67.602  1.00  0.00    -0.355 A  
HETATM   16  C   UNL     1      -9.919   8.462  66.780  1.00  0.00    -0.354 A  
HETATM   17  C   UNL     1     -10.556   9.183  67.782  1.00  0.00    -0.289 A  
HETATM   18  C   UNL     1      -9.589   9.093  65.581  1.00  0.00    -0.287 A  
HETATM   19  C   UNL     1      -9.865  10.460  65.385  1.00  0.00    -0.347 A  
HETATM   20  C   UNL     1      -9.521  11.073  64.055  1.00  0.00    -0.278 C  
ENDBRANCH  13  14
ENDBRANCH   6  13
ENDBRANCH   5   6
ENDBRANCH   4   5
ENDBRANCH   2   4
TORSDOF 6
ENDMDL
MODEL       33
REMARK 921   NORMALIZED FREE ENERGY PREDICTED BY IDOCK:   -5.49 KCAL/MOL
REMARK 922        TOTAL FREE ENERGY PREDICTED BY IDOCK:   -8.19 KCAL/MOL
REMARK 923 INTER-LIGAND FREE ENERGY PREDICTED BY IDOCK:   -7.18 KCAL/MOL
REMARK 924 INTRA-LIGAND FREE ENERGY PREDICTED BY IDOCK:   -1.01 KCAL/MOL
REMARK 927      BINDING AFFINITY PREDICTED BY RF-SCORE:    0.00 PKD
ROOT
HETATM    1  C   UNL     1      -8.444   9.080  65.038  1.00  0.00    -0.174 C  
HETATM    2  N   UNL     1      -9.341   8.120  65.663  1.00  0.00    -0.426 NA 
HETATM    3  H   UNL     1      -8.839   7.282  65.956  1.00  0.00     0.000 HD 
ENDROOT
BRANCH   2   4
HETATM    4  C   UNL     1     -10.089   8.710  66.779  1.00  0.00    -0.296 C  
BRANCH   4   5
HETATM    5  C   UNL     1      -9.825  10.217  66.795  1.00  0.00    -0.246 C  
BRANCH   5   6
HETATM    6  C   UNL     1     -11.035  11.047  67.266  1.00  0.00    -0.297 C  
BRANCH   6   7
HETATM    7  C   UNL     1     -11.429  12.023  66.163  1.00  0.00    -0.401 A  
HETATM    8  C   UNL     1     -12.045  13.840  64.108  1.00  0.00    -0.478 A  
HETATM    9  C   UNL     1     -12.106  13.219  66.445  1.00  0.00    -0.454 A  
HETATM   10  C   UNL     1     -11.055  11.761  64.833  1.00  0.00    -0.345 A  
HETATM   11  C   UNL     1     -12.417  14.118  65.422  1.00  0.00    -0.488 A  
HETATM   12  C   UNL     1     -11.363  12.662  63.813  1.00  0.00    -0.529 A  
ENDBRANCH   6   7
BRANCH   6  13
HETATM   13  O   UNL     1     -10.739  11.724  68.506  1.00  0.00    -0.202 OA 
BRANCH  13  14
HETATM   14  C   UNL     1     -11.423  11.282  69.613  1.00  0.00    -0.309 A  
HETATM   15  C   UNL     1     -11.396   9.945  70.040  1.00  0.00    -0.303 A  
HETATM   16  C   UNL     1     -12.933  10.426  71.834  1.00  0.00    -0.555 A  
HETATM   17  C   UNL     1     -12.154   9.517  71.128  1.00  0.00    -0.429 A  
HETATM   18  C   UNL     1     -12.917  11.773  71.472  1.00  0.00    -0.446 A  
HETATM   19  C   UNL     1     -12.145  12.218  70.381  1.00  0.00    -0.385 A  
HETATM   20  C   UNL     1     -12.139  13.689  70.065  1.00  0.00    -0.417 C  
ENDBRANCH  13  14
ENDBRANCH   6  13
ENDBRANCH   5   6
ENDBRANCH   4   5
ENDBRANCH   2   4
TORSDOF 6
ENDMDL
MODEL       34
REMARK 921   NORMALIZED FREE ENERGY PREDICTED BY IDOCK:   -5.49 KCAL/MOL
REMARK 922        TOTAL FREE ENERGY PREDICTED BY IDOCK:   -8.19 KCAL/MOL
REMARK 923 INTER-LIGAND FREE ENERGY PREDICTED BY IDOCK:   -7.26 KCAL/MOL
REMARK 924 INTRA-LIGAND FREE ENERGY PREDICTED BY IDOCK:   -0.93 KCAL/MOL
REMARK 927      BINDING AFFINITY PREDICTED BY RF-SCORE:    0.00 PKD
ROOT
HETATM    1  C   UNL     1     -11.652  12.639  63.512  1.00  0.00    -0.514 C  
HETATM    2  N   UNL     1     -12.446  13.835  63.273  1.00  0.00    -1.092 NA 
HETATM    3  H   UNL     1     -13.409  13.599  63.037  1.00  0.00     0.000 HD 
ENDROOT
BRANCH   2   4
HETATM    4  C   UNL     1     -12.389  14.769  64.403  1.00  0.00    -0.368 C  
BRANCH   4   5
HETATM    5  C   UNL     1     -10.941  14.848  64.894  1.00  0.00    -0.422 C  
BRANCH   5   6
HETATM    6  C   UNL     1     -10.816  14.907  66.429  1.00  0.00    -0.325 C  
BRANCH   6   7
HETATM    7  C   UNL     1     -10.119  16.205  66.821  1.00  0.00    -0.275 A  
HETATM    8  C   UNL     1      -8.747  18.537  67.586  1.00  0.00    -0.280 A  
HETATM    9  C   UNL     1     -10.659  17.068  67.787  1.00  0.00    -0.350 A  
HETATM   10  C   UNL     1      -8.873  16.527  66.254  1.00  0.00    -0.364 A  
HETATM   11  C   UNL     1      -9.979  18.229  68.162  1.00  0.00    -0.377 A  
HETATM   12  C   UNL     1      -8.194  17.686  66.633  1.00  0.00    -0.291 A  
ENDBRANCH   6   7
BRANCH   6  13
HETATM   13  O   UNL     1     -10.121  13.747  66.931  1.00  0.00    -0.252 OA 
BRANCH  13  14
HETATM   14  C   UNL     1     -10.775  13.023  67.900  1.00  0.00    -0.235 A  
HETATM   15  C   UNL     1     -11.352  13.617  69.032  1.00  0.00    -0.333 A  
HETATM   16  C   UNL     1     -12.011  11.466  69.896  1.00  0.00    -0.434 A  
HETATM   17  C   UNL     1     -11.950  12.847  70.028  1.00  0.00    -0.380 A  
HETATM   18  C   UNL     1     -11.509  10.862  68.743  1.00  0.00    -0.376 A  
HETATM   19  C   UNL     1     -10.913  11.631  67.726  1.00  0.00    -0.287 A  
HETATM   20  C   UNL     1     -10.427  10.925  66.489  1.00  0.00    -0.308 C  
ENDBRANCH  13  14
ENDBRANCH   6  13
ENDBRANCH   5   6
ENDBRANCH   4   5
ENDBRANCH   2   4
TORSDOF 6
ENDMDL
MODEL       35
REMARK 921   NORMALIZED FREE ENERGY PREDICTED BY IDOCK:   -5.48 KCAL/MOL
REMARK 922        TOTAL FREE ENERGY PREDICTED BY IDOCK:   -8.17 KCAL/MOL
REMARK 923 INTER-LIGAND FREE ENERGY PREDICTED BY IDOCK:   -7.10 KCAL/MOL
REMARK 924 INTRA-LIGAND FREE ENERGY PREDICTED BY IDOCK:   -1.08 KCAL/MOL
REMARK 927      BINDING AFFINITY PREDICTED BY RF-SCORE:    0.00 PKD
ROOT
HETATM    1  C   UNL     1      -6.834  14.000  69.175  1.00  0.00    -0.112 C  
HETATM    2  N   UNL     1      -8.260  13.891  68.903  1.00  0.00    -0.339 NA 
HETATM    3  H   UNL     1      -8.732  14.785  69.040  1.00  0.00     0.000 HD 
ENDROOT
BRANCH   2   4
HETATM    4  C   UNL     1      -8.526  13.348  67.566  1.00  0.00    -0.192 C  
BRANCH   4   5
HETATM    5  C   UNL     1      -9.344  12.063  67.720  1.00  0.00    -0.190 C  
BRANCH   5   6
HETATM    6  C   UNL     1     -10.867  12.293  67.651  1.00  0.00    -0.225 C  
BRANCH   6   7
HETATM    7  C   UNL     1     -11.264  12.562  66.203  1.00  0.00    -0.362 A  
HETATM    8  C   UNL     1     -12.105  13.042  63.565  1.00  0.00    -0.617 A  
HETATM    9  C   UNL     1     -10.886  11.699  65.164  1.00  0.00    -0.346 A  
HETATM   10  C   UNL     1     -12.081  13.665  65.897  1.00  0.00    -0.476 A  
HETATM   11  C   UNL     1     -11.300  11.941  63.853  1.00  0.00    -0.509 A  
HETATM   12  C   UNL     1     -12.495  13.904  64.586  1.00  0.00    -0.361 A  
ENDBRANCH   6   7
BRANCH   6  13
HETATM   13  O   UNL     1     -11.262  13.368  68.529  1.00  0.00    -0.252 OA 
BRANCH  13  14
HETATM   14  C   UNL     1     -11.882  12.996  69.697  1.00  0.00    -0.319 A  
HETATM   15  C   UNL     1     -12.002  11.657  70.102  1.00  0.00    -0.441 A  
HETATM   16  C   UNL     1     -13.258  12.301  72.056  1.00  0.00    -0.508 A  
HETATM   17  C   UNL     1     -12.696  11.311  71.260  1.00  0.00    -0.510 A  
HETATM   18  C   UNL     1     -13.087  13.641  71.712  1.00  0.00    -0.468 A  
HETATM   19  C   UNL     1     -12.379  14.003  70.550  1.00  0.00    -0.437 A  
HETATM   20  C   UNL     1     -12.195  15.467  70.254  1.00  0.00    -0.432 C  
ENDBRANCH  13  14
ENDBRANCH   6  13
ENDBRANCH   5   6
ENDBRANCH   4   5
ENDBRANCH   2   4
TORSDOF 6
ENDMDL
MODEL       36
REMARK 921   NORMALIZED FREE ENERGY PREDICTED BY IDOCK:   -5.48 KCAL/MOL
REMARK 922        TOTAL FREE ENERGY PREDICTED BY IDOCK:   -8.17 KCAL/MOL
REMARK 923 INTER-LIGAND FREE ENERGY PREDICTED BY IDOCK:   -6.96 KCAL/MOL
REMARK 924 INTRA-LIGAND FREE ENERGY PREDICTED BY IDOCK:   -1.21 KCAL/MOL
REMARK 927      BINDING AFFINITY PREDICTED BY RF-SCORE:    0.00 PKD
ROOT
HETATM    1  C   UNL     1     -11.978  12.531  63.337  1.00  0.00    -0.514 C  
HETATM    2  N   UNL     1     -12.420  13.880  63.659  1.00  0.00    -0.994 NA 
HETATM    3  H   UNL     1     -13.436  13.957  63.607  1.00  0.00     0.000 HD 
ENDROOT
BRANCH   2   4
HETATM    4  C   UNL     1     -11.918  14.328  64.963  1.00  0.00    -0.410 C  
BRANCH   4   5
HETATM    5  C   UNL     1     -10.391  14.409  64.892  1.00  0.00    -0.419 C  
BRANCH   5   6
HETATM    6  C   UNL     1      -9.793  15.519  65.778  1.00  0.00    -0.357 C  
BRANCH   6   7
HETATM    7  C   UNL     1      -8.718  14.915  66.675  1.00  0.00    -0.262 A  
HETATM    8  C   UNL     1      -6.808  13.808  68.415  1.00  0.00    -0.101 A  
HETATM    9  C   UNL     1      -7.515  15.587  66.937  1.00  0.00    -0.117 A  
HETATM   10  C   UNL     1      -8.951  13.682  67.310  1.00  0.00    -0.226 A  
HETATM   11  C   UNL     1      -6.565  15.034  67.798  1.00  0.00    -0.189 A  
HETATM   12  C   UNL     1      -8.001  13.133  68.172  1.00  0.00    -0.154 A  
ENDBRANCH   6   7
BRANCH   6  13
HETATM   13  O   UNL     1     -10.827  16.177  66.540  1.00  0.00    -0.262 OA 
BRANCH  13  14
HETATM   14  C   UNL     1     -10.618  17.507  66.818  1.00  0.00    -0.201 A  
HETATM   15  C   UNL     1     -10.655  18.505  65.833  1.00  0.00    -0.336 A  
HETATM   16  C   UNL     1     -10.078  20.200  67.446  1.00  0.00    -0.556 A  
HETATM   17  C   UNL     1     -10.372  19.835  66.139  1.00  0.00    -0.627 A  
HETATM   18  C   UNL     1     -10.109  19.236  68.453  1.00  0.00    -0.518 A  
HETATM   19  C   UNL     1     -10.403  17.892  68.157  1.00  0.00    -0.395 A  
HETATM   20  C   UNL     1     -10.460  16.907  69.294  1.00  0.00    -0.319 C  
ENDBRANCH  13  14
ENDBRANCH   6  13
ENDBRANCH   5   6
ENDBRANCH   4   5
ENDBRANCH   2   4
TORSDOF 6
ENDMDL
MODEL       37
REMARK 921   NORMALIZED FREE ENERGY PREDICTED BY IDOCK:   -5.46 KCAL/MOL
REMARK 922        TOTAL FREE ENERGY PREDICTED BY IDOCK:   -8.15 KCAL/MOL
REMARK 923 INTER-LIGAND FREE ENERGY PREDICTED BY IDOCK:   -7.39 KCAL/MOL
REMARK 924 INTRA-LIGAND FREE ENERGY PREDICTED BY IDOCK:   -0.76 KCAL/MOL
REMARK 927      BINDING AFFINITY PREDICTED BY RF-SCORE:    0.00 PKD
ROOT
HETATM    1  C   UNL     1     -12.255  13.262  66.098  1.00  0.00    -0.405 C  
HETATM    2  N   UNL     1     -11.062  12.460  66.327  1.00  0.00    -0.289 NA 
HETATM    3  H   UNL     1     -10.283  12.785  65.755  1.00  0.00     0.000 HD 
ENDROOT
BRANCH   2   4
HETATM    4  C   UNL     1     -10.696  12.410  67.747  1.00  0.00    -0.221 C  
BRANCH   4   5
HETATM    5  C   UNL     1     -11.823  11.712  68.513  1.00  0.00    -0.357 C  
BRANCH   5   6
HETATM    6  C   UNL     1     -11.880  12.095  70.004  1.00  0.00    -0.306 C  
BRANCH   6   7
HETATM    7  C   UNL     1     -12.015  10.826  70.839  1.00  0.00    -0.438 A  
HETATM    8  C   UNL     1     -12.246   8.426  72.284  1.00  0.00    -0.449 A  
HETATM    9  C   UNL     1     -13.222  10.483  71.467  1.00  0.00    -0.470 A  
HETATM   10  C   UNL     1     -10.929   9.938  70.940  1.00  0.00    -0.392 A  
HETATM   11  C   UNL     1     -13.334   9.293  72.189  1.00  0.00    -0.537 A  
HETATM   12  C   UNL     1     -11.044   8.749  71.660  1.00  0.00    -0.398 A  
ENDBRANCH   6   7
BRANCH   6  13
HETATM   13  O   UNL     1     -12.957  13.023  70.253  1.00  0.00     0.153 OA 
BRANCH  13  14
HETATM   14  C   UNL     1     -12.708  14.001  71.185  1.00  0.00    -0.364 A  
HETATM   15  C   UNL     1     -12.922  13.815  72.560  1.00  0.00    -0.431 A  
HETATM   16  C   UNL     1     -12.271  16.087  73.029  1.00  0.00    -0.637 A  
HETATM   17  C   UNL     1     -12.722  14.850  73.471  1.00  0.00    -0.629 A  
HETATM   18  C   UNL     1     -11.981  16.272  71.677  1.00  0.00    -0.436 A  
HETATM   19  C   UNL     1     -12.169  15.229  70.750  1.00  0.00    -0.411 A  
HETATM   20  C   UNL     1     -11.800  15.478  69.312  1.00  0.00    -0.372 C  
ENDBRANCH  13  14
ENDBRANCH   6  13
ENDBRANCH   5   6
ENDBRANCH   4   5
ENDBRANCH   2   4
TORSDOF 6
ENDMDL
MODEL       38
REMARK 921   NORMALIZED FREE ENERGY PREDICTED BY IDOCK:   -5.44 KCAL/MOL
REMARK 922        TOTAL FREE ENERGY PREDICTED BY IDOCK:   -8.13 KCAL/MOL
REMARK 923 INTER-LIGAND FREE ENERGY PREDICTED BY IDOCK:   -7.10 KCAL/MOL
REMARK 924 INTRA-LIGAND FREE ENERGY PREDICTED BY IDOCK:   -1.02 KCAL/MOL
REMARK 927      BINDING AFFINITY PREDICTED BY RF-SCORE:    0.00 PKD
ROOT
HETATM    1  C   UNL     1     -11.034   6.771  67.294  1.00  0.00    -0.363 C  
HETATM    2  N   UNL     1     -10.852   8.214  67.236  1.00  0.00    -0.494 NA 
HETATM    3  H   UNL     1     -11.312   8.676  68.021  1.00  0.00     0.000 HD 
ENDROOT
BRANCH   2   4
HETATM    4  C   UNL     1      -9.435   8.587  67.156  1.00  0.00    -0.162 C  
BRANCH   4   5
HETATM    5  C   UNL     1      -9.336  10.115  67.165  1.00  0.00    -0.176 C  
BRANCH   5   6
HETATM    6  C   UNL     1     -10.683  10.815  67.429  1.00  0.00    -0.268 C  
BRANCH   6   7
HETATM    7  C   UNL     1     -11.085  11.605  66.188  1.00  0.00    -0.335 A  
HETATM    8  C   UNL     1     -11.931  13.017  63.910  1.00  0.00    -0.551 A  
HETATM    9  C   UNL     1     -10.537  11.323  64.927  1.00  0.00    -0.364 A  
HETATM   10  C   UNL     1     -12.074  12.600  66.283  1.00  0.00    -0.358 A  
HETATM   11  C   UNL     1     -10.954  12.030  63.797  1.00  0.00    -0.492 A  
HETATM   12  C   UNL     1     -12.492  13.302  65.152  1.00  0.00    -0.525 A  
ENDBRANCH   6   7
BRANCH   6  13
HETATM   13  O   UNL     1     -10.603  11.654  68.601  1.00  0.00    -0.197 OA 
BRANCH  13  14
HETATM   14  C   UNL     1     -11.326  11.236  69.692  1.00  0.00    -0.287 A  
HETATM   15  C   UNL     1     -11.240   9.935  70.209  1.00  0.00    -0.364 A  
HETATM   16  C   UNL     1     -12.915  10.422  71.872  1.00  0.00    -0.555 A  
HETATM   17  C   UNL     1     -12.037   9.525  71.277  1.00  0.00    -0.443 A  
HETATM   18  C   UNL     1     -12.963  11.741  71.422  1.00  0.00    -0.408 A  
HETATM   19  C   UNL     1     -12.154  12.168  70.351  1.00  0.00    -0.395 A  
HETATM   20  C   UNL     1     -12.222  13.613  69.938  1.00  0.00    -0.367 C  
ENDBRANCH  13  14
ENDBRANCH   6  13
ENDBRANCH   5   6
ENDBRANCH   4   5
ENDBRANCH   2   4
TORSDOF 6
ENDMDL
MODEL       39
REMARK 921   NORMALIZED FREE ENERGY PREDICTED BY IDOCK:   -5.41 KCAL/MOL
REMARK 922        TOTAL FREE ENERGY PREDICTED BY IDOCK:   -8.08 KCAL/MOL
REMARK 923 INTER-LIGAND FREE ENERGY PREDICTED BY IDOCK:   -7.08 KCAL/MOL
REMARK 924 INTRA-LIGAND FREE ENERGY PREDICTED BY IDOCK:   -1.00 KCAL/MOL
REMARK 927      BINDING AFFINITY PREDICTED BY RF-SCORE:    0.00 PKD
ROOT
HETATM    1  C   UNL     1      -8.994   8.675  65.977  1.00  0.00    -0.184 C  
HETATM    2  N   UNL     1     -10.360   8.483  66.444  1.00  0.00    -0.375 NA 
HETATM    3  H   UNL     1     -10.557   7.496  66.610  1.00  0.00     0.000 HD 
ENDROOT
BRANCH   2   4
HETATM    4  C   UNL     1     -10.655   9.292  67.631  1.00  0.00    -0.261 C  
BRANCH   4   5
HETATM    5  C   UNL     1     -10.225  10.735  67.352  1.00  0.00    -0.241 C  
BRANCH   5   6
HETATM    6  C   UNL     1     -11.348  11.765  67.579  1.00  0.00    -0.310 C  
BRANCH   6   7
HETATM    7  C   UNL     1     -11.646  12.474  66.262  1.00  0.00    -0.449 A  
HETATM    8  C   UNL     1     -12.306  13.766  63.855  1.00  0.00    -0.346 A  
HETATM    9  C   UNL     1     -11.270  11.923  65.028  1.00  0.00    -0.350 A  
HETATM   10  C   UNL     1     -12.369  13.680  66.266  1.00  0.00    -0.464 A  
HETATM   11  C   UNL     1     -11.593  12.568  63.833  1.00  0.00    -0.516 A  
HETATM   12  C   UNL     1     -12.694  14.322  65.071  1.00  0.00    -0.297 A  
ENDBRANCH   6   7
BRANCH   6  13
HETATM   13  O   UNL     1     -10.988  12.694  68.624  1.00  0.00    -0.237 OA 
BRANCH  13  14
HETATM   14  C   UNL     1     -11.752  12.645  69.764  1.00  0.00    -0.284 A  
HETATM   15  C   UNL     1     -12.098  11.441  70.398  1.00  0.00    -0.473 A  
HETATM   16  C   UNL     1     -13.409  12.617  72.044  1.00  0.00    -0.555 A  
HETATM   17  C   UNL     1     -12.930  11.424  71.515  1.00  0.00    -0.505 A  
HETATM   18  C   UNL     1     -13.017  13.828  71.474  1.00  0.00    -0.444 A  
HETATM   19  C   UNL     1     -12.168  13.857  70.351  1.00  0.00    -0.438 A  
HETATM   20  C   UNL     1     -11.750  15.197  69.808  1.00  0.00    -0.347 C  
ENDBRANCH  13  14
ENDBRANCH   6  13
ENDBRANCH   5   6
ENDBRANCH   4   5
ENDBRANCH   2   4
TORSDOF 6
ENDMDL
MODEL       40
REMARK 921   NORMALIZED FREE ENERGY PREDICTED BY IDOCK:   -5.41 KCAL/MOL
REMARK 922        TOTAL FREE ENERGY PREDICTED BY IDOCK:   -8.08 KCAL/MOL
REMARK 923 INTER-LIGAND FREE ENERGY PREDICTED BY IDOCK:   -7.40 KCAL/MOL
REMARK 924 INTRA-LIGAND FREE ENERGY PREDICTED BY IDOCK:   -0.67 KCAL/MOL
REMARK 927      BINDING AFFINITY PREDICTED BY RF-SCORE:    0.00 PKD
ROOT
HETATM    1  C   UNL     1     -12.225   8.594  71.679  1.00  0.00    -0.333 C  
HETATM    2  N   UNL     1     -11.508   8.737  70.421  1.00  0.00    -0.416 NA 
HETATM    3  H   UNL     1     -12.083   8.439  69.632  1.00  0.00     0.000 HD 
ENDROOT
BRANCH   2   4
HETATM    4  C   UNL     1     -11.003  10.101  70.226  1.00  0.00    -0.317 C  
BRANCH   4   5
HETATM    5  C   UNL     1     -12.145  10.967  69.688  1.00  0.00    -0.411 C  
BRANCH   5   6
HETATM    6  C   UNL     1     -11.726  12.421  69.393  1.00  0.00    -0.322 C  
BRANCH   6   7
HETATM    7  C   UNL     1     -12.427  13.350  70.378  1.00  0.00    -0.322 A  
HETATM    8  C   UNL     1     -13.819  15.017  72.163  1.00  0.00    -0.584 A  
HETATM    9  C   UNL     1     -12.435  14.742  70.199  1.00  0.00    -0.359 A  
HETATM   10  C   UNL     1     -13.141  12.809  71.462  1.00  0.00    -0.380 A  
HETATM   11  C   UNL     1     -13.122  15.569  71.090  1.00  0.00    -0.573 A  
HETATM   12  C   UNL     1     -13.829  13.638  72.349  1.00  0.00    -0.691 A  
ENDBRANCH   6   7
BRANCH   6  13
HETATM   13  O   UNL     1     -12.014  12.768  68.023  1.00  0.00    -0.346 OA 
BRANCH  13  14
HETATM   14  C   UNL     1     -11.090  13.568  67.396  1.00  0.00    -0.281 A  
HETATM   15  C   UNL     1      -9.800  13.784  67.905  1.00  0.00    -0.232 A  
HETATM   16  C   UNL     1      -9.281  15.304  66.108  1.00  0.00    -0.345 A  
HETATM   17  C   UNL     1      -8.910  14.654  67.279  1.00  0.00    -0.220 A  
HETATM   18  C   UNL     1     -10.531  15.047  65.545  1.00  0.00    -0.385 A  
HETATM   19  C   UNL     1     -11.434  14.161  66.164  1.00  0.00    -0.350 A  
HETATM   20  C   UNL     1     -12.750  13.895  65.485  1.00  0.00    -0.536 C  
ENDBRANCH  13  14
ENDBRANCH   6  13
ENDBRANCH   5   6
ENDBRANCH   4   5
ENDBRANCH   2   4
TORSDOF 6
ENDMDL
MODEL       41
REMARK 921   NORMALIZED FREE ENERGY PREDICTED BY IDOCK:   -5.40 KCAL/MOL
REMARK 922        TOTAL FREE ENERGY PREDICTED BY IDOCK:   -8.07 KCAL/MOL
REMARK 923 INTER-LIGAND FREE ENERGY PREDICTED BY IDOCK:   -7.23 KCAL/MOL
REMARK 924 INTRA-LIGAND FREE ENERGY PREDICTED BY IDOCK:   -0.84 KCAL/MOL
REMARK 927      BINDING AFFINITY PREDICTED BY RF-SCORE:    0.00 PKD
ROOT
HETATM    1  C   UNL     1     -12.322  12.313  63.497  1.00  0.00    -0.565 C  
HETATM    2  N   UNL     1     -12.506  13.742  63.288  1.00  0.00    -1.092 NA 
HETATM    3  H   UNL     1     -13.475  13.959  63.055  1.00  0.00     0.000 HD 
ENDROOT
BRANCH   2   4
HETATM    4  C   UNL     1     -12.046  14.531  64.436  1.00  0.00    -0.472 C  
BRANCH   4   5
HETATM    5  C   UNL     1     -10.591  14.154  64.730  1.00  0.00    -0.439 C  
BRANCH   5   6
HETATM    6  C   UNL     1     -10.008  14.872  65.962  1.00  0.00    -0.313 C  
BRANCH   6   7
HETATM    7  C   UNL     1     -10.724  14.375  67.213  1.00  0.00    -0.285 A  
HETATM    8  C   UNL     1     -11.971  13.518  69.582  1.00  0.00    -0.397 A  
HETATM    9  C   UNL     1     -10.710  13.020  67.579  1.00  0.00    -0.248 A  
HETATM   10  C   UNL     1     -11.364  15.293  68.063  1.00  0.00    -0.345 A  
HETATM   11  C   UNL     1     -11.335  12.595  68.753  1.00  0.00    -0.333 A  
HETATM   12  C   UNL     1     -11.986  14.867  69.237  1.00  0.00    -0.326 A  
ENDBRANCH   6   7
BRANCH   6  13
HETATM   13  O   UNL     1     -10.108  16.305  65.815  1.00  0.00    -0.337 OA 
BRANCH  13  14
HETATM   14  C   UNL     1      -9.024  17.033  66.242  1.00  0.00    -0.247 A  
HETATM   15  C   UNL     1      -7.768  16.455  66.487  1.00  0.00    -0.295 A  
HETATM   16  C   UNL     1      -6.872  18.571  67.214  1.00  0.00    -0.209 A  
HETATM   17  C   UNL     1      -6.708  17.211  66.983  1.00  0.00    -0.227 A  
HETATM   18  C   UNL     1      -8.089  19.179  66.907  1.00  0.00    -0.277 A  
HETATM   19  C   UNL     1      -9.164  18.427  66.395  1.00  0.00    -0.280 A  
HETATM   20  C   UNL     1     -10.438  19.148  66.047  1.00  0.00    -0.546 C  
ENDBRANCH  13  14
ENDBRANCH   6  13
ENDBRANCH   5   6
ENDBRANCH   4   5
ENDBRANCH   2   4
TORSDOF 6
ENDMDL
MODEL       42
REMARK 921   NORMALIZED FREE ENERGY PREDICTED BY IDOCK:   -5.39 KCAL/MOL
REMARK 922        TOTAL FREE ENERGY PREDICTED BY IDOCK:   -8.06 KCAL/MOL
REMARK 923 INTER-LIGAND FREE ENERGY PREDICTED BY IDOCK:   -6.84 KCAL/MOL
REMARK 924 INTRA-LIGAND FREE ENERGY PREDICTED BY IDOCK:   -1.22 KCAL/MOL
REMARK 927      BINDING AFFINITY PREDICTED BY RF-SCORE:    0.00 PKD
ROOT
HETATM    1  C   UNL     1     -12.315  12.483  63.349  1.00  0.00    -0.477 C  
HETATM    2  N   UNL     1     -12.389  13.935  63.418  1.00  0.00    -1.139 NA 
HETATM    3  H   UNL     1     -13.349  14.261  63.304  1.00  0.00     0.000 HD 
ENDROOT
BRANCH   2   4
HETATM    4  C   UNL     1     -11.793  14.460  64.652  1.00  0.00    -0.451 C  
BRANCH   4   5
HETATM    5  C   UNL     1     -10.522  13.660  64.953  1.00  0.00    -0.426 C  
BRANCH   5   6
HETATM    6  C   UNL     1     -10.443  13.158  66.408  1.00  0.00    -0.282 C  
BRANCH   6   7
HETATM    7  C   UNL     1      -9.725  11.813  66.432  1.00  0.00    -0.234 A  
HETATM    8  C   UNL     1      -8.497   9.286  66.515  1.00  0.00    -0.131 A  
HETATM    9  C   UNL     1      -8.650  11.569  67.300  1.00  0.00    -0.150 A  
HETATM   10  C   UNL     1     -10.181  10.764  65.615  1.00  0.00    -0.320 A  
HETATM   11  C   UNL     1      -8.038  10.314  67.336  1.00  0.00    -0.110 A  
HETATM   12  C   UNL     1      -9.569   9.510  65.655  1.00  0.00    -0.346 A  
ENDBRANCH   6   7
BRANCH   6  13
HETATM   13  O   UNL     1     -11.759  13.080  66.995  1.00  0.00    -0.345 OA 
BRANCH  13  14
HETATM   14  C   UNL     1     -11.889  13.601  68.259  1.00  0.00    -0.369 A  
HETATM   15  C   UNL     1     -11.950  14.981  68.510  1.00  0.00    -0.257 A  
HETATM   16  C   UNL     1     -12.052  14.602  70.889  1.00  0.00    -0.393 A  
HETATM   17  C   UNL     1     -12.015  15.477  69.811  1.00  0.00    -0.384 A  
HETATM   18  C   UNL     1     -12.067  13.226  70.658  1.00  0.00    -0.361 A  
HETATM   19  C   UNL     1     -12.013  12.714  69.347  1.00  0.00    -0.318 A  
HETATM   20  C   UNL     1     -12.073  11.221  69.162  1.00  0.00    -0.348 C  
ENDBRANCH  13  14
ENDBRANCH   6  13
ENDBRANCH   5   6
ENDBRANCH   4   5
ENDBRANCH   2   4
TORSDOF 6
ENDMDL
MODEL       43
REMARK 921   NORMALIZED FREE ENERGY PREDICTED BY IDOCK:   -5.38 KCAL/MOL
REMARK 922        TOTAL FREE ENERGY PREDICTED BY IDOCK:   -8.05 KCAL/MOL
REMARK 923 INTER-LIGAND FREE ENERGY PREDICTED BY IDOCK:   -6.81 KCAL/MOL
REMARK 924 INTRA-LIGAND FREE ENERGY PREDICTED BY IDOCK:   -1.24 KCAL/MOL
REMARK 927      BINDING AFFINITY PREDICTED BY RF-SCORE:    0.00 PKD
ROOT
HETATM    1  C   UNL     1     -10.781   6.850  67.888  1.00  0.00    -0.232 C  
HETATM    2  N   UNL     1     -10.970   8.142  67.245  1.00  0.00    -0.457 NA 
HETATM    3  H   UNL     1     -11.232   8.857  67.923  1.00  0.00     0.000 HD 
ENDROOT
BRANCH   2   4
HETATM    4  C   UNL     1      -9.792   8.550  66.471  1.00  0.00    -0.272 C  
BRANCH   4   5
HETATM    5  C   UNL     1      -9.730  10.079  66.453  1.00  0.00    -0.266 C  
BRANCH   5   6
HETATM    6  C   UNL     1     -10.841  10.748  67.286  1.00  0.00    -0.288 C  
BRANCH   6   7
HETATM    7  C   UNL     1     -11.393  11.941  66.513  1.00  0.00    -0.403 A  
HETATM    8  C   UNL     1     -12.310  14.148  65.033  1.00  0.00    -0.452 A  
HETATM    9  C   UNL     1     -11.713  13.148  67.153  1.00  0.00    -0.430 A  
HETATM   10  C   UNL     1     -11.530  11.865  65.116  1.00  0.00    -0.304 A  
HETATM   11  C   UNL     1     -12.174  14.242  66.417  1.00  0.00    -0.426 A  
HETATM   12  C   UNL     1     -11.988  12.960  64.382  1.00  0.00    -0.456 A  
ENDBRANCH   6   7
BRANCH   6  13
HETATM   13  O   UNL     1     -10.347  11.127  68.587  1.00  0.00    -0.188 OA 
BRANCH  13  14
HETATM   14  C   UNL     1     -11.023  10.608  69.665  1.00  0.00    -0.278 A  
HETATM   15  C   UNL     1     -12.344  10.965  69.979  1.00  0.00    -0.385 A  
HETATM   16  C   UNL     1     -12.311   9.579  71.950  1.00  0.00    -0.450 A  
HETATM   17  C   UNL     1     -12.976  10.470  71.118  1.00  0.00    -0.506 A  
HETATM   18  C   UNL     1     -11.026   9.154  71.617  1.00  0.00    -0.445 A  
HETATM   19  C   UNL     1     -10.381   9.640  70.463  1.00  0.00    -0.359 A  
HETATM   20  C   UNL     1      -9.010   9.112  70.136  1.00  0.00    -0.219 C  
ENDBRANCH  13  14
ENDBRANCH   6  13
ENDBRANCH   5   6
ENDBRANCH   4   5
ENDBRANCH   2   4
TORSDOF 6
ENDMDL
MODEL       44
REMARK 921   NORMALIZED FREE ENERGY PREDICTED BY IDOCK:   -5.38 KCAL/MOL
REMARK 922        TOTAL FREE ENERGY PREDICTED BY IDOCK:   -8.04 KCAL/MOL
REMARK 923 INTER-LIGAND FREE ENERGY PREDICTED BY IDOCK:   -6.96 KCAL/MOL
REMARK 924 INTRA-LIGAND FREE ENERGY PREDICTED BY IDOCK:   -1.08 KCAL/MOL
REMARK 927      BINDING AFFINITY PREDICTED BY RF-SCORE:    0.00 PKD
ROOT
HETATM    1  C   UNL     1      -8.231  12.227  68.267  1.00  0.00    -0.167 C  
HETATM    2  N   UNL     1      -9.463  12.902  68.646  1.00  0.00    -0.407 NA 
HETATM    3  H   UNL     1      -9.372  13.914  68.558  1.00  0.00     0.000 HD 
ENDROOT
BRANCH   2   4
HETATM    4  C   UNL     1     -10.619  12.405  67.890  1.00  0.00    -0.213 C  
BRANCH   4   5
HETATM    5  C   UNL     1     -11.882  13.065  68.448  1.00  0.00    -0.370 C  
BRANCH   5   6
HETATM    6  C   UNL     1     -12.304  12.516  69.825  1.00  0.00    -0.020 C  
BRANCH   6   7
HETATM    7  C   UNL     1     -12.521  13.684  70.781  1.00  0.00    -0.432 A  
HETATM    8  C   UNL     1     -12.820  15.813  72.592  1.00  0.00    -0.554 A  
HETATM    9  C   UNL     1     -13.564  13.683  71.720  1.00  0.00    -0.445 A  
HETATM   10  C   UNL     1     -11.624  14.767  70.775  1.00  0.00    -0.318 A  
HETATM   11  C   UNL     1     -13.715  14.744  72.615  1.00  0.00    -0.547 A  
HETATM   12  C   UNL     1     -11.775  15.824  71.673  1.00  0.00    -0.542 A  
ENDBRANCH   6   7
BRANCH   6  13
HETATM   13  O   UNL     1     -11.326  11.581  70.326  1.00  0.00    -0.187 OA 
BRANCH  13  14
HETATM   14  C   UNL     1     -11.823  10.441  70.909  1.00  0.00    -0.377 A  
HETATM   15  C   UNL     1     -13.182  10.273  71.214  1.00  0.00    -0.447 A  
HETATM   16  C   UNL     1     -12.754   8.115  72.199  1.00  0.00    -0.332 A  
HETATM   17  C   UNL     1     -13.642   9.130  71.866  1.00  0.00    -0.493 A  
HETATM   18  C   UNL     1     -11.412   8.229  71.838  1.00  0.00    -0.372 A  
HETATM   19  C   UNL     1     -10.938   9.374  71.170  1.00  0.00    -0.430 A  
HETATM   20  C   UNL     1      -9.487   9.420  70.773  1.00  0.00    -0.307 C  
ENDBRANCH  13  14
ENDBRANCH   6  13
ENDBRANCH   5   6
ENDBRANCH   4   5
ENDBRANCH   2   4
TORSDOF 6
ENDMDL
MODEL       45
REMARK 921   NORMALIZED FREE ENERGY PREDICTED BY IDOCK:   -5.34 KCAL/MOL
REMARK 922        TOTAL FREE ENERGY PREDICTED BY IDOCK:   -8.00 KCAL/MOL
REMARK 923 INTER-LIGAND FREE ENERGY PREDICTED BY IDOCK:   -6.67 KCAL/MOL
REMARK 924 INTRA-LIGAND FREE ENERGY PREDICTED BY IDOCK:   -1.33 KCAL/MOL
REMARK 927      BINDING AFFINITY PREDICTED BY RF-SCORE:    0.00 PKD
ROOT
HETATM    1  C   UNL     1     -11.891  10.160  70.850  1.00  0.00    -0.374 C  
HETATM    2  N   UNL     1     -11.483  11.381  70.170  1.00  0.00    -0.483 NA 
HETATM    3  H   UNL     1     -11.533  11.274  69.157  1.00  0.00     0.000 HD 
ENDROOT
BRANCH   2   4
HETATM    4  C   UNL     1     -12.252  12.546  70.621  1.00  0.00    -0.276 C  
BRANCH   4   5
HETATM    5  C   UNL     1     -11.897  13.736  69.725  1.00  0.00    -0.394 C  
BRANCH   5   6
HETATM    6  C   UNL     1     -11.213  13.328  68.406  1.00  0.00    -0.280 C  
BRANCH   6   7
HETATM    7  C   UNL     1     -10.574  14.560  67.775  1.00  0.00    -0.250 A  
HETATM    8  C   UNL     1      -9.490  16.848  66.553  1.00  0.00    -0.296 A  
HETATM    9  C   UNL     1      -9.447  14.461  66.945  1.00  0.00    -0.268 A  
HETATM   10  C   UNL     1     -11.154  15.826  67.972  1.00  0.00    -0.337 A  
HETATM   11  C   UNL     1      -8.907  15.599  66.342  1.00  0.00    -0.365 A  
HETATM   12  C   UNL     1     -10.614  16.961  67.367  1.00  0.00    -0.294 A  
ENDBRANCH   6   7
BRANCH   6  13
HETATM   13  O   UNL     1     -12.154  12.691  67.516  1.00  0.00    -0.411 OA 
BRANCH  13  14
HETATM   14  C   UNL     1     -11.640  12.212  66.336  1.00  0.00    -0.364 A  
HETATM   15  C   UNL     1     -10.751  11.127  66.279  1.00  0.00    -0.298 A  
HETATM   16  C   UNL     1     -10.546  11.347  63.887  1.00  0.00    -0.452 A  
HETATM   17  C   UNL     1     -10.196  10.709  65.070  1.00  0.00    -0.380 A  
HETATM   18  C   UNL     1     -11.484  12.378  63.912  1.00  0.00    -0.509 A  
HETATM   19  C   UNL     1     -12.059  12.802  65.126  1.00  0.00    -0.498 A  
HETATM   20  C   UNL     1     -13.095  13.892  65.083  1.00  0.00    -0.136 C  
ENDBRANCH  13  14
ENDBRANCH   6  13
ENDBRANCH   5   6
ENDBRANCH   4   5
ENDBRANCH   2   4
TORSDOF 6
ENDMDL
MODEL       46
REMARK 921   NORMALIZED FREE ENERGY PREDICTED BY IDOCK:   -5.33 KCAL/MOL
REMARK 922        TOTAL FREE ENERGY PREDICTED BY IDOCK:   -7.97 KCAL/MOL
REMARK 923 INTER-LIGAND FREE ENERGY PREDICTED BY IDOCK:   -7.37 KCAL/MOL
REMARK 924 INTRA-LIGAND FREE ENERGY PREDICTED BY IDOCK:   -0.60 KCAL/MOL
REMARK 927      BINDING AFFINITY PREDICTED BY RF-SCORE:    0.00 PKD
ROOT
HETATM    1  C   UNL     1      -9.978  18.410  66.453  1.00  0.00    -0.386 C  
HETATM    2  N   UNL     1      -8.897  17.619  65.883  1.00  0.00    -0.520 NA 
HETATM    3  H   UNL     1      -7.989  17.945  66.212  1.00  0.00     0.000 HD 
ENDROOT
BRANCH   2   4
HETATM    4  C   UNL     1      -9.071  16.184  66.137  1.00  0.00    -0.347 C  
BRANCH   4   5
HETATM    5  C   UNL     1     -10.537  15.931  66.499  1.00  0.00    -0.297 C  
BRANCH   5   6
HETATM    6  C   UNL     1     -10.828  14.470  66.893  1.00  0.00    -0.305 C  
BRANCH   6   7
HETATM    7  C   UNL     1     -10.961  13.630  65.627  1.00  0.00    -0.294 A  
HETATM    8  C   UNL     1     -11.306  12.043  63.333  1.00  0.00    -0.484 A  
HETATM    9  C   UNL     1     -10.064  12.592  65.334  1.00  0.00    -0.277 A  
HETATM   10  C   UNL     1     -12.042  13.850  64.754  1.00  0.00    -0.443 A  
HETATM   11  C   UNL     1     -10.233  11.808  64.191  1.00  0.00    -0.363 A  
HETATM   12  C   UNL     1     -12.210  13.063  63.614  1.00  0.00    -0.568 A  
ENDBRANCH   6   7
BRANCH   6  13
HETATM   13  O   UNL     1     -12.006  14.388  67.723  1.00  0.00    -0.370 OA 
BRANCH  13  14
HETATM   14  C   UNL     1     -12.031  13.362  68.636  1.00  0.00    -0.327 A  
HETATM   15  C   UNL     1     -11.692  12.041  68.305  1.00  0.00    -0.396 A  
HETATM   16  C   UNL     1     -12.205  11.289  70.537  1.00  0.00    -0.474 A  
HETATM   17  C   UNL     1     -11.793  11.012  69.240  1.00  0.00    -0.411 A  
HETATM   18  C   UNL     1     -12.475  12.607  70.907  1.00  0.00    -0.368 A  
HETATM   19  C   UNL     1     -12.366  13.655  69.973  1.00  0.00    -0.342 A  
HETATM   20  C   UNL     1     -12.633  15.060  70.444  1.00  0.00    -0.399 C  
ENDBRANCH  13  14
ENDBRANCH   6  13
ENDBRANCH   5   6
ENDBRANCH   4   5
ENDBRANCH   2   4
TORSDOF 6
ENDMDL
MODEL       47
REMARK 921   NORMALIZED FREE ENERGY PREDICTED BY IDOCK:   -5.32 KCAL/MOL
REMARK 922        TOTAL FREE ENERGY PREDICTED BY IDOCK:   -7.97 KCAL/MOL
REMARK 923 INTER-LIGAND FREE ENERGY PREDICTED BY IDOCK:   -6.99 KCAL/MOL
REMARK 924 INTRA-LIGAND FREE ENERGY PREDICTED BY IDOCK:   -0.98 KCAL/MOL
REMARK 927      BINDING AFFINITY PREDICTED BY RF-SCORE:    0.00 PKD
ROOT
HETATM    1  C   UNL     1     -10.829   6.155  67.004  1.00  0.00    -0.356 C  
HETATM    2  N   UNL     1     -11.139   7.521  67.400  1.00  0.00    -0.541 NA 
HETATM    3  H   UNL     1     -11.179   7.611  68.416  1.00  0.00     0.000 HD 
ENDROOT
BRANCH   2   4
HETATM    4  C   UNL     1     -10.205   8.490  66.816  1.00  0.00    -0.300 C  
BRANCH   4   5
HETATM    5  C   UNL     1      -9.595   9.318  67.951  1.00  0.00    -0.163 C  
BRANCH   5   6
HETATM    6  C   UNL     1     -10.491  10.485  68.409  1.00  0.00    -0.186 C  
BRANCH   6   7
HETATM    7  C   UNL     1     -11.120  10.132  69.752  1.00  0.00    -0.328 A  
HETATM    8  C   UNL     1     -12.286   9.372  72.194  1.00  0.00    -0.368 A  
HETATM    9  C   UNL     1     -12.378  10.626  70.128  1.00  0.00    -0.370 A  
HETATM   10  C   UNL     1     -10.463   9.240  70.618  1.00  0.00    -0.325 A  
HETATM   11  C   UNL     1     -12.954  10.252  71.344  1.00  0.00    -0.540 A  
HETATM   12  C   UNL     1     -11.041   8.866  71.832  1.00  0.00    -0.442 A  
ENDBRANCH   6   7
BRANCH   6  13
HETATM   13  O   UNL     1     -11.486  10.789  67.409  1.00  0.00    -0.467 OA 
BRANCH  13  14
HETATM   14  C   UNL     1     -11.477  12.073  66.920  1.00  0.00    -0.337 A  
HETATM   15  C   UNL     1     -11.840  13.185  67.695  1.00  0.00    -0.405 A  
HETATM   16  C   UNL     1     -11.533  14.667  65.819  1.00  0.00    -0.338 A  
HETATM   17  C   UNL     1     -11.884  14.466  67.148  1.00  0.00    -0.437 A  
HETATM   18  C   UNL     1     -11.099  13.587  65.051  1.00  0.00    -0.338 A  
HETATM   19  C   UNL     1     -11.040  12.290  65.597  1.00  0.00    -0.357 A  
HETATM   20  C   UNL     1     -10.524  11.174  64.730  1.00  0.00    -0.388 C  
ENDBRANCH  13  14
ENDBRANCH   6  13
ENDBRANCH   5   6
ENDBRANCH   4   5
ENDBRANCH   2   4
TORSDOF 6
ENDMDL
MODEL       48
REMARK 921   NORMALIZED FREE ENERGY PREDICTED BY IDOCK:   -5.32 KCAL/MOL
REMARK 922        TOTAL FREE ENERGY PREDICTED BY IDOCK:   -7.97 KCAL/MOL
REMARK 923 INTER-LIGAND FREE ENERGY PREDICTED BY IDOCK:   -6.81 KCAL/MOL
REMARK 924 INTRA-LIGAND FREE ENERGY PREDICTED BY IDOCK:   -1.16 KCAL/MOL
REMARK 927      BINDING AFFINITY PREDICTED BY RF-SCORE:    0.00 PKD
ROOT
HETATM    1  C   UNL     1     -11.293   7.524  70.712  1.00  0.00    -0.280 C  
HETATM    2  N   UNL     1     -11.730   8.802  70.169  1.00  0.00    -0.453 NA 
HETATM    3  H   UNL     1     -12.700   8.757  69.855  1.00  0.00     0.000 HD 
ENDROOT
BRANCH   2   4
HETATM    4  C   UNL     1     -11.529   9.902  71.118  1.00  0.00    -0.383 C  
BRANCH   4   5
HETATM    5  C   UNL     1     -12.313  11.119  70.621  1.00  0.00    -0.482 C  
BRANCH   5   6
HETATM    6  C   UNL     1     -11.609  11.879  69.480  1.00  0.00    -0.327 C  
BRANCH   6   7
HETATM    7  C   UNL     1     -11.603  13.369  69.805  1.00  0.00    -0.305 A  
HETATM    8  C   UNL     1     -11.487  16.104  70.445  1.00  0.00    -0.344 A  
HETATM    9  C   UNL     1     -12.482  13.921  70.748  1.00  0.00    -0.445 A  
HETATM   10  C   UNL     1     -10.656  14.212  69.196  1.00  0.00    -0.176 A  
HETATM   11  C   UNL     1     -12.427  15.280  71.062  1.00  0.00    -0.444 A  
HETATM   12  C   UNL     1     -10.601  15.570  69.512  1.00  0.00    -0.258 A  
ENDBRANCH   6   7
BRANCH   6  13
HETATM   13  O   UNL     1     -12.243  11.604  68.214  1.00  0.00    -0.525 OA 
BRANCH  13  14
HETATM   14  C   UNL     1     -11.400  11.341  67.161  1.00  0.00    -0.220 A  
HETATM   15  C   UNL     1     -10.558  10.218  67.122  1.00  0.00    -0.320 A  
HETATM   16  C   UNL     1      -9.622  10.920  65.015  1.00  0.00    -0.299 A  
HETATM   17  C   UNL     1      -9.667  10.017  66.070  1.00  0.00    -0.301 A  
HETATM   18  C   UNL     1     -10.501  12.002  64.997  1.00  0.00    -0.327 A  
HETATM   19  C   UNL     1     -11.413  12.209  66.051  1.00  0.00    -0.427 A  
HETATM   20  C   UNL     1     -12.363  13.372  65.953  1.00  0.00    -0.493 C  
ENDBRANCH  13  14
ENDBRANCH   6  13
ENDBRANCH   5   6
ENDBRANCH   4   5
ENDBRANCH   2   4
TORSDOF 6
ENDMDL
MODEL       49
REMARK 921   NORMALIZED FREE ENERGY PREDICTED BY IDOCK:   -5.28 KCAL/MOL
REMARK 922        TOTAL FREE ENERGY PREDICTED BY IDOCK:   -7.91 KCAL/MOL
REMARK 923 INTER-LIGAND FREE ENERGY PREDICTED BY IDOCK:   -7.18 KCAL/MOL
REMARK 924 INTRA-LIGAND FREE ENERGY PREDICTED BY IDOCK:   -0.73 KCAL/MOL
REMARK 927      BINDING AFFINITY PREDICTED BY RF-SCORE:    0.00 PKD
ROOT
HETATM    1  C   UNL     1     -11.784  15.962  69.432  1.00  0.00    -0.343 C  
HETATM    2  N   UNL     1     -12.265  14.613  69.173  1.00  0.00    -0.549 NA 
HETATM    3  H   UNL     1     -13.272  14.545  69.320  1.00  0.00     0.000 HD 
ENDROOT
BRANCH   2   4
HETATM    4  C   UNL     1     -11.890  14.142  67.835  1.00  0.00    -0.370 C  
BRANCH   4   5
HETATM    5  C   UNL     1     -10.758  15.028  67.310  1.00  0.00    -0.298 C  
BRANCH   5   6
HETATM    6  C   UNL     1     -10.906  15.394  65.820  1.00  0.00    -0.343 C  
BRANCH   6   7
HETATM    7  C   UNL     1     -11.079  14.114  65.009  1.00  0.00    -0.372 A  
HETATM    8  C   UNL     1     -11.303  11.781  63.456  1.00  0.00    -0.496 A  
HETATM    9  C   UNL     1     -12.166  13.935  64.139  1.00  0.00    -0.436 A  
HETATM   10  C   UNL     1     -10.101  13.107  65.077  1.00  0.00    -0.240 A  
HETATM   11  C   UNL     1     -12.279  12.774  63.373  1.00  0.00    -0.594 A  
HETATM   12  C   UNL     1     -10.214  11.948  64.308  1.00  0.00    -0.346 A  
ENDBRANCH   6   7
BRANCH   6  13
HETATM   13  O   UNL     1      -9.777  16.171  65.369  1.00  0.00    -0.453 OA 
BRANCH  13  14
HETATM   14  C   UNL     1      -9.599  17.389  65.982  1.00  0.00    -0.118 A  
HETATM   15  C   UNL     1     -10.581  18.392  65.980  1.00  0.00    -0.339 A  
HETATM   16  C   UNL     1      -9.125  19.899  67.171  1.00  0.00    -0.443 A  
HETATM   17  C   UNL     1     -10.342  19.639  66.553  1.00  0.00    -0.601 A  
HETATM   18  C   UNL     1      -8.164  18.891  67.249  1.00  0.00    -0.287 A  
HETATM   19  C   UNL     1      -8.399  17.624  66.683  1.00  0.00    -0.288 A  
HETATM   20  C   UNL     1      -7.339  16.567  66.835  1.00  0.00    -0.260 C  
ENDBRANCH  13  14
ENDBRANCH   6  13
ENDBRANCH   5   6
ENDBRANCH   4   5
ENDBRANCH   2   4
TORSDOF 6
ENDMDL
MODEL       50
REMARK 921   NORMALIZED FREE ENERGY PREDICTED BY IDOCK:   -5.25 KCAL/MOL
REMARK 922        TOTAL FREE ENERGY PREDICTED BY IDOCK:   -7.87 KCAL/MOL
REMARK 923 INTER-LIGAND FREE ENERGY PREDICTED BY IDOCK:   -6.69 KCAL/MOL
REMARK 924 INTRA-LIGAND FREE ENERGY PREDICTED BY IDOCK:   -1.18 KCAL/MOL
REMARK 927      BINDING AFFINITY PREDICTED BY RF-SCORE:    0.00 PKD
ROOT
HETATM    1  C   UNL     1     -13.806  13.287  72.261  1.00  0.00    -0.539 C  
HETATM    2  N   UNL     1     -13.840  14.738  72.364  1.00  0.00    -0.454 NA 
HETATM    3  H   UNL     1     -13.252  15.067  73.130  1.00  0.00     0.000 HD 
ENDROOT
BRANCH   2   4
HETATM    4  C   UNL     1     -13.480  15.389  71.100  1.00  0.00    -0.493 C  
BRANCH   4   5
HETATM    5  C   UNL     1     -12.423  14.533  70.398  1.00  0.00    -0.407 C  
BRANCH   5   6
HETATM    6  C   UNL     1     -11.880  15.168  69.103  1.00  0.00    -0.313 C  
BRANCH   6   7
HETATM    7  C   UNL     1     -11.885  14.120  67.995  1.00  0.00    -0.400 A  
HETATM    8  C   UNL     1     -11.784  12.180  65.964  1.00  0.00    -0.388 A  
HETATM    9  C   UNL     1     -12.238  14.446  66.676  1.00  0.00    -0.340 A  
HETATM   10  C   UNL     1     -11.470  12.806  68.274  1.00  0.00    -0.354 A  
HETATM   11  C   UNL     1     -12.192  13.480  65.669  1.00  0.00    -0.500 A  
HETATM   12  C   UNL     1     -11.422  11.843  67.265  1.00  0.00    -0.385 A  
ENDBRANCH   6   7
BRANCH   6  13
HETATM   13  O   UNL     1     -10.564  15.721  69.318  1.00  0.00    -0.211 OA 
BRANCH  13  14
HETATM   14  C   UNL     1     -10.166  16.693  68.432  1.00  0.00    -0.284 A  
HETATM   15  C   UNL     1     -10.734  17.976  68.405  1.00  0.00    -0.132 A  
HETATM   16  C   UNL     1      -9.370  18.604  66.520  1.00  0.00    -0.323 A  
HETATM   17  C   UNL     1     -10.353  18.916  67.449  1.00  0.00    -0.496 A  
HETATM   18  C   UNL     1      -8.740  17.361  66.576  1.00  0.00    -0.290 A  
HETATM   19  C   UNL     1      -9.110  16.407  67.544  1.00  0.00    -0.196 A  
HETATM   20  C   UNL     1      -8.365  15.100  67.577  1.00  0.00    -0.188 C  
ENDBRANCH  13  14
ENDBRANCH   6  13
ENDBRANCH   5   6
ENDBRANCH   4   5
ENDBRANCH   2   4
TORSDOF 6
ENDMDL
MODEL       51
REMARK 921   NORMALIZED FREE ENERGY PREDICTED BY IDOCK:   -5.25 KCAL/MOL
REMARK 922        TOTAL FREE ENERGY PREDICTED BY IDOCK:   -7.87 KCAL/MOL
REMARK 923 INTER-LIGAND FREE ENERGY PREDICTED BY IDOCK:   -6.98 KCAL/MOL
REMARK 924 INTRA-LIGAND FREE ENERGY PREDICTED BY IDOCK:   -0.89 KCAL/MOL
REMARK 927      BINDING AFFINITY PREDICTED BY RF-SCORE:    0.00 PKD
ROOT
HETATM    1  C   UNL     1     -12.485  13.592  70.980  1.00  0.00    -0.377 C  
HETATM    2  N   UNL     1     -11.718  12.627  70.206  1.00  0.00    -0.552 NA 
HETATM    3  H   UNL     1     -12.298  11.838  69.921  1.00  0.00     0.000 HD 
ENDROOT
BRANCH   2   4
HETATM    4  C   UNL     1     -11.057  13.247  69.052  1.00  0.00    -0.244 C  
BRANCH   4   5
HETATM    5  C   UNL     1     -12.127  13.608  68.019  1.00  0.00    -0.309 C  
BRANCH   5   6
HETATM    6  C   UNL     1     -11.589  14.451  66.846  1.00  0.00    -0.388 C  
BRANCH   6   7
HETATM    7  C   UNL     1     -11.357  13.541  65.645  1.00  0.00    -0.312 A  
HETATM    8  C   UNL     1     -11.022  11.804  63.460  1.00  0.00    -0.499 A  
HETATM    9  C   UNL     1     -10.216  12.731  65.544  1.00  0.00    -0.293 A  
HETATM   10  C   UNL     1     -12.332  13.457  64.635  1.00  0.00    -0.433 A  
HETATM   11  C   UNL     1     -10.049  11.872  64.456  1.00  0.00    -0.302 A  
HETATM   12  C   UNL     1     -12.164  12.596  63.550  1.00  0.00    -0.638 A  
ENDBRANCH   6   7
BRANCH   6  13
HETATM   13  O   UNL     1     -10.389  15.155  67.231  1.00  0.00    -0.254 OA 
BRANCH  13  14
HETATM   14  C   UNL     1     -10.430  16.524  67.118  1.00  0.00    -0.300 A  
HETATM   15  C   UNL     1     -10.414  17.186  65.881  1.00  0.00    -0.265 A  
HETATM   16  C   UNL     1     -10.412  19.338  66.967  1.00  0.00    -0.556 A  
HETATM   17  C   UNL     1     -10.389  18.577  65.805  1.00  0.00    -0.224 A  
HETATM   18  C   UNL     1     -10.503  18.701  68.204  1.00  0.00    -0.361 A  
HETATM   19  C   UNL     1     -10.540  17.296  68.292  1.00  0.00    -0.383 A  
HETATM   20  C   UNL     1     -10.678  16.670  69.654  1.00  0.00    -0.286 C  
ENDBRANCH  13  14
ENDBRANCH   6  13
ENDBRANCH   5   6
ENDBRANCH   4   5
ENDBRANCH   2   4
TORSDOF 6
ENDMDL
MODEL       52
REMARK 921   NORMALIZED FREE ENERGY PREDICTED BY IDOCK:   -5.24 KCAL/MOL
REMARK 922        TOTAL FREE ENERGY PREDICTED BY IDOCK:   -7.86 KCAL/MOL
REMARK 923 INTER-LIGAND FREE ENERGY PREDICTED BY IDOCK:   -6.71 KCAL/MOL
REMARK 924 INTRA-LIGAND FREE ENERGY PREDICTED BY IDOCK:   -1.16 KCAL/MOL
REMARK 927      BINDING AFFINITY PREDICTED BY RF-SCORE:    0.00 PKD
ROOT
HETATM    1  C   UNL     1     -10.256  11.593  63.620  1.00  0.00    -0.412 C  
HETATM    2  N   UNL     1     -10.762  12.683  64.440  1.00  0.00    -0.334 NA 
HETATM    3  H   UNL     1     -10.821  13.550  63.906  1.00  0.00     0.000 HD 
ENDROOT
BRANCH   2   4
HETATM    4  C   UNL     1     -12.050  12.353  65.062  1.00  0.00    -0.407 C  
BRANCH   4   5
HETATM    5  C   UNL     1     -12.584  13.605  65.763  1.00  0.00    -0.511 C  
BRANCH   5   6
HETATM    6  C   UNL     1     -11.962  13.843  67.153  1.00  0.00    -0.420 C  
BRANCH   6   7
HETATM    7  C   UNL     1     -11.266  15.199  67.162  1.00  0.00    -0.320 A  
HETATM    8  C   UNL     1     -10.082  17.748  67.201  1.00  0.00    -0.338 A  
HETATM    9  C   UNL     1     -10.687  15.737  66.002  1.00  0.00    -0.311 A  
HETATM   10  C   UNL     1     -11.250  15.968  68.338  1.00  0.00    -0.364 A  
HETATM   11  C   UNL     1     -10.094  17.001  66.024  1.00  0.00    -0.318 A  
HETATM   12  C   UNL     1     -10.660  17.233  68.358  1.00  0.00    -0.368 A  
ENDBRANCH   6   7
BRANCH   6  13
HETATM   13  O   UNL     1     -11.062  12.770  67.501  1.00  0.00    -0.244 OA 
BRANCH  13  14
HETATM   14  C   UNL     1     -11.396  12.039  68.616  1.00  0.00    -0.277 A  
HETATM   15  C   UNL     1     -12.061  12.596  69.719  1.00  0.00    -0.301 A  
HETATM   16  C   UNL     1     -11.958  10.503  70.910  1.00  0.00    -0.481 A  
HETATM   17  C   UNL     1     -12.325  11.842  70.861  1.00  0.00    -0.420 A  
HETATM   18  C   UNL     1     -11.363   9.911  69.797  1.00  0.00    -0.241 A  
HETATM   19  C   UNL     1     -11.101  10.661  68.634  1.00  0.00    -0.315 A  
HETATM   20  C   UNL     1     -10.494   9.955  67.451  1.00  0.00    -0.325 C  
ENDBRANCH  13  14
ENDBRANCH   6  13
ENDBRANCH   5   6
ENDBRANCH   4   5
ENDBRANCH   2   4
TORSDOF 6
ENDMDL
MODEL       53
REMARK 921   NORMALIZED FREE ENERGY PREDICTED BY IDOCK:   -5.24 KCAL/MOL
REMARK 922        TOTAL FREE ENERGY PREDICTED BY IDOCK:   -7.86 KCAL/MOL
REMARK 923 INTER-LIGAND FREE ENERGY PREDICTED BY IDOCK:   -7.12 KCAL/MOL
REMARK 924 INTRA-LIGAND FREE ENERGY PREDICTED BY IDOCK:   -0.75 KCAL/MOL
REMARK 927      BINDING AFFINITY PREDICTED BY RF-SCORE:    0.00 PKD
ROOT
HETATM    1  C   UNL     1     -12.447   9.724  71.532  1.00  0.00    -0.403 C  
HETATM    2  N   UNL     1     -12.782  10.189  70.194  1.00  0.00    -0.556 NA 
HETATM    3  H   UNL     1     -13.759  10.473  70.135  1.00  0.00     0.000 HD 
ENDROOT
BRANCH   2   4
HETATM    4  C   UNL     1     -11.888  11.263  69.744  1.00  0.00    -0.364 C  
BRANCH   4   5
HETATM    5  C   UNL     1     -11.658  11.102  68.239  1.00  0.00    -0.359 C  
BRANCH   5   6
HETATM    6  C   UNL     1     -11.549  12.443  67.488  1.00  0.00    -0.365 C  
BRANCH   6   7
HETATM    7  C   UNL     1     -11.497  12.171  65.989  1.00  0.00    -0.427 A  
HETATM    8  C   UNL     1     -11.499  11.611  63.234  1.00  0.00    -0.266 A  
HETATM    9  C   UNL     1     -10.478  11.396  65.416  1.00  0.00    -0.336 A  
HETATM   10  C   UNL     1     -12.524  12.651  65.157  1.00  0.00    -0.531 A  
HETATM   11  C   UNL     1     -10.477  11.123  64.047  1.00  0.00    -0.447 A  
HETATM   12  C   UNL     1     -12.523  12.375  63.789  1.00  0.00    -0.593 A  
ENDBRANCH   6   7
BRANCH   6  13
HETATM   13  O   UNL     1     -10.401  13.191  67.942  1.00  0.00    -0.221 OA 
BRANCH  13  14
HETATM   14  C   UNL     1     -10.342  14.505  67.545  1.00  0.00    -0.244 A  
HETATM   15  C   UNL     1      -9.690  14.917  66.372  1.00  0.00    -0.306 A  
HETATM   16  C   UNL     1     -10.172  17.230  66.847  1.00  0.00    -0.322 A  
HETATM   17  C   UNL     1      -9.592  16.265  66.034  1.00  0.00    -0.371 A  
HETATM   18  C   UNL     1     -10.887  16.838  67.978  1.00  0.00    -0.341 A  
HETATM   19  C   UNL     1     -11.003  15.477  68.323  1.00  0.00    -0.305 A  
HETATM   20  C   UNL     1     -11.821  15.115  69.533  1.00  0.00    -0.358 C  
ENDBRANCH  13  14
ENDBRANCH   6  13
ENDBRANCH   5   6
ENDBRANCH   4   5
ENDBRANCH   2   4
TORSDOF 6
ENDMDL
MODEL       54
REMARK 921   NORMALIZED FREE ENERGY PREDICTED BY IDOCK:   -5.24 KCAL/MOL
REMARK 922        TOTAL FREE ENERGY PREDICTED BY IDOCK:   -7.86 KCAL/MOL
REMARK 923 INTER-LIGAND FREE ENERGY PREDICTED BY IDOCK:   -7.05 KCAL/MOL
REMARK 924 INTRA-LIGAND FREE ENERGY PREDICTED BY IDOCK:   -0.81 KCAL/MOL
REMARK 927      BINDING AFFINITY PREDICTED BY RF-SCORE:    0.00 PKD
ROOT
HETATM    1  C   UNL     1     -11.950  16.142  72.648  1.00  0.00    -0.551 C  
HETATM    2  N   UNL     1     -12.175  16.296  71.218  1.00  0.00    -0.541 NA 
HETATM    3  H   UNL     1     -12.038  17.264  70.925  1.00  0.00     0.000 HD 
ENDROOT
BRANCH   2   4
HETATM    4  C   UNL     1     -11.346  15.379  70.427  1.00  0.00    -0.327 C  
BRANCH   4   5
HETATM    5  C   UNL     1     -12.271  14.447  69.641  1.00  0.00    -0.353 C  
BRANCH   5   6
HETATM    6  C   UNL     1     -11.516  13.450  68.740  1.00  0.00    -0.305 C  
BRANCH   6   7
HETATM    7  C   UNL     1     -11.520  13.973  67.307  1.00  0.00    -0.372 A  
HETATM    8  C   UNL     1     -11.564  15.037  64.706  1.00  0.00    -0.395 A  
HETATM    9  C   UNL     1     -12.384  13.448  66.334  1.00  0.00    -0.381 A  
HETATM   10  C   UNL     1     -10.687  15.050  66.955  1.00  0.00    -0.308 A  
HETATM   11  C   UNL     1     -12.400  13.974  65.041  1.00  0.00    -0.458 A  
HETATM   12  C   UNL     1     -10.707  15.575  65.662  1.00  0.00    -0.378 A  
ENDBRANCH   6   7
BRANCH   6  13
HETATM   13  O   UNL     1     -12.096  12.133  68.836  1.00  0.00    -0.267 OA 
BRANCH  13  14
HETATM   14  C   UNL     1     -11.338  11.184  69.478  1.00  0.00    -0.290 A  
HETATM   15  C   UNL     1     -10.115  10.718  68.972  1.00  0.00    -0.225 A  
HETATM   16  C   UNL     1      -9.885   9.163  70.799  1.00  0.00    -0.334 A  
HETATM   17  C   UNL     1      -9.403   9.707  69.615  1.00  0.00    -0.226 A  
HETATM   18  C   UNL     1     -11.060   9.663  71.358  1.00  0.00    -0.397 A  
HETATM   19  C   UNL     1     -11.781  10.692  70.722  1.00  0.00    -0.435 A  
HETATM   20  C   UNL     1     -13.020  11.216  71.397  1.00  0.00    -0.506 C  
ENDBRANCH  13  14
ENDBRANCH   6  13
ENDBRANCH   5   6
ENDBRANCH   4   5
ENDBRANCH   2   4
TORSDOF 6
ENDMDL
MODEL       55
REMARK 921   NORMALIZED FREE ENERGY PREDICTED BY IDOCK:   -5.23 KCAL/MOL
REMARK 922        TOTAL FREE ENERGY PREDICTED BY IDOCK:   -7.84 KCAL/MOL
REMARK 923 INTER-LIGAND FREE ENERGY PREDICTED BY IDOCK:   -7.26 KCAL/MOL
REMARK 924 INTRA-LIGAND FREE ENERGY PREDICTED BY IDOCK:   -0.58 KCAL/MOL
REMARK 927      BINDING AFFINITY PREDICTED BY RF-SCORE:    0.00 PKD
ROOT
HETATM    1  C   UNL     1     -14.223   7.269  71.749  1.00  0.00    -0.377 C  
HETATM    2  N   UNL     1     -13.564   8.492  72.184  1.00  0.00    -0.464 NA 
HETATM    3  H   UNL     1     -12.676   8.290  72.643  1.00  0.00     0.000 HD 
ENDROOT
BRANCH   2   4
HETATM    4  C   UNL     1     -13.389   9.446  71.082  1.00  0.00    -0.215 C  
BRANCH   4   5
HETATM    5  C   UNL     1     -12.216  10.368  71.423  1.00  0.00    -0.461 C  
BRANCH   5   6
HETATM    6  C   UNL     1     -11.957  11.451  70.358  1.00  0.00    -0.374 C  
BRANCH   6   7
HETATM    7  C   UNL     1     -12.542  12.774  70.841  1.00  0.00    -0.342 A  
HETATM    8  C   UNL     1     -13.514  15.250  71.750  1.00  0.00    -0.558 A  
HETATM    9  C   UNL     1     -13.327  12.852  72.001  1.00  0.00    -0.579 A  
HETATM   10  C   UNL     1     -12.243  13.963  70.152  1.00  0.00    -0.425 A  
HETATM   11  C   UNL     1     -13.814  14.082  72.449  1.00  0.00    -0.653 A  
HETATM   12  C   UNL     1     -12.728  15.191  70.602  1.00  0.00    -0.451 A  
ENDBRANCH   6   7
BRANCH   6  13
HETATM   13  O   UNL     1     -12.500  11.054  69.081  1.00  0.00    -0.432 OA 
BRANCH  13  14
HETATM   14  C   UNL     1     -11.660  11.179  68.002  1.00  0.00    -0.263 A  
HETATM   15  C   UNL     1     -11.537  12.369  67.268  1.00  0.00    -0.435 A  
HETATM   16  C   UNL     1      -9.991  11.332  65.736  1.00  0.00    -0.281 A  
HETATM   17  C   UNL     1     -10.724  12.442  66.138  1.00  0.00    -0.292 A  
HETATM   18  C   UNL     1     -10.042  10.163  66.494  1.00  0.00    -0.296 A  
HETATM   19  C   UNL     1     -10.851  10.082  67.644  1.00  0.00    -0.336 A  
HETATM   20  C   UNL     1     -10.831   8.806  68.441  1.00  0.00    -0.019 C  
ENDBRANCH  13  14
ENDBRANCH   6  13
ENDBRANCH   5   6
ENDBRANCH   4   5
ENDBRANCH   2   4
TORSDOF 6
ENDMDL
MODEL       56
REMARK 921   NORMALIZED FREE ENERGY PREDICTED BY IDOCK:   -5.21 KCAL/MOL
REMARK 922        TOTAL FREE ENERGY PREDICTED BY IDOCK:   -7.82 KCAL/MOL
REMARK 923 INTER-LIGAND FREE ENERGY PREDICTED BY IDOCK:   -6.72 KCAL/MOL
REMARK 924 INTRA-LIGAND FREE ENERGY PREDICTED BY IDOCK:   -1.10 KCAL/MOL
REMARK 927      BINDING AFFINITY PREDICTED BY RF-SCORE:    0.00 PKD
ROOT
HETATM    1  C   UNL     1     -13.277   9.689  71.400  1.00  0.00    -0.389 C  
HETATM    2  N   UNL     1     -12.219   9.740  70.402  1.00  0.00    -0.470 NA 
HETATM    3  H   UNL     1     -12.385   9.068  69.653  1.00  0.00     0.000 HD 
ENDROOT
BRANCH   2   4
HETATM    4  C   UNL     1     -12.030  11.094  69.868  1.00  0.00    -0.363 C  
BRANCH   4   5
HETATM    5  C   UNL     1     -11.700  10.985  68.377  1.00  0.00    -0.329 C  
BRANCH   5   6
HETATM    6  C   UNL     1     -11.476  12.349  67.697  1.00  0.00    -0.337 C  
BRANCH   6   7
HETATM    7  C   UNL     1     -11.377  12.143  66.189  1.00  0.00    -0.414 A  
HETATM    8  C   UNL     1     -11.303  11.726  63.411  1.00  0.00    -0.437 A  
HETATM    9  C   UNL     1     -10.505  11.197  65.632  1.00  0.00    -0.308 A  
HETATM   10  C   UNL     1     -12.221  12.868  65.329  1.00  0.00    -0.524 A  
HETATM   11  C   UNL     1     -10.465  10.994  64.250  1.00  0.00    -0.427 A  
HETATM   12  C   UNL     1     -12.181  12.662  63.949  1.00  0.00    -0.565 A  
ENDBRANCH   6   7
BRANCH   6  13
HETATM   13  O   UNL     1     -10.305  13.001  68.232  1.00  0.00    -0.239 OA 
BRANCH  13  14
HETATM   14  C   UNL     1     -10.432  14.342  68.504  1.00  0.00    -0.254 A  
HETATM   15  C   UNL     1     -11.064  14.827  69.660  1.00  0.00    -0.299 A  
HETATM   16  C   UNL     1     -10.746  17.107  68.946  1.00  0.00    -0.257 A  
HETATM   17  C   UNL     1     -11.234  16.194  69.872  1.00  0.00    -0.349 A  
HETATM   18  C   UNL     1     -10.051  16.649  67.828  1.00  0.00    -0.275 A  
HETATM   19  C   UNL     1      -9.863  15.271  67.609  1.00  0.00    -0.217 A  
HETATM   20  C   UNL     1      -9.069  14.841  66.405  1.00  0.00    -0.267 C  
ENDBRANCH  13  14
ENDBRANCH   6  13
ENDBRANCH   5   6
ENDBRANCH   4   5
ENDBRANCH   2   4
TORSDOF 6
ENDMDL
MODEL       57
REMARK 921   NORMALIZED FREE ENERGY PREDICTED BY IDOCK:   -5.17 KCAL/MOL
REMARK 922        TOTAL FREE ENERGY PREDICTED BY IDOCK:   -7.76 KCAL/MOL
REMARK 923 INTER-LIGAND FREE ENERGY PREDICTED BY IDOCK:   -6.73 KCAL/MOL
REMARK 924 INTRA-LIGAND FREE ENERGY PREDICTED BY IDOCK:   -1.03 KCAL/MOL
REMARK 927      BINDING AFFINITY PREDICTED BY RF-SCORE:    0.00 PKD
ROOT
HETATM    1  C   UNL     1      -7.939   9.238  69.481  1.00  0.00    -0.098 C  
HETATM    2  N   UNL     1      -8.953  10.170  69.951  1.00  0.00    -0.387 NA 
HETATM    3  H   UNL     1      -9.331  10.724  69.182  1.00  0.00     0.000 HD 
ENDROOT
BRANCH   2   4
HETATM    4  C   UNL     1     -10.022   9.494  70.694  1.00  0.00    -0.276 C  
BRANCH   4   5
HETATM    5  C   UNL     1     -11.357   9.805  70.012  1.00  0.00    -0.269 C  
BRANCH   5   6
HETATM    6  C   UNL     1     -11.359  11.143  69.248  1.00  0.00    -0.281 C  
BRANCH   6   7
HETATM    7  C   UNL     1     -12.042  12.204  70.104  1.00  0.00    -0.368 A  
HETATM    8  C   UNL     1     -13.199  14.196  71.714  1.00  0.00    -0.450 A  
HETATM    9  C   UNL     1     -12.832  11.859  71.211  1.00  0.00    -0.391 A  
HETATM   10  C   UNL     1     -11.832  13.566  69.827  1.00  0.00    -0.395 A  
HETATM   11  C   UNL     1     -13.411  12.850  72.007  1.00  0.00    -0.579 A  
HETATM   12  C   UNL     1     -12.409  14.555  70.625  1.00  0.00    -0.407 A  
ENDBRANCH   6   7
BRANCH   6  13
HETATM   13  O   UNL     1     -11.993  10.996  67.960  1.00  0.00    -0.623 OA 
BRANCH  13  14
HETATM   14  C   UNL     1     -11.150  10.874  66.882  1.00  0.00    -0.167 A  
HETATM   15  C   UNL     1     -10.341   9.746  66.674  1.00  0.00    -0.276 A  
HETATM   16  C   UNL     1      -9.369  10.735  64.703  1.00  0.00    -0.271 A  
HETATM   17  C   UNL     1      -9.448   9.683  65.606  1.00  0.00    -0.318 A  
HETATM   18  C   UNL     1     -10.216  11.833  64.849  1.00  0.00    -0.315 A  
HETATM   19  C   UNL     1     -11.130  11.902  65.918  1.00  0.00    -0.365 A  
HETATM   20  C   UNL     1     -12.045  13.094  65.999  1.00  0.00    -0.495 C  
ENDBRANCH  13  14
ENDBRANCH   6  13
ENDBRANCH   5   6
ENDBRANCH   4   5
ENDBRANCH   2   4
TORSDOF 6
ENDMDL
MODEL       58
REMARK 921   NORMALIZED FREE ENERGY PREDICTED BY IDOCK:   -5.14 KCAL/MOL
REMARK 922        TOTAL FREE ENERGY PREDICTED BY IDOCK:   -7.72 KCAL/MOL
REMARK 923 INTER-LIGAND FREE ENERGY PREDICTED BY IDOCK:   -6.63 KCAL/MOL
REMARK 924 INTRA-LIGAND FREE ENERGY PREDICTED BY IDOCK:   -1.09 KCAL/MOL
REMARK 927      BINDING AFFINITY PREDICTED BY RF-SCORE:    0.00 PKD
ROOT
HETATM    1  C   UNL     1     -10.361   7.271  67.067  1.00  0.00    -0.306 C  
HETATM    2  N   UNL     1     -11.076   8.438  67.561  1.00  0.00    -0.376 NA 
HETATM    3  H   UNL     1     -11.453   8.272  68.494  1.00  0.00     0.000 HD 
ENDROOT
BRANCH   2   4
HETATM    4  C   UNL     1     -10.246   9.648  67.530  1.00  0.00    -0.220 C  
BRANCH   4   5
HETATM    5  C   UNL     1      -9.857  10.005  68.967  1.00  0.00    -0.203 C  
BRANCH   5   6
HETATM    6  C   UNL     1     -10.926  10.835  69.704  1.00  0.00    -0.264 C  
BRANCH   6   7
HETATM    7  C   UNL     1     -11.658   9.936  70.695  1.00  0.00    -0.413 A  
HETATM    8  C   UNL     1     -13.014   8.368  72.594  1.00  0.00    -0.146 A  
HETATM    9  C   UNL     1     -11.023   8.844  71.305  1.00  0.00    -0.363 A  
HETATM   10  C   UNL     1     -12.981  10.235  71.063  1.00  0.00    -0.488 A  
HETATM   11  C   UNL     1     -11.699   8.062  72.244  1.00  0.00    -0.428 A  
HETATM   12  C   UNL     1     -13.654   9.455  72.004  1.00  0.00    -0.505 A  
ENDBRANCH   6   7
BRANCH   6  13
HETATM   13  O   UNL     1     -11.831  11.453  68.765  1.00  0.00    -0.310 OA 
BRANCH  13  14
HETATM   14  C   UNL     1     -11.780  12.824  68.691  1.00  0.00    -0.324 A  
HETATM   15  C   UNL     1     -11.708  13.645  69.827  1.00  0.00    -0.364 A  
HETATM   16  C   UNL     1     -11.782  15.633  68.466  1.00  0.00    -0.339 A  
HETATM   17  C   UNL     1     -11.726  15.034  69.718  1.00  0.00    -0.341 A  
HETATM   18  C   UNL     1     -11.779  14.837  67.322  1.00  0.00    -0.366 A  
HETATM   19  C   UNL     1     -11.751  13.432  67.419  1.00  0.00    -0.415 A  
HETATM   20  C   UNL     1     -11.708  12.629  66.147  1.00  0.00    -0.461 C  
ENDBRANCH  13  14
ENDBRANCH   6  13
ENDBRANCH   5   6
ENDBRANCH   4   5
ENDBRANCH   2   4
TORSDOF 6
ENDMDL
MODEL       59
REMARK 921   NORMALIZED FREE ENERGY PREDICTED BY IDOCK:   -5.12 KCAL/MOL
REMARK 922        TOTAL FREE ENERGY PREDICTED BY IDOCK:   -7.70 KCAL/MOL
REMARK 923 INTER-LIGAND FREE ENERGY PREDICTED BY IDOCK:   -6.86 KCAL/MOL
REMARK 924 INTRA-LIGAND FREE ENERGY PREDICTED BY IDOCK:   -0.84 KCAL/MOL
REMARK 927      BINDING AFFINITY PREDICTED BY RF-SCORE:    0.00 PKD
ROOT
HETATM    1  C   UNL     1     -10.276  19.006  67.007  1.00  0.00    -0.386 C  
HETATM    2  N   UNL     1      -9.637  17.714  67.207  1.00  0.00    -0.266 NA 
HETATM    3  H   UNL     1      -9.035  17.723  68.030  1.00  0.00     0.000 HD 
ENDROOT
BRANCH   2   4
HETATM    4  C   UNL     1     -10.614  16.621  67.274  1.00  0.00    -0.281 C  
BRANCH   4   5
HETATM    5  C   UNL     1     -11.276  16.648  68.654  1.00  0.00    -0.235 C  
BRANCH   5   6
HETATM    6  C   UNL     1     -11.664  15.251  69.176  1.00  0.00    -0.335 C  
BRANCH   6   7
HETATM    7  C   UNL     1     -12.280  15.392  70.564  1.00  0.00    -0.436 A  
HETATM    8  C   UNL     1     -13.357  15.560  73.155  1.00  0.00    -0.632 A  
HETATM    9  C   UNL     1     -13.657  15.234  70.778  1.00  0.00    -0.313 A  
HETATM   10  C   UNL     1     -11.451  15.626  71.676  1.00  0.00    -0.506 A  
HETATM   11  C   UNL     1     -14.192  15.323  72.065  1.00  0.00    -0.679 A  
HETATM   12  C   UNL     1     -11.986  15.711  72.961  1.00  0.00    -0.590 A  
ENDBRANCH   6   7
BRANCH   6  13
HETATM   13  O   UNL     1     -10.521  14.370  69.179  1.00  0.00    -0.238 OA 
BRANCH  13  14
HETATM   14  C   UNL     1     -10.747  13.088  68.739  1.00  0.00    -0.221 A  
HETATM   15  C   UNL     1     -11.728  12.254  69.298  1.00  0.00    -0.388 A  
HETATM   16  C   UNL     1     -11.085  10.434  67.854  1.00  0.00    -0.363 A  
HETATM   17  C   UNL     1     -11.885  10.936  68.873  1.00  0.00    -0.340 A  
HETATM   18  C   UNL     1     -10.155  11.268  67.235  1.00  0.00    -0.214 A  
HETATM   19  C   UNL     1      -9.995  12.604  67.649  1.00  0.00    -0.216 A  
HETATM   20  C   UNL     1      -9.003  13.465  66.914  1.00  0.00    -0.216 C  
ENDBRANCH  13  14
ENDBRANCH   6  13
ENDBRANCH   5   6
ENDBRANCH   4   5
ENDBRANCH   2   4
TORSDOF 6
ENDMDL
MODEL       60
REMARK 921   NORMALIZED FREE ENERGY PREDICTED BY IDOCK:   -5.09 KCAL/MOL
REMARK 922        TOTAL FREE ENERGY PREDICTED BY IDOCK:   -7.65 KCAL/MOL
REMARK 923 INTER-LIGAND FREE ENERGY PREDICTED BY IDOCK:   -7.17 KCAL/MOL
REMARK 924 INTRA-LIGAND FREE ENERGY PREDICTED BY IDOCK:   -0.48 KCAL/MOL
REMARK 927      BINDING AFFINITY PREDICTED BY RF-SCORE:    0.00 PKD
ROOT
HETATM    1  C   UNL     1     -10.018  11.485  66.087  1.00  0.00    -0.224 C  
HETATM    2  N   UNL     1     -10.753  12.180  67.133  1.00  0.00    -0.226 NA 
HETATM    3  H   UNL     1     -11.364  12.897  66.742  1.00  0.00     0.000 HD 
ENDROOT
BRANCH   2   4
HETATM    4  C   UNL     1     -11.502  11.253  67.990  1.00  0.00    -0.298 C  
BRANCH   4   5
HETATM    5  C   UNL     1     -11.081  11.490  69.443  1.00  0.00    -0.287 C  
BRANCH   5   6
HETATM    6  C   UNL     1     -12.254  11.428  70.440  1.00  0.00    -0.362 C  
BRANCH   6   7
HETATM    7  C   UNL     1     -12.628  12.846  70.857  1.00  0.00    -0.355 A  
HETATM    8  C   UNL     1     -13.208  15.481  71.647  1.00  0.00    -0.575 A  
HETATM    9  C   UNL     1     -13.431  13.095  71.980  1.00  0.00    -0.598 A  
HETATM   10  C   UNL     1     -12.112  13.943  70.144  1.00  0.00    -0.418 A  
HETATM   11  C   UNL     1     -13.723  14.405  72.368  1.00  0.00    -0.590 A  
HETATM   12  C   UNL     1     -12.402  15.250  70.535  1.00  0.00    -0.434 A  
ENDBRANCH   6   7
BRANCH   6  13
HETATM   13  O   UNL     1     -11.919  10.601  71.574  1.00  0.00    -0.257 OA 
BRANCH  13  14
HETATM   14  C   UNL     1     -11.782   9.257  71.322  1.00  0.00    -0.346 A  
HETATM   15  C   UNL     1     -10.595   8.692  70.833  1.00  0.00    -0.265 A  
HETATM   16  C   UNL     1     -11.608   6.507  70.733  1.00  0.00    -0.437 A  
HETATM   17  C   UNL     1     -10.512   7.335  70.525  1.00  0.00    -0.229 A  
HETATM   18  C   UNL     1     -12.773   7.034  71.288  1.00  0.00    -0.400 A  
HETATM   19  C   UNL     1     -12.864   8.402  71.612  1.00  0.00    -0.355 A  
HETATM   20  C   UNL     1     -14.135   8.901  72.246  1.00  0.00    -0.512 C  
ENDBRANCH  13  14
ENDBRANCH   6  13
ENDBRANCH   5   6
ENDBRANCH   4   5
ENDBRANCH   2   4
TORSDOF 6
ENDMDL
MODEL       61
REMARK 921   NORMALIZED FREE ENERGY PREDICTED BY IDOCK:   -5.08 KCAL/MOL
REMARK 922        TOTAL FREE ENERGY PREDICTED BY IDOCK:   -7.64 KCAL/MOL
REMARK 923 INTER-LIGAND FREE ENERGY PREDICTED BY IDOCK:   -6.86 KCAL/MOL
REMARK 924 INTRA-LIGAND FREE ENERGY PREDICTED BY IDOCK:   -0.77 KCAL/MOL
REMARK 927      BINDING AFFINITY PREDICTED BY RF-SCORE:    0.00 PKD
ROOT
HETATM    1  C   UNL     1      -7.260  13.620  67.671  1.00  0.00    -0.170 C  
HETATM    2  N   UNL     1      -8.248  13.830  68.719  1.00  0.00    -0.320 NA 
HETATM    3  H   UNL     1      -8.148  13.139  69.463  1.00  0.00     0.000 HD 
ENDROOT
BRANCH   2   4
HETATM    4  C   UNL     1      -8.204  15.196  69.253  1.00  0.00    -0.216 C  
BRANCH   4   5
HETATM    5  C   UNL     1      -9.616  15.785  69.191  1.00  0.00    -0.255 C  
BRANCH   5   6
HETATM    6  C   UNL     1     -10.091  16.090  67.757  1.00  0.00    -0.243 C  
BRANCH   6   7
HETATM    7  C   UNL     1     -10.146  17.601  67.562  1.00  0.00    -0.337 A  
HETATM    8  C   UNL     1     -10.158  20.380  67.137  1.00  0.00    -0.502 A  
HETATM    9  C   UNL     1      -9.945  18.489  68.630  1.00  0.00    -0.419 A  
HETATM   10  C   UNL     1     -10.342  18.133  66.275  1.00  0.00    -0.407 A  
HETATM   11  C   UNL     1      -9.956  19.869  68.418  1.00  0.00    -0.531 A  
HETATM   12  C   UNL     1     -10.350  19.512  66.065  1.00  0.00    -0.604 A  
ENDBRANCH   6   7
BRANCH   6  13
HETATM   13  O   UNL     1     -11.364  15.463  67.495  1.00  0.00    -0.328 OA 
BRANCH  13  14
HETATM   14  C   UNL     1     -11.363  14.090  67.450  1.00  0.00    -0.329 A  
HETATM   15  C   UNL     1     -11.839  13.294  68.503  1.00  0.00    -0.384 A  
HETATM   16  C   UNL     1     -11.236  11.278  67.327  1.00  0.00    -0.364 A  
HETATM   17  C   UNL     1     -11.761  11.903  68.450  1.00  0.00    -0.387 A  
HETATM   18  C   UNL     1     -10.826  12.048  66.239  1.00  0.00    -0.316 A  
HETATM   19  C   UNL     1     -10.909  13.453  66.277  1.00  0.00    -0.294 A  
HETATM   20  C   UNL     1     -10.488  14.225  65.056  1.00  0.00    -0.458 C  
ENDBRANCH  13  14
ENDBRANCH   6  13
ENDBRANCH   5   6
ENDBRANCH   4   5
ENDBRANCH   2   4
TORSDOF 6
ENDMDL
MODEL       62
REMARK 921   NORMALIZED FREE ENERGY PREDICTED BY IDOCK:   -5.06 KCAL/MOL
REMARK 922        TOTAL FREE ENERGY PREDICTED BY IDOCK:   -7.61 KCAL/MOL
REMARK 923 INTER-LIGAND FREE ENERGY PREDICTED BY IDOCK:   -7.23 KCAL/MOL
REMARK 924 INTRA-LIGAND FREE ENERGY PREDICTED BY IDOCK:   -0.37 KCAL/MOL
REMARK 927      BINDING AFFINITY PREDICTED BY RF-SCORE:    0.00 PKD
ROOT
HETATM    1  C   UNL     1     -12.502   9.596  71.653  1.00  0.00    -0.407 C  
HETATM    2  N   UNL     1     -12.787  10.191  70.355  1.00  0.00    -0.566 NA 
HETATM    3  H   UNL     1     -13.662  10.715  70.373  1.00  0.00     0.000 HD 
ENDROOT
BRANCH   2   4
HETATM    4  C   UNL     1     -11.678  11.024  69.876  1.00  0.00    -0.346 C  
BRANCH   4   5
HETATM    5  C   UNL     1     -12.251  12.356  69.383  1.00  0.00    -0.121 C  
BRANCH   5   6
HETATM    6  C   UNL     1     -11.383  13.573  69.756  1.00  0.00    -0.091 C  
BRANCH   6   7
HETATM    7  C   UNL     1     -12.018  14.292  70.942  1.00  0.00    -0.389 A  
HETATM    8  C   UNL     1     -13.279  15.636  73.064  1.00  0.00    -0.664 A  
HETATM    9  C   UNL     1     -11.481  15.483  71.453  1.00  0.00    -0.478 A  
HETATM   10  C   UNL     1     -13.205  13.793  71.507  1.00  0.00    -0.417 A  
HETATM   11  C   UNL     1     -12.106  16.147  72.511  1.00  0.00    -0.644 A  
HETATM   12  C   UNL     1     -13.829  14.460  72.562  1.00  0.00    -0.559 A  
ENDBRANCH   6   7
BRANCH   6  13
HETATM   13  O   UNL     1     -11.213  14.448  68.621  1.00  0.00    -0.236 OA 
BRANCH  13  14
HETATM   14  C   UNL     1     -11.204  13.842  67.388  1.00  0.00    -0.312 A  
HETATM   15  C   UNL     1     -12.325  13.817  66.544  1.00  0.00    -0.432 A  
HETATM   16  C   UNL     1     -11.140  12.492  64.915  1.00  0.00    -0.336 A  
HETATM   17  C   UNL     1     -12.300  13.136  65.328  1.00  0.00    -0.532 A  
HETATM   18  C   UNL     1      -9.993  12.568  65.704  1.00  0.00    -0.259 A  
HETATM   19  C   UNL     1     -10.004  13.262  66.929  1.00  0.00    -0.250 A  
HETATM   20  C   UNL     1      -8.723  13.341  67.715  1.00  0.00    -0.194 C  
ENDBRANCH  13  14
ENDBRANCH   6  13
ENDBRANCH   5   6
ENDBRANCH   4   5
ENDBRANCH   2   4
TORSDOF 6
ENDMDL
MODEL       63
REMARK 921   NORMALIZED FREE ENERGY PREDICTED BY IDOCK:   -5.05 KCAL/MOL
REMARK 922        TOTAL FREE ENERGY PREDICTED BY IDOCK:   -7.60 KCAL/MOL
REMARK 923 INTER-LIGAND FREE ENERGY PREDICTED BY IDOCK:   -6.62 KCAL/MOL
REMARK 924 INTRA-LIGAND FREE ENERGY PREDICTED BY IDOCK:   -0.97 KCAL/MOL
REMARK 927      BINDING AFFINITY PREDICTED BY RF-SCORE:    0.00 PKD
ROOT
HETATM    1  C   UNL     1     -12.065  12.770  63.364  1.00  0.00    -0.534 C  
HETATM    2  N   UNL     1     -12.357  14.188  63.521  1.00  0.00    -1.127 NA 
HETATM    3  H   UNL     1     -13.288  14.414  63.173  1.00  0.00     0.000 HD 
ENDROOT
BRANCH   2   4
HETATM    4  C   UNL     1     -12.184  14.637  64.907  1.00  0.00    -0.357 C  
BRANCH   4   5
HETATM    5  C   UNL     1     -11.302  15.888  64.904  1.00  0.00    -0.259 C  
BRANCH   5   6
HETATM    6  C   UNL     1     -10.360  15.978  66.120  1.00  0.00    -0.328 C  
BRANCH   6   7
HETATM    7  C   UNL     1     -10.389  17.401  66.668  1.00  0.00    -0.306 A  
HETATM    8  C   UNL     1     -10.348  20.046  67.618  1.00  0.00    -0.510 A  
HETATM    9  C   UNL     1     -10.219  17.667  68.035  1.00  0.00    -0.362 A  
HETATM   10  C   UNL     1     -10.526  18.486  65.784  1.00  0.00    -0.277 A  
HETATM   11  C   UNL     1     -10.204  18.981  68.506  1.00  0.00    -0.422 A  
HETATM   12  C   UNL     1     -10.508  19.799  66.257  1.00  0.00    -0.614 A  
ENDBRANCH   6   7
BRANCH   6  13
HETATM   13  O   UNL     1      -9.024  15.562  65.766  1.00  0.00    -0.235 OA 
BRANCH  13  14
HETATM   14  C   UNL     1      -8.136  15.434  66.806  1.00  0.00    -0.177 A  
HETATM   15  C   UNL     1      -8.161  14.352  67.699  1.00  0.00    -0.188 A  
HETATM   16  C   UNL     1      -6.345  15.291  68.977  1.00  0.00    -0.108 A  
HETATM   17  C   UNL     1      -7.287  14.288  68.783  1.00  0.00    -0.131 A  
HETATM   18  C   UNL     1      -6.254  16.337  68.059  1.00  0.00    -0.135 A  
HETATM   19  C   UNL     1      -7.125  16.406  66.954  1.00  0.00    -0.256 A  
HETATM   20  C   UNL     1      -6.950  17.537  65.977  1.00  0.00    -0.296 C  
ENDBRANCH  13  14
ENDBRANCH   6  13
ENDBRANCH   5   6
ENDBRANCH   4   5
ENDBRANCH   2   4
TORSDOF 6
ENDMDL
MODEL       64
REMARK 921   NORMALIZED FREE ENERGY PREDICTED BY IDOCK:   -5.03 KCAL/MOL
REMARK 922        TOTAL FREE ENERGY PREDICTED BY IDOCK:   -7.58 KCAL/MOL
REMARK 923 INTER-LIGAND FREE ENERGY PREDICTED BY IDOCK:   -6.87 KCAL/MOL
REMARK 924 INTRA-LIGAND FREE ENERGY PREDICTED BY IDOCK:   -0.71 KCAL/MOL
REMARK 927      BINDING AFFINITY PREDICTED BY RF-SCORE:    0.00 PKD
ROOT
HETATM    1  C   UNL     1     -13.936  15.328  72.427  1.00  0.00    -0.543 C  
HETATM    2  N   UNL     1     -13.986  13.886  72.617  1.00  0.00    -0.713 NA 
HETATM    3  H   UNL     1     -14.926  13.525  72.454  1.00  0.00     0.000 HD 
ENDROOT
BRANCH   2   4
HETATM    4  C   UNL     1     -12.997  13.186  71.789  1.00  0.00    -0.338 C  
BRANCH   4   5
HETATM    5  C   UNL     1     -13.252  11.681  71.900  1.00  0.00    -0.475 C  
BRANCH   5   6
HETATM    6  C   UNL     1     -12.614  10.865  70.759  1.00  0.00    -0.377 C  
BRANCH   6   7
HETATM    7  C   UNL     1     -12.281   9.468  71.272  1.00  0.00    -0.433 A  
HETATM    8  C   UNL     1     -11.585   6.887  72.141  1.00  0.00    -0.322 A  
HETATM    9  C   UNL     1     -13.188   8.404  71.153  1.00  0.00    -0.035 A  
HETATM   10  C   UNL     1     -11.014   9.211  71.825  1.00  0.00    -0.429 A  
HETATM   11  C   UNL     1     -12.843   7.124  71.590  1.00  0.00    -0.420 A  
HETATM   12  C   UNL     1     -10.670   7.930  72.258  1.00  0.00    -0.344 A  
ENDBRANCH   6   7
BRANCH   6  13
HETATM   13  O   UNL     1     -11.451  11.540  70.235  1.00  0.00    -0.256 OA 
BRANCH  13  14
HETATM   14  C   UNL     1     -11.205  11.366  68.894  1.00  0.00    -0.248 A  
HETATM   15  C   UNL     1     -10.727  10.159  68.359  1.00  0.00    -0.266 A  
HETATM   16  C   UNL     1     -10.626  11.113  66.148  1.00  0.00    -0.305 A  
HETATM   17  C   UNL     1     -10.425  10.038  67.004  1.00  0.00    -0.302 A  
HETATM   18  C   UNL     1     -11.169  12.297  66.646  1.00  0.00    -0.367 A  
HETATM   19  C   UNL     1     -11.488  12.427  68.011  1.00  0.00    -0.377 A  
HETATM   20  C   UNL     1     -12.109  13.716  68.479  1.00  0.00    -0.321 C  
ENDBRANCH  13  14
ENDBRANCH   6  13
ENDBRANCH   5   6
ENDBRANCH   4   5
ENDBRANCH   2   4
TORSDOF 6
ENDMDL
MODEL       65
REMARK 921   NORMALIZED FREE ENERGY PREDICTED BY IDOCK:   -5.03 KCAL/MOL
REMARK 922        TOTAL FREE ENERGY PREDICTED BY IDOCK:   -7.57 KCAL/MOL
REMARK 923 INTER-LIGAND FREE ENERGY PREDICTED BY IDOCK:   -6.69 KCAL/MOL
REMARK 924 INTRA-LIGAND FREE ENERGY PREDICTED BY IDOCK:   -0.88 KCAL/MOL
REMARK 927      BINDING AFFINITY PREDICTED BY RF-SCORE:    0.00 PKD
ROOT
HETATM    1  C   UNL     1     -12.838  15.427  70.988  1.00  0.00    -0.463 C  
HETATM    2  N   UNL     1     -11.609  15.794  70.300  1.00  0.00    -0.336 NA 
HETATM    3  H   UNL     1     -10.937  16.213  70.942  1.00  0.00     0.000 HD 
ENDROOT
BRANCH   2   4
HETATM    4  C   UNL     1     -11.020  14.660  69.580  1.00  0.00    -0.245 C  
BRANCH   4   5
HETATM    5  C   UNL     1     -12.138  13.669  69.242  1.00  0.00    -0.360 C  
BRANCH   5   6
HETATM    6  C   UNL     1     -11.633  12.388  68.548  1.00  0.00    -0.313 C  
BRANCH   6   7
HETATM    7  C   UNL     1     -11.357  11.325  69.606  1.00  0.00    -0.359 A  
HETATM    8  C   UNL     1     -10.848   9.287  71.473  1.00  0.00    -0.442 A  
HETATM    9  C   UNL     1     -12.288  11.029  70.613  1.00  0.00    -0.480 A  
HETATM   10  C   UNL     1     -10.171  10.572  69.545  1.00  0.00    -0.230 A  
HETATM   11  C   UNL     1     -12.031  10.020  71.543  1.00  0.00    -0.438 A  
HETATM   12  C   UNL     1      -9.918   9.562  70.474  1.00  0.00    -0.335 A  
ENDBRANCH   6   7
BRANCH   6  13
HETATM   13  O   UNL     1     -10.468  12.667  67.744  1.00  0.00    -0.215 OA 
BRANCH  13  14
HETATM   14  C   UNL     1     -10.537  12.283  66.427  1.00  0.00    -0.242 A  
HETATM   15  C   UNL     1     -10.360  10.954  66.012  1.00  0.00    -0.304 A  
HETATM   16  C   UNL     1     -10.593  11.585  63.697  1.00  0.00    -0.491 A  
HETATM   17  C   UNL     1     -10.371  10.610  64.661  1.00  0.00    -0.353 A  
HETATM   18  C   UNL     1     -10.845  12.898  64.092  1.00  0.00    -0.445 A  
HETATM   19  C   UNL     1     -10.847  13.255  65.454  1.00  0.00    -0.304 A  
HETATM   20  C   UNL     1     -11.166  14.680  65.818  1.00  0.00    -0.336 C  
ENDBRANCH  13  14
ENDBRANCH   6  13
ENDBRANCH   5   6
ENDBRANCH   4   5
ENDBRANCH   2   4
TORSDOF 6
ENDMDL
MODEL       66
REMARK 921   NORMALIZED FREE ENERGY PREDICTED BY IDOCK:   -5.02 KCAL/MOL
REMARK 922        TOTAL FREE ENERGY PREDICTED BY IDOCK:   -7.56 KCAL/MOL
REMARK 923 INTER-LIGAND FREE ENERGY PREDICTED BY IDOCK:   -6.27 KCAL/MOL
REMARK 924 INTRA-LIGAND FREE ENERGY PREDICTED BY IDOCK:   -1.28 KCAL/MOL
REMARK 927      BINDING AFFINITY PREDICTED BY RF-SCORE:    0.00 PKD
ROOT
HETATM    1  C   UNL     1     -10.714   5.610  67.183  1.00  0.00    -0.232 C  
HETATM    2  N   UNL     1     -11.389   6.863  67.487  1.00  0.00    -0.650 NA 
HETATM    3  H   UNL     1     -11.828   6.833  68.407  1.00  0.00     0.000 HD 
ENDROOT
BRANCH   2   4
HETATM    4  C   UNL     1     -10.491   8.017  67.363  1.00  0.00    -0.287 C  
BRANCH   4   5
HETATM    5  C   UNL     1      -9.636   8.103  68.631  1.00  0.00    -0.151 C  
BRANCH   5   6
HETATM    6  C   UNL     1     -10.239   9.015  69.717  1.00  0.00    -0.205 C  
BRANCH   6   7
HETATM    7  C   UNL     1     -10.326   8.240  71.027  1.00  0.00    -0.230 A  
HETATM    8  C   UNL     1     -10.594   6.843  73.451  1.00  0.00    -0.372 A  
HETATM    9  C   UNL     1      -9.575   8.611  72.153  1.00  0.00    -0.378 A  
HETATM   10  C   UNL     1     -11.222   7.162  71.142  1.00  0.00    -0.291 A  
HETATM   11  C   UNL     1      -9.706   7.913  73.355  1.00  0.00    -0.318 A  
HETATM   12  C   UNL     1     -11.352   6.468  72.345  1.00  0.00    -0.314 A  
ENDBRANCH   6   7
BRANCH   6  13
HETATM   13  O   UNL     1     -11.525   9.523  69.302  1.00  0.00     0.008 OA 
BRANCH  13  14
HETATM   14  C   UNL     1     -11.683  10.887  69.363  1.00  0.00    -0.325 A  
HETATM   15  C   UNL     1     -11.324  11.742  68.310  1.00  0.00    -0.343 A  
HETATM   16  C   UNL     1     -11.943  13.683  69.599  1.00  0.00    -0.402 A  
HETATM   17  C   UNL     1     -11.436  13.126  68.431  1.00  0.00    -0.350 A  
HETATM   18  C   UNL     1     -12.374  12.848  70.629  1.00  0.00    -0.385 A  
HETATM   19  C   UNL     1     -12.276  11.448  70.513  1.00  0.00    -0.478 A  
HETATM   20  C   UNL     1     -12.796  10.600  71.642  1.00  0.00    -0.570 C  
ENDBRANCH  13  14
ENDBRANCH   6  13
ENDBRANCH   5   6
ENDBRANCH   4   5
ENDBRANCH   2   4
TORSDOF 6
ENDMDL
MODEL       67
REMARK 921   NORMALIZED FREE ENERGY PREDICTED BY IDOCK:   -5.00 KCAL/MOL
REMARK 922        TOTAL FREE ENERGY PREDICTED BY IDOCK:   -7.54 KCAL/MOL
REMARK 923 INTER-LIGAND FREE ENERGY PREDICTED BY IDOCK:   -6.49 KCAL/MOL
REMARK 924 INTRA-LIGAND FREE ENERGY PREDICTED BY IDOCK:   -1.04 KCAL/MOL
REMARK 927      BINDING AFFINITY PREDICTED BY RF-SCORE:    0.00 PKD
ROOT
HETATM    1  C   UNL     1     -10.311   7.512  66.821  1.00  0.00    -0.262 C  
HETATM    2  N   UNL     1     -10.974   8.355  67.806  1.00  0.00    -0.489 NA 
HETATM    3  H   UNL     1     -11.101   7.861  68.689  1.00  0.00     0.000 HD 
ENDROOT
BRANCH   2   4
HETATM    4  C   UNL     1     -10.271   9.627  68.005  1.00  0.00    -0.194 C  
BRANCH   4   5
HETATM    5  C   UNL     1      -9.585   9.592  69.373  1.00  0.00    -0.200 C  
BRANCH   5   6
HETATM    6  C   UNL     1     -10.527   9.946  70.540  1.00  0.00    -0.264 C  
BRANCH   6   7
HETATM    7  C   UNL     1     -10.691   8.723  71.436  1.00  0.00    -0.356 A  
HETATM    8  C   UNL     1     -11.097   6.505  73.114  1.00  0.00    -0.197 A  
HETATM    9  C   UNL     1      -9.893   8.532  72.574  1.00  0.00    -0.324 A  
HETATM   10  C   UNL     1     -11.704   7.787  71.161  1.00  0.00    -0.304 A  
HETATM   11  C   UNL     1     -10.092   7.426  73.404  1.00  0.00    -0.389 A  
HETATM   12  C   UNL     1     -11.903   6.685  71.993  1.00  0.00    -0.365 A  
ENDBRANCH   6   7
BRANCH   6  13
HETATM   13  O   UNL     1     -11.794  10.429  70.047  1.00  0.00    -0.267 OA 
BRANCH  13  14
HETATM   14  C   UNL     1     -12.285  11.562  70.651  1.00  0.00    -0.378 A  
HETATM   15  C   UNL     1     -13.053  11.526  71.825  1.00  0.00    -0.503 A  
HETATM   16  C   UNL     1     -13.345  13.918  71.777  1.00  0.00    -0.461 A  
HETATM   17  C   UNL     1     -13.591  12.688  72.374  1.00  0.00    -0.435 A  
HETATM   18  C   UNL     1     -12.523  13.984  70.652  1.00  0.00    -0.435 A  
HETATM   19  C   UNL     1     -11.966  12.817  70.095  1.00  0.00    -0.371 A  
HETATM   20  C   UNL     1     -11.055  12.959  68.905  1.00  0.00    -0.301 C  
ENDBRANCH  13  14
ENDBRANCH   6  13
ENDBRANCH   5   6
ENDBRANCH   4   5
ENDBRANCH   2   4
TORSDOF 6
ENDMDL
MODEL       68
REMARK 921   NORMALIZED FREE ENERGY PREDICTED BY IDOCK:   -5.00 KCAL/MOL
REMARK 922        TOTAL FREE ENERGY PREDICTED BY IDOCK:   -7.53 KCAL/MOL
REMARK 923 INTER-LIGAND FREE ENERGY PREDICTED BY IDOCK:   -6.69 KCAL/MOL
REMARK 924 INTRA-LIGAND FREE ENERGY PREDICTED BY IDOCK:   -0.84 KCAL/MOL
REMARK 927      BINDING AFFINITY PREDICTED BY RF-SCORE:    0.00 PKD
ROOT
HETATM    1  C   UNL     1     -13.974  14.401  72.439  1.00  0.00    -0.486 C  
HETATM    2  N   UNL     1     -13.812  12.976  72.687  1.00  0.00    -0.742 NA 
HETATM    3  H   UNL     1     -14.715  12.506  72.744  1.00  0.00     0.000 HD 
ENDROOT
BRANCH   2   4
HETATM    4  C   UNL     1     -12.942  12.338  71.693  1.00  0.00    -0.311 C  
BRANCH   4   5
HETATM    5  C   UNL     1     -13.149  10.823  71.770  1.00  0.00    -0.573 C  
BRANCH   5   6
HETATM    6  C   UNL     1     -12.293  10.035  70.760  1.00  0.00    -0.303 C  
BRANCH   6   7
HETATM    7  C   UNL     1     -11.829   8.735  71.408  1.00  0.00    -0.369 A  
HETATM    8  C   UNL     1     -11.075   6.332  72.657  1.00  0.00    -0.298 A  
HETATM    9  C   UNL     1     -10.761   8.706  72.318  1.00  0.00    -0.383 A  
HETATM   10  C   UNL     1     -12.520   7.538  71.145  1.00  0.00    -0.306 A  
HETATM   11  C   UNL     1     -10.384   7.510  72.933  1.00  0.00    -0.349 A  
HETATM   12  C   UNL     1     -12.143   6.346  71.763  1.00  0.00    -0.351 A  
ENDBRANCH   6   7
BRANCH   6  13
HETATM   13  O   UNL     1     -11.184  10.833  70.295  1.00  0.00    -0.298 OA 
BRANCH  13  14
HETATM   14  C   UNL     1     -11.132  11.066  68.942  1.00  0.00    -0.239 A  
HETATM   15  C   UNL     1     -11.793  12.142  68.330  1.00  0.00    -0.361 A  
HETATM   16  C   UNL     1     -11.064  11.422  66.148  1.00  0.00    -0.259 A  
HETATM   17  C   UNL     1     -11.774  12.310  66.946  1.00  0.00    -0.404 A  
HETATM   18  C   UNL     1     -10.340  10.389  66.742  1.00  0.00    -0.294 A  
HETATM   19  C   UNL     1     -10.343  10.217  68.140  1.00  0.00    -0.217 A  
HETATM   20  C   UNL     1      -9.510   9.108  68.723  1.00  0.00    -0.147 C  
ENDBRANCH  13  14
ENDBRANCH   6  13
ENDBRANCH   5   6
ENDBRANCH   4   5
ENDBRANCH   2   4
TORSDOF 6
ENDMDL
MODEL       69
REMARK 921   NORMALIZED FREE ENERGY PREDICTED BY IDOCK:   -5.00 KCAL/MOL
REMARK 922        TOTAL FREE ENERGY PREDICTED BY IDOCK:   -7.53 KCAL/MOL
REMARK 923 INTER-LIGAND FREE ENERGY PREDICTED BY IDOCK:   -6.28 KCAL/MOL
REMARK 924 INTRA-LIGAND FREE ENERGY PREDICTED BY IDOCK:   -1.25 KCAL/MOL
REMARK 927      BINDING AFFINITY PREDICTED BY RF-SCORE:    0.00 PKD
ROOT
HETATM    1  C   UNL     1      -9.637   6.353  74.392  1.00  0.00    -0.261 C  
HETATM    2  N   UNL     1     -10.998   6.401  73.877  1.00  0.00    -0.379 NA 
HETATM    3  H   UNL     1     -11.171   7.270  73.372  1.00  0.00     0.000 HD 
ENDROOT
BRANCH   2   4
HETATM    4  C   UNL     1     -11.316   5.232  73.049  1.00  0.00    -0.309 C  
BRANCH   4   5
HETATM    5  C   UNL     1     -10.474   5.300  71.773  1.00  0.00    -0.278 C  
BRANCH   5   6
HETATM    6  C   UNL     1     -10.940   6.390  70.788  1.00  0.00    -0.290 C  
BRANCH   6   7
HETATM    7  C   UNL     1     -10.666   5.923  69.362  1.00  0.00    -0.406 A  
HETATM    8  C   UNL     1     -10.051   5.086  66.751  1.00  0.00    -0.270 A  
HETATM    9  C   UNL     1     -11.185   6.606  68.252  1.00  0.00    -0.208 A  
HETATM   10  C   UNL     1      -9.824   4.820  69.139  1.00  0.00    -0.254 A  
HETATM   11  C   UNL     1     -10.883   6.186  66.955  1.00  0.00    -0.435 A  
HETATM   12  C   UNL     1      -9.521   4.404  67.842  1.00  0.00    -0.209 A  
ENDBRANCH   6   7
BRANCH   6  13
HETATM   13  O   UNL     1     -10.298   7.650  71.078  1.00  0.00    -0.202 OA 
BRANCH  13  14
HETATM   14  C   UNL     1     -11.119   8.750  71.121  1.00  0.00    -0.276 A  
HETATM   15  C   UNL     1     -12.194   8.862  72.017  1.00  0.00    -0.447 A  
HETATM   16  C   UNL     1     -12.823  10.994  71.085  1.00  0.00    -0.491 A  
HETATM   17  C   UNL     1     -13.047   9.964  71.989  1.00  0.00    -0.545 A  
HETATM   18  C   UNL     1     -11.718  10.937  70.237  1.00  0.00    -0.437 A  
HETATM   19  C   UNL     1     -10.843   9.834  70.264  1.00  0.00    -0.356 A  
HETATM   20  C   UNL     1      -9.646   9.851  69.352  1.00  0.00    -0.229 C  
ENDBRANCH  13  14
ENDBRANCH   6  13
ENDBRANCH   5   6
ENDBRANCH   4   5
ENDBRANCH   2   4
TORSDOF 6
ENDMDL
MODEL       70
REMARK 921   NORMALIZED FREE ENERGY PREDICTED BY IDOCK:   -5.00 KCAL/MOL
REMARK 922        TOTAL FREE ENERGY PREDICTED BY IDOCK:   -7.53 KCAL/MOL
REMARK 923 INTER-LIGAND FREE ENERGY PREDICTED BY IDOCK:   -6.61 KCAL/MOL
REMARK 924 INTRA-LIGAND FREE ENERGY PREDICTED BY IDOCK:   -0.92 KCAL/MOL
REMARK 927      BINDING AFFINITY PREDICTED BY RF-SCORE:    0.00 PKD
ROOT
HETATM    1  C   UNL     1     -10.608  14.046  64.707  1.00  0.00    -0.421 C  
HETATM    2  N   UNL     1     -11.679  14.706  65.439  1.00  0.00    -0.348 NA 
HETATM    3  H   UNL     1     -12.373  15.098  64.804  1.00  0.00     0.000 HD 
ENDROOT
BRANCH   2   4
HETATM    4  C   UNL     1     -12.303  13.815  66.424  1.00  0.00    -0.412 C  
BRANCH   4   5
HETATM    5  C   UNL     1     -11.552  13.958  67.750  1.00  0.00    -0.381 C  
BRANCH   5   6
HETATM    6  C   UNL     1     -11.767  12.771  68.709  1.00  0.00    -0.323 C  
BRANCH   6   7
HETATM    7  C   UNL     1     -12.386  13.283  70.005  1.00  0.00    -0.269 A  
HETATM    8  C   UNL     1     -13.429  14.278  72.418  1.00  0.00    -0.586 A  
HETATM    9  C   UNL     1     -12.792  12.408  71.023  1.00  0.00    -0.245 A  
HETATM   10  C   UNL     1     -12.503  14.667  70.223  1.00  0.00    -0.401 A  
HETATM   11  C   UNL     1     -13.314  12.903  72.220  1.00  0.00    -0.597 A  
HETATM   12  C   UNL     1     -13.023  15.160  71.420  1.00  0.00    -0.476 A  
ENDBRANCH   6   7
BRANCH   6  13
HETATM   13  O   UNL     1     -10.528  12.069  68.942  1.00  0.00    -0.202 OA 
BRANCH  13  14
HETATM   14  C   UNL     1     -10.355  10.900  68.242  1.00  0.00    -0.173 A  
HETATM   15  C   UNL     1     -10.121  10.869  66.858  1.00  0.00    -0.253 A  
HETATM   16  C   UNL     1     -10.111   8.459  66.855  1.00  0.00    -0.364 A  
HETATM   17  C   UNL     1     -10.017   9.662  66.169  1.00  0.00    -0.346 A  
HETATM   18  C   UNL     1     -10.269   8.467  68.241  1.00  0.00    -0.244 A  
HETATM   19  C   UNL     1     -10.365   9.681  68.949  1.00  0.00    -0.220 A  
HETATM   20  C   UNL     1     -10.494   9.624  70.448  1.00  0.00    -0.352 C  
ENDBRANCH  13  14
ENDBRANCH   6  13
ENDBRANCH   5   6
ENDBRANCH   4   5
ENDBRANCH   2   4
TORSDOF 6
ENDMDL
MODEL       71
REMARK 921   NORMALIZED FREE ENERGY PREDICTED BY IDOCK:   -4.98 KCAL/MOL
REMARK 922        TOTAL FREE ENERGY PREDICTED BY IDOCK:   -7.51 KCAL/MOL
REMARK 923 INTER-LIGAND FREE ENERGY PREDICTED BY IDOCK:   -6.69 KCAL/MOL
REMARK 924 INTRA-LIGAND FREE ENERGY PREDICTED BY IDOCK:   -0.82 KCAL/MOL
REMARK 927      BINDING AFFINITY PREDICTED BY RF-SCORE:    0.00 PKD
ROOT
HETATM    1  C   UNL     1      -8.111   7.522  65.773  1.00  0.00    -0.127 C  
HETATM    2  N   UNL     1      -9.256   8.323  65.366  1.00  0.00    -0.408 NA 
HETATM    3  H   UNL     1     -10.120   7.782  65.410  1.00  0.00     0.000 HD 
ENDROOT
BRANCH   2   4
HETATM    4  C   UNL     1      -9.366   9.562  66.145  1.00  0.00    -0.198 C  
BRANCH   4   5
HETATM    5  C   UNL     1     -10.720   9.566  66.860  1.00  0.00    -0.184 C  
BRANCH   5   6
HETATM    6  C   UNL     1     -10.894  10.743  67.838  1.00  0.00    -0.264 C  
BRANCH   6   7
HETATM    7  C   UNL     1     -11.039  10.196  69.254  1.00  0.00    -0.270 A  
HETATM    8  C   UNL     1     -11.327   9.085  71.820  1.00  0.00    -0.447 A  
HETATM    9  C   UNL     1     -12.078  10.611  70.101  1.00  0.00    -0.414 A  
HETATM   10  C   UNL     1     -10.154   9.205  69.714  1.00  0.00    -0.211 A  
HETATM   11  C   UNL     1     -12.217  10.062  71.377  1.00  0.00    -0.510 A  
HETATM   12  C   UNL     1     -10.296   8.656  70.989  1.00  0.00    -0.275 A  
ENDBRANCH   6   7
BRANCH   6  13
HETATM   13  O   UNL     1     -12.019  11.564  67.457  1.00  0.00    -0.629 OA 
BRANCH  13  14
HETATM   14  C   UNL     1     -11.743  12.613  66.614  1.00  0.00    -0.398 A  
HETATM   15  C   UNL     1     -11.701  12.476  65.218  1.00  0.00    -0.430 A  
HETATM   16  C   UNL     1     -11.069  14.787  64.953  1.00  0.00    -0.416 A  
HETATM   17  C   UNL     1     -11.352  13.546  64.396  1.00  0.00    -0.407 A  
HETATM   18  C   UNL     1     -11.177  14.963  66.332  1.00  0.00    -0.331 A  
HETATM   19  C   UNL     1     -11.539  13.892  67.171  1.00  0.00    -0.391 A  
HETATM   20  C   UNL     1     -11.678  14.156  68.646  1.00  0.00    -0.385 C  
ENDBRANCH  13  14
ENDBRANCH   6  13
ENDBRANCH   5   6
ENDBRANCH   4   5
ENDBRANCH   2   4
TORSDOF 6
ENDMDL
MODEL       72
REMARK 921   NORMALIZED FREE ENERGY PREDICTED BY IDOCK:   -4.97 KCAL/MOL
REMARK 922        TOTAL FREE ENERGY PREDICTED BY IDOCK:   -7.50 KCAL/MOL
REMARK 923 INTER-LIGAND FREE ENERGY PREDICTED BY IDOCK:   -6.52 KCAL/MOL
REMARK 924 INTRA-LIGAND FREE ENERGY PREDICTED BY IDOCK:   -0.98 KCAL/MOL
REMARK 927      BINDING AFFINITY PREDICTED BY RF-SCORE:    0.00 PKD
ROOT
HETATM    1  C   UNL     1     -11.943  14.814  70.865  1.00  0.00    -0.324 C  
HETATM    2  N   UNL     1     -11.131  14.027  69.949  1.00  0.00    -0.465 NA 
HETATM    3  H   UNL     1     -10.653  13.269  70.437  1.00  0.00     0.000 HD 
ENDROOT
BRANCH   2   4
HETATM    4  C   UNL     1     -11.913  13.519  68.816  1.00  0.00    -0.339 C  
BRANCH   4   5
HETATM    5  C   UNL     1     -11.920  14.585  67.717  1.00  0.00    -0.345 C  
BRANCH   5   6
HETATM    6  C   UNL     1     -10.589  14.679  66.945  1.00  0.00    -0.281 C  
BRANCH   6   7
HETATM    7  C   UNL     1     -10.034  16.093  67.081  1.00  0.00    -0.251 A  
HETATM    8  C   UNL     1      -9.106  18.738  67.286  1.00  0.00    -0.291 A  
HETATM    9  C   UNL     1      -8.909  16.514  66.356  1.00  0.00    -0.345 A  
HETATM   10  C   UNL     1     -10.692  17.025  67.902  1.00  0.00    -0.348 A  
HETATM   11  C   UNL     1      -8.446  17.827  66.463  1.00  0.00    -0.288 A  
HETATM   12  C   UNL     1     -10.230  18.337  68.005  1.00  0.00    -0.402 A  
ENDBRANCH   6   7
BRANCH   6  13
HETATM   13  O   UNL     1     -10.771  14.299  65.564  1.00  0.00    -0.302 OA 
BRANCH  13  14
HETATM   14  C   UNL     1     -10.440  13.004  65.246  1.00  0.00    -0.304 A  
HETATM   15  C   UNL     1      -9.524  12.247  65.993  1.00  0.00    -0.194 A  
HETATM   16  C   UNL     1      -9.733  10.388  64.473  1.00  0.00    -0.393 A  
HETATM   17  C   UNL     1      -9.162  10.959  65.603  1.00  0.00    -0.227 A  
HETATM   18  C   UNL     1     -10.699  11.095  63.758  1.00  0.00    -0.399 A  
HETATM   19  C   UNL     1     -11.082  12.393  64.150  1.00  0.00    -0.425 A  
HETATM   20  C   UNL     1     -12.159  13.087  63.361  1.00  0.00    -0.591 C  
ENDBRANCH  13  14
ENDBRANCH   6  13
ENDBRANCH   5   6
ENDBRANCH   4   5
ENDBRANCH   2   4
TORSDOF 6
ENDMDL
MODEL       73
REMARK 921   NORMALIZED FREE ENERGY PREDICTED BY IDOCK:   -4.96 KCAL/MOL
REMARK 922        TOTAL FREE ENERGY PREDICTED BY IDOCK:   -7.48 KCAL/MOL
REMARK 923 INTER-LIGAND FREE ENERGY PREDICTED BY IDOCK:   -7.04 KCAL/MOL
REMARK 924 INTRA-LIGAND FREE ENERGY PREDICTED BY IDOCK:   -0.43 KCAL/MOL
REMARK 927      BINDING AFFINITY PREDICTED BY RF-SCORE:    0.00 PKD
ROOT
HETATM    1  C   UNL     1      -8.435   9.026  70.683  1.00  0.00    -0.196 C  
HETATM    2  N   UNL     1      -8.424  10.321  70.019  1.00  0.00    -0.359 NA 
HETATM    3  H   UNL     1      -7.515  10.513  69.600  1.00  0.00     0.000 HD 
ENDROOT
BRANCH   2   4
HETATM    4  C   UNL     1      -9.502  10.443  69.031  1.00  0.00    -0.197 C  
BRANCH   4   5
HETATM    5  C   UNL     1      -9.660  11.921  68.667  1.00  0.00    -0.101 C  
BRANCH   5   6
HETATM    6  C   UNL     1     -11.124  12.345  68.443  1.00  0.00    -0.250 C  
BRANCH   6   7
HETATM    7  C   UNL     1     -11.886  12.216  69.757  1.00  0.00    -0.397 A  
HETATM    8  C   UNL     1     -13.376  11.930  72.123  1.00  0.00    -0.361 A  
HETATM    9  C   UNL     1     -12.315  13.344  70.473  1.00  0.00    -0.401 A  
HETATM   10  C   UNL     1     -12.229  10.942  70.243  1.00  0.00    -0.432 A  
HETATM   11  C   UNL     1     -13.050  13.201  71.651  1.00  0.00    -0.444 A  
HETATM   12  C   UNL     1     -12.966  10.801  71.419  1.00  0.00    -0.535 A  
ENDBRANCH   6   7
BRANCH   6  13
HETATM   13  O   UNL     1     -11.727  11.566  67.389  1.00  0.00    -0.567 OA 
BRANCH  13  14
HETATM   14  C   UNL     1     -11.734  12.140  66.141  1.00  0.00    -0.315 A  
HETATM   15  C   UNL     1     -12.388  13.351  65.865  1.00  0.00    -0.493 A  
HETATM   16  C   UNL     1     -11.792  13.208  63.533  1.00  0.00    -0.539 A  
HETATM   17  C   UNL     1     -12.431  13.872  64.573  1.00  0.00    -0.336 A  
HETATM   18  C   UNL     1     -11.075  12.042  63.800  1.00  0.00    -0.510 A  
HETATM   19  C   UNL     1     -11.015  11.513  65.103  1.00  0.00    -0.298 A  
HETATM   20  C   UNL     1     -10.191  10.274  65.333  1.00  0.00    -0.312 C  
ENDBRANCH  13  14
ENDBRANCH   6  13
ENDBRANCH   5   6
ENDBRANCH   4   5
ENDBRANCH   2   4
TORSDOF 6
ENDMDL
MODEL       74
REMARK 921   NORMALIZED FREE ENERGY PREDICTED BY IDOCK:   -4.96 KCAL/MOL
REMARK 922        TOTAL FREE ENERGY PREDICTED BY IDOCK:   -7.47 KCAL/MOL
REMARK 923 INTER-LIGAND FREE ENERGY PREDICTED BY IDOCK:   -6.67 KCAL/MOL
REMARK 924 INTRA-LIGAND FREE ENERGY PREDICTED BY IDOCK:   -0.81 KCAL/MOL
REMARK 927      BINDING AFFINITY PREDICTED BY RF-SCORE:    0.00 PKD
ROOT
HETATM    1  C   UNL     1     -11.905  14.820  64.720  1.00  0.00    -0.423 C  
HETATM    2  N   UNL     1     -11.696  13.613  65.505  1.00  0.00    -0.325 NA 
HETATM    3  H   UNL     1     -10.748  13.254  65.385  1.00  0.00     0.000 HD 
ENDROOT
BRANCH   2   4
HETATM    4  C   UNL     1     -12.013  13.815  66.923  1.00  0.00    -0.421 C  
BRANCH   4   5
HETATM    5  C   UNL     1     -10.755  13.528  67.746  1.00  0.00    -0.262 C  
BRANCH   5   6
HETATM    6  C   UNL     1     -11.051  12.906  69.124  1.00  0.00    -0.190 C  
BRANCH   6   7
HETATM    7  C   UNL     1     -10.825  11.400  69.049  1.00  0.00    -0.265 A  
HETATM    8  C   UNL     1     -10.501   8.615  68.845  1.00  0.00    -0.211 A  
HETATM    9  C   UNL     1     -10.918  10.584  70.186  1.00  0.00    -0.338 A  
HETATM   10  C   UNL     1     -10.578  10.792  67.805  1.00  0.00    -0.266 A  
HETATM   11  C   UNL     1     -10.751   9.201  70.084  1.00  0.00    -0.263 A  
HETATM   12  C   UNL     1     -10.415   9.410  67.705  1.00  0.00    -0.328 A  
ENDBRANCH   6   7
BRANCH   6  13
HETATM   13  O   UNL     1     -12.389  13.231  69.555  1.00  0.00    -0.216 OA 
BRANCH  13  14
HETATM   14  C   UNL     1     -12.487  14.025  70.673  1.00  0.00    -0.365 A  
HETATM   15  C   UNL     1     -12.191  15.397  70.660  1.00  0.00    -0.431 A  
HETATM   16  C   UNL     1     -12.613  15.569  73.027  1.00  0.00    -0.557 A  
HETATM   17  C   UNL     1     -12.237  16.158  71.826  1.00  0.00    -0.466 A  
HETATM   18  C   UNL     1     -12.982  14.225  73.048  1.00  0.00    -0.512 A  
HETATM   19  C   UNL     1     -12.950  13.448  71.873  1.00  0.00    -0.422 A  
HETATM   20  C   UNL     1     -13.399  12.014  71.953  1.00  0.00    -0.408 C  
ENDBRANCH  13  14
ENDBRANCH   6  13
ENDBRANCH   5   6
ENDBRANCH   4   5
ENDBRANCH   2   4
TORSDOF 6
ENDMDL
MODEL       75
REMARK 921   NORMALIZED FREE ENERGY PREDICTED BY IDOCK:   -4.96 KCAL/MOL
REMARK 922        TOTAL FREE ENERGY PREDICTED BY IDOCK:   -7.47 KCAL/MOL
REMARK 923 INTER-LIGAND FREE ENERGY PREDICTED BY IDOCK:   -6.29 KCAL/MOL
REMARK 924 INTRA-LIGAND FREE ENERGY PREDICTED BY IDOCK:   -1.18 KCAL/MOL
REMARK 927      BINDING AFFINITY PREDICTED BY RF-SCORE:    0.00 PKD
ROOT
HETATM    1  C   UNL     1      -6.459  10.994  69.489  1.00  0.00    -0.109 C  
HETATM    2  N   UNL     1      -7.874  11.310  69.366  1.00  0.00    -0.368 NA 
HETATM    3  H   UNL     1      -8.100  12.183  69.842  1.00  0.00     0.000 HD 
ENDROOT
BRANCH   2   4
HETATM    4  C   UNL     1      -8.313  11.337  67.966  1.00  0.00    -0.136 C  
BRANCH   4   5
HETATM    5  C   UNL     1      -9.407  10.283  67.781  1.00  0.00    -0.156 C  
BRANCH   5   6
HETATM    6  C   UNL     1     -10.767  10.698  68.377  1.00  0.00    -0.222 C  
BRANCH   6   7
HETATM    7  C   UNL     1     -11.302  11.899  67.604  1.00  0.00    -0.372 A  
HETATM    8  C   UNL     1     -12.188  14.120  66.127  1.00  0.00    -0.465 A  
HETATM    9  C   UNL     1     -11.623  13.104  68.248  1.00  0.00    -0.370 A  
HETATM   10  C   UNL     1     -11.422  11.832  66.205  1.00  0.00    -0.288 A  
HETATM   11  C   UNL     1     -12.069  14.205  67.513  1.00  0.00    -0.363 A  
HETATM   12  C   UNL     1     -11.865  12.934  65.473  1.00  0.00    -0.455 A  
ENDBRANCH   6   7
BRANCH   6  13
HETATM   13  O   UNL     1     -10.645  10.973  69.788  1.00  0.00    -0.156 OA 
BRANCH  13  14
HETATM   14  C   UNL     1     -11.443  10.225  70.620  1.00  0.00    -0.349 A  
HETATM   15  C   UNL     1     -12.830  10.414  70.716  1.00  0.00    -0.450 A  
HETATM   16  C   UNL     1     -13.001   8.721  72.423  1.00  0.00    -0.442 A  
HETATM   17  C   UNL     1     -13.599   9.683  71.619  1.00  0.00    -0.402 A  
HETATM   18  C   UNL     1     -11.636   8.465  72.291  1.00  0.00    -0.453 A  
HETATM   19  C   UNL     1     -10.851   9.191  71.374  1.00  0.00    -0.419 A  
HETATM   20  C   UNL     1      -9.393   8.840  71.249  1.00  0.00    -0.319 C  
ENDBRANCH  13  14
ENDBRANCH   6  13
ENDBRANCH   5   6
ENDBRANCH   4   5
ENDBRANCH   2   4
TORSDOF 6
ENDMDL
MODEL       76
REMARK 921   NORMALIZED FREE ENERGY PREDICTED BY IDOCK:   -4.94 KCAL/MOL
REMARK 922        TOTAL FREE ENERGY PREDICTED BY IDOCK:   -7.45 KCAL/MOL
REMARK 923 INTER-LIGAND FREE ENERGY PREDICTED BY IDOCK:   -6.51 KCAL/MOL
REMARK 924 INTRA-LIGAND FREE ENERGY PREDICTED BY IDOCK:   -0.94 KCAL/MOL
REMARK 927      BINDING AFFINITY PREDICTED BY RF-SCORE:    0.00 PKD
ROOT
HETATM    1  C   UNL     1     -12.398  12.315  63.462  1.00  0.00    -0.565 C  
HETATM    2  N   UNL     1     -11.874  13.672  63.512  1.00  0.00    -0.720 NA 
HETATM    3  H   UNL     1     -12.400  14.294  62.898  1.00  0.00     0.000 HD 
ENDROOT
BRANCH   2   4
HETATM    4  C   UNL     1     -11.826  14.194  64.883  1.00  0.00    -0.402 C  
BRANCH   4   5
HETATM    5  C   UNL     1     -10.963  15.459  64.889  1.00  0.00    -0.453 C  
BRANCH   5   6
HETATM    6  C   UNL     1     -10.681  16.003  66.303  1.00  0.00    -0.234 C  
BRANCH   6   7
HETATM    7  C   UNL     1      -9.751  17.206  66.196  1.00  0.00    -0.263 A  
HETATM    8  C   UNL     1      -7.991  19.396  66.101  1.00  0.00    -0.320 A  
HETATM    9  C   UNL     1     -10.243  18.520  66.203  1.00  0.00    -0.424 A  
HETATM   10  C   UNL     1      -8.359  17.011  66.153  1.00  0.00    -0.276 A  
HETATM   11  C   UNL     1      -9.368  19.607  66.150  1.00  0.00    -0.416 A  
HETATM   12  C   UNL     1      -7.487  18.099  66.103  1.00  0.00    -0.297 A  
ENDBRANCH   6   7
BRANCH   6  13
HETATM   13  O   UNL     1     -10.135  14.969  67.149  1.00  0.00    -0.237 OA 
BRANCH  13  14
HETATM   14  C   UNL     1     -10.721  14.827  68.383  1.00  0.00    -0.243 A  
HETATM   15  C   UNL     1     -11.934  14.149  68.576  1.00  0.00    -0.367 A  
HETATM   16  C   UNL     1     -11.915  14.662  70.931  1.00  0.00    -0.388 A  
HETATM   17  C   UNL     1     -12.534  14.080  69.832  1.00  0.00    -0.301 A  
HETATM   18  C   UNL     1     -10.673  15.277  70.775  1.00  0.00    -0.174 A  
HETATM   19  C   UNL     1     -10.052  15.342  69.512  1.00  0.00    -0.278 A  
HETATM   20  C   UNL     1      -8.694  15.983  69.417  1.00  0.00    -0.153 C  
ENDBRANCH  13  14
ENDBRANCH   6  13
ENDBRANCH   5   6
ENDBRANCH   4   5
ENDBRANCH   2   4
TORSDOF 6
ENDMDL
MODEL       77
REMARK 921   NORMALIZED FREE ENERGY PREDICTED BY IDOCK:   -4.93 KCAL/MOL
REMARK 922        TOTAL FREE ENERGY PREDICTED BY IDOCK:   -7.44 KCAL/MOL
REMARK 923 INTER-LIGAND FREE ENERGY PREDICTED BY IDOCK:   -6.31 KCAL/MOL
REMARK 924 INTRA-LIGAND FREE ENERGY PREDICTED BY IDOCK:   -1.13 KCAL/MOL
REMARK 927      BINDING AFFINITY PREDICTED BY RF-SCORE:    0.00 PKD
ROOT
HETATM    1  C   UNL     1      -7.153  11.540  69.172  1.00  0.00    -0.105 C  
HETATM    2  N   UNL     1      -8.599  11.553  69.011  1.00  0.00    -0.375 NA 
HETATM    3  H   UNL     1      -8.939  12.491  68.798  1.00  0.00     0.000 HD 
ENDROOT
BRANCH   2   4
HETATM    4  C   UNL     1      -9.052  10.583  68.008  1.00  0.00    -0.138 C  
BRANCH   4   5
HETATM    5  C   UNL     1      -9.742   9.424  68.733  1.00  0.00    -0.161 C  
BRANCH   5   6
HETATM    6  C   UNL     1     -10.520   9.862  69.989  1.00  0.00    -0.284 C  
BRANCH   6   7
HETATM    7  C   UNL     1     -10.675   8.666  70.921  1.00  0.00    -0.269 A  
HETATM    8  C   UNL     1     -11.074   6.473  72.634  1.00  0.00    -0.291 A  
HETATM    9  C   UNL     1     -10.223   8.704  72.249  1.00  0.00    -0.372 A  
HETATM   10  C   UNL     1     -11.341   7.512  70.472  1.00  0.00    -0.279 A  
HETATM   11  C   UNL     1     -10.417   7.612  73.097  1.00  0.00    -0.433 A  
HETATM   12  C   UNL     1     -11.536   6.423  71.322  1.00  0.00    -0.370 A  
ENDBRANCH   6   7
BRANCH   6  13
HETATM   13  O   UNL     1     -11.795  10.435  69.627  1.00  0.00    -0.241 OA 
BRANCH  13  14
HETATM   14  C   UNL     1     -12.159  11.574  70.302  1.00  0.00    -0.359 A  
HETATM   15  C   UNL     1     -11.781  12.860  69.883  1.00  0.00    -0.324 A  
HETATM   16  C   UNL     1     -12.856  13.861  71.794  1.00  0.00    -0.421 A  
HETATM   17  C   UNL     1     -12.112  13.990  70.629  1.00  0.00    -0.424 A  
HETATM   18  C   UNL     1     -13.304  12.601  72.189  1.00  0.00    -0.570 A  
HETATM   19  C   UNL     1     -12.985  11.453  71.437  1.00  0.00    -0.468 A  
HETATM   20  C   UNL     1     -13.532  10.127  71.893  1.00  0.00    -0.426 C  
ENDBRANCH  13  14
ENDBRANCH   6  13
ENDBRANCH   5   6
ENDBRANCH   4   5
ENDBRANCH   2   4
TORSDOF 6
ENDMDL
MODEL       78
REMARK 921   NORMALIZED FREE ENERGY PREDICTED BY IDOCK:   -4.93 KCAL/MOL
REMARK 922        TOTAL FREE ENERGY PREDICTED BY IDOCK:   -7.44 KCAL/MOL
REMARK 923 INTER-LIGAND FREE ENERGY PREDICTED BY IDOCK:   -6.72 KCAL/MOL
REMARK 924 INTRA-LIGAND FREE ENERGY PREDICTED BY IDOCK:   -0.72 KCAL/MOL
REMARK 927      BINDING AFFINITY PREDICTED BY RF-SCORE:    0.00 PKD
ROOT
HETATM    1  C   UNL     1     -12.319  12.817  64.912  1.00  0.00    -0.490 C  
HETATM    2  N   UNL     1     -11.861  14.193  64.791  1.00  0.00    -0.394 NA 
HETATM    3  H   UNL     1     -12.407  14.818  65.383  1.00  0.00     0.000 HD 
ENDROOT
BRANCH   2   4
HETATM    4  C   UNL     1     -10.425  14.323  65.064  1.00  0.00    -0.435 C  
BRANCH   4   5
HETATM    5  C   UNL     1     -10.187  14.033  66.549  1.00  0.00    -0.279 C  
BRANCH   5   6
HETATM    6  C   UNL     1     -10.110  15.303  67.417  1.00  0.00    -0.232 C  
BRANCH   6   7
HETATM    7  C   UNL     1     -10.803  15.038  68.750  1.00  0.00    -0.249 A  
HETATM    8  C   UNL     1     -12.177  14.581  71.159  1.00  0.00    -0.411 A  
HETATM    9  C   UNL     1     -10.510  15.794  69.895  1.00  0.00    -0.324 A  
HETATM   10  C   UNL     1     -11.806  14.056  68.832  1.00  0.00    -0.390 A  
HETATM   11  C   UNL     1     -11.190  15.562  71.092  1.00  0.00    -0.423 A  
HETATM   12  C   UNL     1     -12.486  13.828  70.029  1.00  0.00    -0.301 A  
ENDBRANCH   6   7
BRANCH   6  13
HETATM   13  O   UNL     1     -10.684  16.432  66.725  1.00  0.00    -0.281 OA 
BRANCH  13  14
HETATM   14  C   UNL     1     -10.163  17.663  67.042  1.00  0.00    -0.332 A  
HETATM   15  C   UNL     1     -10.896  18.647  67.723  1.00  0.00    -0.313 A  
HETATM   16  C   UNL     1      -9.062  20.203  67.568  1.00  0.00    -0.465 A  
HETATM   17  C   UNL     1     -10.359  19.909  67.970  1.00  0.00    -0.547 A  
HETATM   18  C   UNL     1      -8.290  19.216  66.956  1.00  0.00    -0.294 A  
HETATM   19  C   UNL     1      -8.819  17.934  66.711  1.00  0.00    -0.271 A  
HETATM   20  C   UNL     1      -7.924  16.901  66.084  1.00  0.00    -0.290 C  
ENDBRANCH  13  14
ENDBRANCH   6  13
ENDBRANCH   5   6
ENDBRANCH   4   5
ENDBRANCH   2   4
TORSDOF 6
ENDMDL
MODEL       79
REMARK 921   NORMALIZED FREE ENERGY PREDICTED BY IDOCK:   -4.91 KCAL/MOL
REMARK 922        TOTAL FREE ENERGY PREDICTED BY IDOCK:   -7.41 KCAL/MOL
REMARK 923 INTER-LIGAND FREE ENERGY PREDICTED BY IDOCK:   -6.54 KCAL/MOL
REMARK 924 INTRA-LIGAND FREE ENERGY PREDICTED BY IDOCK:   -0.86 KCAL/MOL
REMARK 927      BINDING AFFINITY PREDICTED BY RF-SCORE:    0.00 PKD
ROOT
HETATM    1  C   UNL     1      -9.423  11.359  65.461  1.00  0.00    -0.227 C  
HETATM    2  N   UNL     1     -10.359  12.384  65.898  1.00  0.00    -0.251 NA 
HETATM    3  H   UNL     1     -10.817  12.830  65.104  1.00  0.00     0.000 HD 
ENDROOT
BRANCH   2   4
HETATM    4  C   UNL     1     -11.342  11.861  66.854  1.00  0.00    -0.330 C  
BRANCH   4   5
HETATM    5  C   UNL     1     -10.770  12.009  68.266  1.00  0.00    -0.252 C  
BRANCH   5   6
HETATM    6  C   UNL     1     -11.567  11.236  69.335  1.00  0.00    -0.321 C  
BRANCH   6   7
HETATM    7  C   UNL     1     -12.226  12.233  70.282  1.00  0.00    -0.342 A  
HETATM    8  C   UNL     1     -13.541  14.025  72.003  1.00  0.00    -0.552 A  
HETATM    9  C   UNL     1     -12.209  13.612  70.026  1.00  0.00    -0.395 A  
HETATM   10  C   UNL     1     -12.923  11.767  71.411  1.00  0.00    -0.408 A  
HETATM   11  C   UNL     1     -12.859  14.502  70.885  1.00  0.00    -0.425 A  
HETATM   12  C   UNL     1     -13.574  12.658  72.266  1.00  0.00    -0.508 A  
ENDBRANCH   6   7
BRANCH   6  13
HETATM   13  O   UNL     1     -10.714  10.306  70.036  1.00  0.00    -0.272 OA 
BRANCH  13  14
HETATM   14  C   UNL     1     -10.785   8.996  69.627  1.00  0.00    -0.219 A  
HETATM   15  C   UNL     1     -10.364   8.572  68.356  1.00  0.00    -0.241 A  
HETATM   16  C   UNL     1     -11.054   6.310  68.819  1.00  0.00    -0.424 A  
HETATM   17  C   UNL     1     -10.511   7.247  67.950  1.00  0.00    -0.267 A  
HETATM   18  C   UNL     1     -11.409   6.694  70.112  1.00  0.00    -0.440 A  
HETATM   19  C   UNL     1     -11.255   8.028  70.537  1.00  0.00    -0.252 A  
HETATM   20  C   UNL     1     -11.620   8.371  71.956  1.00  0.00    -0.418 C  
ENDBRANCH  13  14
ENDBRANCH   6  13
ENDBRANCH   5   6
ENDBRANCH   4   5
ENDBRANCH   2   4
TORSDOF 6
ENDMDL
MODEL       80
REMARK 921   NORMALIZED FREE ENERGY PREDICTED BY IDOCK:   -4.90 KCAL/MOL
REMARK 922        TOTAL FREE ENERGY PREDICTED BY IDOCK:   -7.40 KCAL/MOL
REMARK 923 INTER-LIGAND FREE ENERGY PREDICTED BY IDOCK:   -6.26 KCAL/MOL
REMARK 924 INTRA-LIGAND FREE ENERGY PREDICTED BY IDOCK:   -1.14 KCAL/MOL
REMARK 927      BINDING AFFINITY PREDICTED BY RF-SCORE:    0.00 PKD
ROOT
HETATM    1  C   UNL     1      -7.186  11.271  69.043  1.00  0.00    -0.119 C  
HETATM    2  N   UNL     1      -8.575  11.607  68.762  1.00  0.00    -0.347 NA 
HETATM    3  H   UNL     1      -8.668  12.580  68.471  1.00  0.00     0.000 HD 
ENDROOT
BRANCH   2   4
HETATM    4  C   UNL     1      -9.173  10.698  67.778  1.00  0.00    -0.146 C  
BRANCH   4   5
HETATM    5  C   UNL     1     -10.431  10.078  68.394  1.00  0.00    -0.235 C  
BRANCH   5   6
HETATM    6  C   UNL     1     -10.840  10.723  69.732  1.00  0.00    -0.226 C  
BRANCH   6   7
HETATM    7  C   UNL     1     -10.890   9.644  70.809  1.00  0.00    -0.400 A  
HETATM    8  C   UNL     1     -10.957   7.579  72.715  1.00  0.00    -0.410 A  
HETATM    9  C   UNL     1     -12.086   9.314  71.464  1.00  0.00    -0.435 A  
HETATM   10  C   UNL     1      -9.731   8.912  71.119  1.00  0.00    -0.344 A  
HETATM   11  C   UNL     1     -12.117   8.292  72.415  1.00  0.00    -0.430 A  
HETATM   12  C   UNL     1      -9.764   7.889  72.067  1.00  0.00    -0.244 A  
ENDBRANCH   6   7
BRANCH   6  13
HETATM   13  O   UNL     1     -12.098  11.417  69.603  1.00  0.00    -0.308 OA 
BRANCH  13  14
HETATM   14  C   UNL     1     -12.041  12.788  69.673  1.00  0.00    -0.222 A  
HETATM   15  C   UNL     1     -11.591  13.587  68.611  1.00  0.00    -0.365 A  
HETATM   16  C   UNL     1     -11.856  15.589  69.927  1.00  0.00    -0.380 A  
HETATM   17  C   UNL     1     -11.484  14.970  68.740  1.00  0.00    -0.337 A  
HETATM   18  C   UNL     1     -12.376  14.822  70.969  1.00  0.00    -0.397 A  
HETATM   19  C   UNL     1     -12.499  13.424  70.845  1.00  0.00    -0.439 A  
HETATM   20  C   UNL     1     -13.104  12.658  71.990  1.00  0.00    -0.471 C  
ENDBRANCH  13  14
ENDBRANCH   6  13
ENDBRANCH   5   6
ENDBRANCH   4   5
ENDBRANCH   2   4
TORSDOF 6
ENDMDL
MODEL       81
REMARK 921   NORMALIZED FREE ENERGY PREDICTED BY IDOCK:   -4.90 KCAL/MOL
REMARK 922        TOTAL FREE ENERGY PREDICTED BY IDOCK:   -7.39 KCAL/MOL
REMARK 923 INTER-LIGAND FREE ENERGY PREDICTED BY IDOCK:   -6.60 KCAL/MOL
REMARK 924 INTRA-LIGAND FREE ENERGY PREDICTED BY IDOCK:   -0.79 KCAL/MOL
REMARK 927      BINDING AFFINITY PREDICTED BY RF-SCORE:    0.00 PKD
ROOT
HETATM    1  C   UNL     1     -12.191  14.784  64.438  1.00  0.00    -0.428 C  
HETATM    2  N   UNL     1     -11.493  14.091  65.511  1.00  0.00    -0.311 NA 
HETATM    3  H   UNL     1     -10.741  14.664  65.893  1.00  0.00     0.000 HD 
ENDROOT
BRANCH   2   4
HETATM    4  C   UNL     1     -12.410  13.643  66.566  1.00  0.00    -0.361 C  
BRANCH   4   5
HETATM    5  C   UNL     1     -11.962  14.265  67.891  1.00  0.00    -0.364 C  
BRANCH   5   6
HETATM    6  C   UNL     1     -12.018  13.285  69.079  1.00  0.00    -0.293 C  
BRANCH   6   7
HETATM    7  C   UNL     1     -12.315  14.066  70.355  1.00  0.00    -0.429 A  
HETATM    8  C   UNL     1     -12.750  15.508  72.728  1.00  0.00    -0.532 A  
HETATM    9  C   UNL     1     -13.029  13.494  71.418  1.00  0.00    -0.421 A  
HETATM   10  C   UNL     1     -11.812  15.370  70.507  1.00  0.00    -0.373 A  
HETATM   11  C   UNL     1     -13.249  14.214  72.595  1.00  0.00    -0.612 A  
HETATM   12  C   UNL     1     -12.031  16.087  71.685  1.00  0.00    -0.569 A  
ENDBRANCH   6   7
BRANCH   6  13
HETATM   13  O   UNL     1     -10.792  12.531  69.179  1.00  0.00    -0.189 OA 
BRANCH  13  14
HETATM   14  C   UNL     1     -10.930  11.176  69.366  1.00  0.00    -0.244 A  
HETATM   15  C   UNL     1     -11.419  10.619  70.557  1.00  0.00    -0.407 A  
HETATM   16  C   UNL     1     -11.089   8.385  69.715  1.00  0.00    -0.062 A  
HETATM   17  C   UNL     1     -11.483   9.238  70.737  1.00  0.00    -0.351 A  
HETATM   18  C   UNL     1     -10.670   8.918  68.496  1.00  0.00    -0.124 A  
HETATM   19  C   UNL     1     -10.611  10.311  68.300  1.00  0.00    -0.255 A  
HETATM   20  C   UNL     1     -10.188  10.824  66.949  1.00  0.00    -0.274 C  
ENDBRANCH  13  14
ENDBRANCH   6  13
ENDBRANCH   5   6
ENDBRANCH   4   5
ENDBRANCH   2   4
TORSDOF 6
ENDMDL
MODEL       82
REMARK 921   NORMALIZED FREE ENERGY PREDICTED BY IDOCK:   -4.89 KCAL/MOL
REMARK 922        TOTAL FREE ENERGY PREDICTED BY IDOCK:   -7.38 KCAL/MOL
REMARK 923 INTER-LIGAND FREE ENERGY PREDICTED BY IDOCK:   -6.59 KCAL/MOL
REMARK 924 INTRA-LIGAND FREE ENERGY PREDICTED BY IDOCK:   -0.80 KCAL/MOL
REMARK 927      BINDING AFFINITY PREDICTED BY RF-SCORE:    0.00 PKD
ROOT
HETATM    1  C   UNL     1     -10.893   6.163  67.986  1.00  0.00    -0.313 C  
HETATM    2  N   UNL     1     -11.222   7.580  67.972  1.00  0.00    -0.337 NA 
HETATM    3  H   UNL     1     -11.173   7.980  68.909  1.00  0.00     0.000 HD 
ENDROOT
BRANCH   2   4
HETATM    4  C   UNL     1     -10.385   8.331  67.029  1.00  0.00    -0.323 C  
BRANCH   4   5
HETATM    5  C   UNL     1      -9.884   9.597  67.729  1.00  0.00    -0.192 C  
BRANCH   5   6
HETATM    6  C   UNL     1     -10.973  10.318  68.547  1.00  0.00    -0.247 C  
BRANCH   6   7
HETATM    7  C   UNL     1     -11.407  11.575  67.801  1.00  0.00    -0.364 A  
HETATM    8  C   UNL     1     -12.105  13.895  66.376  1.00  0.00    -0.489 A  
HETATM    9  C   UNL     1     -11.681  12.774  68.476  1.00  0.00    -0.371 A  
HETATM   10  C   UNL     1     -11.479  11.563  66.397  1.00  0.00    -0.150 A  
HETATM   11  C   UNL     1     -12.032  13.924  67.767  1.00  0.00    -0.390 A  
HETATM   12  C   UNL     1     -11.828  12.715  65.690  1.00  0.00    -0.488 A  
ENDBRANCH   6   7
BRANCH   6  13
HETATM   13  O   UNL     1     -10.501  10.614  69.878  1.00  0.00    -0.207 OA 
BRANCH  13  14
HETATM   14  C   UNL     1     -10.666   9.621  70.813  1.00  0.00    -0.331 A  
HETATM   15  C   UNL     1      -9.635   8.741  71.178  1.00  0.00    -0.309 A  
HETATM   16  C   UNL     1     -11.107   7.543  72.664  1.00  0.00    -0.398 A  
HETATM   17  C   UNL     1      -9.856   7.702  72.081  1.00  0.00    -0.226 A  
HETATM   18  C   UNL     1     -12.124   8.451  72.372  1.00  0.00    -0.443 A  
HETATM   19  C   UNL     1     -11.908   9.510  71.469  1.00  0.00    -0.478 A  
HETATM   20  C   UNL     1     -13.033  10.480  71.227  1.00  0.00    -0.532 C  
ENDBRANCH  13  14
ENDBRANCH   6  13
ENDBRANCH   5   6
ENDBRANCH   4   5
ENDBRANCH   2   4
TORSDOF 6
ENDMDL
MODEL       83
REMARK 921   NORMALIZED FREE ENERGY PREDICTED BY IDOCK:   -4.88 KCAL/MOL
REMARK 922        TOTAL FREE ENERGY PREDICTED BY IDOCK:   -7.37 KCAL/MOL
REMARK 923 INTER-LIGAND FREE ENERGY PREDICTED BY IDOCK:   -6.28 KCAL/MOL
REMARK 924 INTRA-LIGAND FREE ENERGY PREDICTED BY IDOCK:   -1.09 KCAL/MOL
REMARK 927      BINDING AFFINITY PREDICTED BY RF-SCORE:    0.00 PKD
ROOT
HETATM    1  C   UNL     1     -11.190  13.013  64.578  1.00  0.00    -0.339 C  
HETATM    2  N   UNL     1     -11.649  14.223  65.244  1.00  0.00    -0.336 NA 
HETATM    3  H   UNL     1     -12.106  14.856  64.588  1.00  0.00     0.000 HD 
ENDROOT
BRANCH   2   4
HETATM    4  C   UNL     1     -12.519  13.927  66.389  1.00  0.00    -0.370 C  
BRANCH   4   5
HETATM    5  C   UNL     1     -11.789  14.338  67.670  1.00  0.00    -0.420 C  
BRANCH   5   6
HETATM    6  C   UNL     1     -11.745  13.226  68.735  1.00  0.00    -0.329 C  
BRANCH   6   7
HETATM    7  C   UNL     1     -12.264  13.781  70.057  1.00  0.00    -0.407 A  
HETATM    8  C   UNL     1     -13.325  14.776  72.462  1.00  0.00    -0.529 A  
HETATM    9  C   UNL     1     -12.184  15.148  70.363  1.00  0.00    -0.391 A  
HETATM   10  C   UNL     1     -12.896  12.924  70.975  1.00  0.00    -0.268 A  
HETATM   11  C   UNL     1     -12.707  15.640  71.560  1.00  0.00    -0.522 A  
HETATM   12  C   UNL     1     -13.420  13.418  72.170  1.00  0.00    -0.646 A  
ENDBRANCH   6   7
BRANCH   6  13
HETATM   13  O   UNL     1     -10.410  12.690  68.860  1.00  0.00    -0.157 OA 
BRANCH  13  14
HETATM   14  C   UNL     1     -10.042  11.760  67.918  1.00  0.00    -0.186 A  
HETATM   15  C   UNL     1     -10.823  10.633  67.616  1.00  0.00    -0.346 A  
HETATM   16  C   UNL     1      -9.175   9.841  66.046  1.00  0.00    -0.226 A  
HETATM   17  C   UNL     1     -10.387   9.675  66.702  1.00  0.00    -0.279 A  
HETATM   18  C   UNL     1      -8.419  10.990  66.276  1.00  0.00    -0.165 A  
HETATM   19  C   UNL     1      -8.854  11.969  67.189  1.00  0.00    -0.188 A  
HETATM   20  C   UNL     1      -8.013  13.205  67.364  1.00  0.00    -0.174 C  
ENDBRANCH  13  14
ENDBRANCH   6  13
ENDBRANCH   5   6
ENDBRANCH   4   5
ENDBRANCH   2   4
TORSDOF 6
ENDMDL
MODEL       84
REMARK 921   NORMALIZED FREE ENERGY PREDICTED BY IDOCK:   -4.88 KCAL/MOL
REMARK 922        TOTAL FREE ENERGY PREDICTED BY IDOCK:   -7.37 KCAL/MOL
REMARK 923 INTER-LIGAND FREE ENERGY PREDICTED BY IDOCK:   -6.57 KCAL/MOL
REMARK 924 INTRA-LIGAND FREE ENERGY PREDICTED BY IDOCK:   -0.80 KCAL/MOL
REMARK 927      BINDING AFFINITY PREDICTED BY RF-SCORE:    0.00 PKD
ROOT
HETATM    1  C   UNL     1     -11.545  15.833  64.318  1.00  0.00    -0.191 C  
HETATM    2  N   UNL     1     -12.343  14.709  63.850  1.00  0.00    -1.060 NA 
HETATM    3  H   UNL     1     -12.208  14.550  62.852  1.00  0.00     0.000 HD 
ENDROOT
BRANCH   2   4
HETATM    4  C   UNL     1     -12.085  13.489  64.624  1.00  0.00    -0.409 C  
BRANCH   4   5
HETATM    5  C   UNL     1     -12.834  13.593  65.955  1.00  0.00    -0.328 C  
BRANCH   5   6
HETATM    6  C   UNL     1     -12.018  13.086  67.160  1.00  0.00    -0.329 C  
BRANCH   6   7
HETATM    7  C   UNL     1     -10.764  13.941  67.306  1.00  0.00    -0.286 A  
HETATM    8  C   UNL     1      -8.409  15.438  67.644  1.00  0.00    -0.174 A  
HETATM    9  C   UNL     1     -10.795  15.189  67.947  1.00  0.00    -0.291 A  
HETATM   10  C   UNL     1      -9.528  13.452  66.849  1.00  0.00    -0.253 A  
HETATM   11  C   UNL     1      -9.625  15.934  68.109  1.00  0.00    -0.208 A  
HETATM   12  C   UNL     1      -8.360  14.197  67.014  1.00  0.00    -0.142 A  
ENDBRANCH   6   7
BRANCH   6  13
HETATM   13  O   UNL     1     -11.703  11.685  67.012  1.00  0.00    -0.564 OA 
BRANCH  13  14
HETATM   14  C   UNL     1     -11.502  10.986  68.177  1.00  0.00    -0.302 A  
HETATM   15  C   UNL     1     -12.020  11.401  69.414  1.00  0.00    -0.407 A  
HETATM   16  C   UNL     1     -10.963   9.554  70.544  1.00  0.00    -0.348 A  
HETATM   17  C   UNL     1     -11.741  10.704  70.587  1.00  0.00    -0.454 A  
HETATM   18  C   UNL     1     -10.500   9.082  69.316  1.00  0.00    -0.238 A  
HETATM   19  C   UNL     1     -10.785   9.773  68.123  1.00  0.00    -0.280 A  
HETATM   20  C   UNL     1     -10.291   9.191  66.826  1.00  0.00    -0.308 C  
ENDBRANCH  13  14
ENDBRANCH   6  13
ENDBRANCH   5   6
ENDBRANCH   4   5
ENDBRANCH   2   4
TORSDOF 6
ENDMDL
MODEL       85
REMARK 921   NORMALIZED FREE ENERGY PREDICTED BY IDOCK:   -4.86 KCAL/MOL
REMARK 922        TOTAL FREE ENERGY PREDICTED BY IDOCK:   -7.35 KCAL/MOL
REMARK 923 INTER-LIGAND FREE ENERGY PREDICTED BY IDOCK:   -6.86 KCAL/MOL
REMARK 924 INTRA-LIGAND FREE ENERGY PREDICTED BY IDOCK:   -0.49 KCAL/MOL
REMARK 927      BINDING AFFINITY PREDICTED BY RF-SCORE:    0.00 PKD
ROOT
HETATM    1  C   UNL     1      -7.467  13.389  67.506  1.00  0.00    -0.162 C  
HETATM    2  N   UNL     1      -8.432  13.764  68.528  1.00  0.00    -0.252 NA 
HETATM    3  H   UNL     1      -8.501  13.049  69.252  1.00  0.00     0.000 HD 
ENDROOT
BRANCH   2   4
HETATM    4  C   UNL     1      -8.137  15.080  69.108  1.00  0.00    -0.192 C  
BRANCH   4   5
HETATM    5  C   UNL     1      -9.459  15.823  69.317  1.00  0.00    -0.270 C  
BRANCH   5   6
HETATM    6  C   UNL     1     -10.203  16.135  68.003  1.00  0.00    -0.252 C  
BRANCH   6   7
HETATM    7  C   UNL     1     -10.077  17.625  67.703  1.00  0.00    -0.339 A  
HETATM    8  C   UNL     1      -9.938  20.389  67.212  1.00  0.00    -0.564 A  
HETATM    9  C   UNL     1     -10.250  18.130  66.405  1.00  0.00    -0.405 A  
HETATM   10  C   UNL     1      -9.845  18.531  68.751  1.00  0.00    -0.411 A  
HETATM   11  C   UNL     1     -10.176  19.503  66.162  1.00  0.00    -0.588 A  
HETATM   12  C   UNL     1      -9.773  19.903  68.507  1.00  0.00    -0.421 A  
ENDBRANCH   6   7
BRANCH   6  13
HETATM   13  O   UNL     1     -11.580  15.713  68.082  1.00  0.00    -0.353 OA 
BRANCH  13  14
HETATM   14  C   UNL     1     -11.940  15.034  69.222  1.00  0.00    -0.289 A  
HETATM   15  C   UNL     1     -12.316  15.684  70.407  1.00  0.00    -0.427 A  
HETATM   16  C   UNL     1     -12.566  13.578  71.551  1.00  0.00    -0.358 A  
HETATM   17  C   UNL     1     -12.610  14.966  71.565  1.00  0.00    -0.397 A  
HETATM   18  C   UNL     1     -12.267  12.910  70.364  1.00  0.00    -0.381 A  
HETATM   19  C   UNL     1     -11.979  13.626  69.186  1.00  0.00    -0.394 A  
HETATM   20  C   UNL     1     -11.703  12.847  67.928  1.00  0.00    -0.405 C  
ENDBRANCH  13  14
ENDBRANCH   6  13
ENDBRANCH   5   6
ENDBRANCH   4   5
ENDBRANCH   2   4
TORSDOF 6
ENDMDL
MODEL       86
REMARK 921   NORMALIZED FREE ENERGY PREDICTED BY IDOCK:   -4.85 KCAL/MOL
REMARK 922        TOTAL FREE ENERGY PREDICTED BY IDOCK:   -7.33 KCAL/MOL
REMARK 923 INTER-LIGAND FREE ENERGY PREDICTED BY IDOCK:   -7.22 KCAL/MOL
REMARK 924 INTRA-LIGAND FREE ENERGY PREDICTED BY IDOCK:   -0.11 KCAL/MOL
REMARK 927      BINDING AFFINITY PREDICTED BY RF-SCORE:    0.00 PKD
ROOT
HETATM    1  C   UNL     1     -14.383  14.970  71.435  1.00  0.00    -0.497 C  
HETATM    2  N   UNL     1     -13.332  15.099  70.437  1.00  0.00    -0.675 NA 
HETATM    3  H   UNL     1     -13.070  16.076  70.300  1.00  0.00     0.000 HD 
ENDROOT
BRANCH   2   4
HETATM    4  C   UNL     1     -12.162  14.275  70.758  1.00  0.00    -0.353 C  
BRANCH   4   5
HETATM    5  C   UNL     1     -11.451  13.913  69.451  1.00  0.00    -0.334 C  
BRANCH   5   6
HETATM    6  C   UNL     1     -11.967  12.608  68.813  1.00  0.00    -0.237 C  
BRANCH   6   7
HETATM    7  C   UNL     1     -11.730  11.454  69.781  1.00  0.00    -0.418 A  
HETATM    8  C   UNL     1     -11.292   9.256  71.477  1.00  0.00    -0.455 A  
HETATM    9  C   UNL     1     -12.697  11.074  70.724  1.00  0.00    -0.414 A  
HETATM   10  C   UNL     1     -10.544  10.704  69.696  1.00  0.00    -0.260 A  
HETATM   11  C   UNL     1     -12.476   9.985  71.569  1.00  0.00    -0.516 A  
HETATM   12  C   UNL     1     -10.326   9.614  70.540  1.00  0.00    -0.359 A  
ENDBRANCH   6   7
BRANCH   6  13
HETATM   13  O   UNL     1     -11.337  12.380  67.534  1.00  0.00    -0.274 OA 
BRANCH  13  14
HETATM   14  C   UNL     1     -10.694  13.459  66.977  1.00  0.00    -0.268 A  
HETATM   15  C   UNL     1      -9.376  13.812  67.305  1.00  0.00    -0.239 A  
HETATM   16  C   UNL     1      -9.475  15.745  65.869  1.00  0.00    -0.377 A  
HETATM   17  C   UNL     1      -8.778  14.952  66.771  1.00  0.00    -0.278 A  
HETATM   18  C   UNL     1     -10.759  15.371  65.472  1.00  0.00    -0.397 A  
HETATM   19  C   UNL     1     -11.369  14.216  65.998  1.00  0.00    -0.330 A  
HETATM   20  C   UNL     1     -12.740  13.845  65.500  1.00  0.00    -0.536 C  
ENDBRANCH  13  14
ENDBRANCH   6  13
ENDBRANCH   5   6
ENDBRANCH   4   5
ENDBRANCH   2   4
TORSDOF 6
ENDMDL
MODEL       87
REMARK 921   NORMALIZED FREE ENERGY PREDICTED BY IDOCK:   -4.85 KCAL/MOL
REMARK 922        TOTAL FREE ENERGY PREDICTED BY IDOCK:   -7.33 KCAL/MOL
REMARK 923 INTER-LIGAND FREE ENERGY PREDICTED BY IDOCK:   -6.49 KCAL/MOL
REMARK 924 INTRA-LIGAND FREE ENERGY PREDICTED BY IDOCK:   -0.83 KCAL/MOL
REMARK 927      BINDING AFFINITY PREDICTED BY RF-SCORE:    0.00 PKD
ROOT
HETATM    1  C   UNL     1     -13.767   8.923  71.346  1.00  0.00    -0.272 C  
HETATM    2  N   UNL     1     -13.403   9.974  70.406  1.00  0.00    -0.538 NA 
HETATM    3  H   UNL     1     -13.988  10.799  70.531  1.00  0.00     0.000 HD 
ENDROOT
BRANCH   2   4
HETATM    4  C   UNL     1     -11.978  10.315  70.485  1.00  0.00    -0.323 C  
BRANCH   4   5
HETATM    5  C   UNL     1     -11.827  11.820  70.249  1.00  0.00    -0.382 C  
BRANCH   5   6
HETATM    6  C   UNL     1     -11.255  12.169  68.861  1.00  0.00    -0.269 C  
BRANCH   6   7
HETATM    7  C   UNL     1     -11.043  13.676  68.775  1.00  0.00    -0.302 A  
HETATM    8  C   UNL     1     -10.587  16.449  68.709  1.00  0.00    -0.310 A  
HETATM    9  C   UNL     1     -12.101  14.580  68.961  1.00  0.00    -0.286 A  
HETATM   10  C   UNL     1      -9.751  14.189  68.568  1.00  0.00    -0.219 A  
HETATM   11  C   UNL     1     -11.873  15.957  68.922  1.00  0.00    -0.314 A  
HETATM   12  C   UNL     1      -9.525  15.565  68.532  1.00  0.00    -0.200 A  
ENDBRANCH   6   7
BRANCH   6  13
HETATM   13  O   UNL     1     -12.122  11.684  67.814  1.00  0.00    -0.613 OA 
BRANCH  13  14
HETATM   14  C   UNL     1     -11.649  11.815  66.530  1.00  0.00    -0.181 A  
HETATM   15  C   UNL     1     -12.103  12.809  65.650  1.00  0.00    -0.514 A  
HETATM   16  C   UNL     1     -10.708  11.960  63.878  1.00  0.00    -0.450 A  
HETATM   17  C   UNL     1     -11.651  12.873  64.334  1.00  0.00    -0.415 A  
HETATM   18  C   UNL     1     -10.188  11.010  64.757  1.00  0.00    -0.381 A  
HETATM   19  C   UNL     1     -10.630  10.944  66.092  1.00  0.00    -0.270 A  
HETATM   20  C   UNL     1     -10.002   9.923  67.002  1.00  0.00    -0.254 C  
ENDBRANCH  13  14
ENDBRANCH   6  13
ENDBRANCH   5   6
ENDBRANCH   4   5
ENDBRANCH   2   4
TORSDOF 6
ENDMDL
MODEL       88
REMARK 921   NORMALIZED FREE ENERGY PREDICTED BY IDOCK:   -4.85 KCAL/MOL
REMARK 922        TOTAL FREE ENERGY PREDICTED BY IDOCK:   -7.32 KCAL/MOL
REMARK 923 INTER-LIGAND FREE ENERGY PREDICTED BY IDOCK:   -6.31 KCAL/MOL
REMARK 924 INTRA-LIGAND FREE ENERGY PREDICTED BY IDOCK:   -1.01 KCAL/MOL
REMARK 927      BINDING AFFINITY PREDICTED BY RF-SCORE:    0.00 PKD
ROOT
HETATM    1  C   UNL     1     -12.459   9.770  71.588  1.00  0.00    -0.410 C  
HETATM    2  N   UNL     1     -12.665  10.397  70.290  1.00  0.00    -0.526 NA 
HETATM    3  H   UNL     1     -13.538  10.923  70.269  1.00  0.00     0.000 HD 
ENDROOT
BRANCH   2   4
HETATM    4  C   UNL     1     -11.528  11.237  69.897  1.00  0.00    -0.293 C  
BRANCH   4   5
HETATM    5  C   UNL     1     -12.070  12.556  69.341  1.00  0.00    -0.237 C  
BRANCH   5   6
HETATM    6  C   UNL     1     -11.281  13.792  69.813  1.00  0.00    -0.059 C  
BRANCH   6   7
HETATM    7  C   UNL     1     -12.060  14.486  70.925  1.00  0.00    -0.404 A  
HETATM    8  C   UNL     1     -13.560  15.816  72.895  1.00  0.00    -0.660 A  
HETATM    9  C   UNL     1     -11.451  15.416  71.781  1.00  0.00    -0.497 A  
HETATM   10  C   UNL     1     -13.438  14.244  71.067  1.00  0.00    -0.274 A  
HETATM   11  C   UNL     1     -12.196  16.072  72.763  1.00  0.00    -0.617 A  
HETATM   12  C   UNL     1     -14.181  14.903  72.047  1.00  0.00    -0.638 A  
ENDBRANCH   6   7
BRANCH   6  13
HETATM   13  O   UNL     1     -11.010  14.680  68.707  1.00  0.00    -0.239 OA 
BRANCH  13  14
HETATM   14  C   UNL     1      -9.705  15.084  68.562  1.00  0.00    -0.217 A  
HETATM   15  C   UNL     1      -8.640  14.181  68.426  1.00  0.00    -0.176 A  
HETATM   16  C   UNL     1      -7.042  15.984  68.372  1.00  0.00    -0.125 A  
HETATM   17  C   UNL     1      -7.321  14.624  68.348  1.00  0.00    -0.115 A  
HETATM   18  C   UNL     1      -8.091  16.901  68.432  1.00  0.00    -0.237 A  
HETATM   19  C   UNL     1      -9.428  16.465  68.500  1.00  0.00    -0.227 A  
HETATM   20  C   UNL     1     -10.517  17.503  68.523  1.00  0.00    -0.361 C  
ENDBRANCH  13  14
ENDBRANCH   6  13
ENDBRANCH   5   6
ENDBRANCH   4   5
ENDBRANCH   2   4
TORSDOF 6
ENDMDL
MODEL       89
REMARK 921   NORMALIZED FREE ENERGY PREDICTED BY IDOCK:   -4.84 KCAL/MOL
REMARK 922        TOTAL FREE ENERGY PREDICTED BY IDOCK:   -7.32 KCAL/MOL
REMARK 923 INTER-LIGAND FREE ENERGY PREDICTED BY IDOCK:   -6.52 KCAL/MOL
REMARK 924 INTRA-LIGAND FREE ENERGY PREDICTED BY IDOCK:   -0.80 KCAL/MOL
REMARK 927      BINDING AFFINITY PREDICTED BY RF-SCORE:    0.00 PKD
ROOT
HETATM    1  C   UNL     1      -9.425  16.644  68.616  1.00  0.00    -0.249 C  
HETATM    2  N   UNL     1      -9.372  16.030  67.298  1.00  0.00    -0.209 NA 
HETATM    3  H   UNL     1      -8.599  16.402  66.747  1.00  0.00     0.000 HD 
ENDROOT
BRANCH   2   4
HETATM    4  C   UNL     1      -9.313  14.565  67.374  1.00  0.00    -0.197 C  
BRANCH   4   5
HETATM    5  C   UNL     1     -10.479  14.079  68.240  1.00  0.00    -0.245 C  
BRANCH   5   6
HETATM    6  C   UNL     1     -10.842  12.600  68.006  1.00  0.00    -0.225 C  
BRANCH   6   7
HETATM    7  C   UNL     1     -11.136  12.389  66.524  1.00  0.00    -0.346 A  
HETATM    8  C   UNL     1     -11.775  11.952  63.822  1.00  0.00    -0.554 A  
HETATM    9  C   UNL     1     -10.355  11.531  65.734  1.00  0.00    -0.295 A  
HETATM   10  C   UNL     1     -12.250  13.014  65.937  1.00  0.00    -0.493 A  
HETATM   11  C   UNL     1     -10.671  11.319  64.391  1.00  0.00    -0.407 A  
HETATM   12  C   UNL     1     -12.565  12.799  64.595  1.00  0.00    -0.491 A  
ENDBRANCH   6   7
BRANCH   6  13
HETATM   13  O   UNL     1     -11.953  12.208  68.839  1.00  0.00    -0.299 OA 
BRANCH  13  14
HETATM   14  C   UNL     1     -11.765  11.084  69.607  1.00  0.00    -0.329 A  
HETATM   15  C   UNL     1     -10.966  10.006  69.195  1.00  0.00    -0.256 A  
HETATM   16  C   UNL     1     -11.506   8.768  71.191  1.00  0.00    -0.344 A  
HETATM   17  C   UNL     1     -10.850   8.853  69.969  1.00  0.00    -0.239 A  
HETATM   18  C   UNL     1     -12.244   9.857  71.654  1.00  0.00    -0.482 A  
HETATM   19  C   UNL     1     -12.359  11.031  70.884  1.00  0.00    -0.503 A  
HETATM   20  C   UNL     1     -13.137  12.185  71.456  1.00  0.00    -0.357 C  
ENDBRANCH  13  14
ENDBRANCH   6  13
ENDBRANCH   5   6
ENDBRANCH   4   5
ENDBRANCH   2   4
TORSDOF 6
ENDMDL
MODEL       90
REMARK 921   NORMALIZED FREE ENERGY PREDICTED BY IDOCK:   -4.83 KCAL/MOL
REMARK 922        TOTAL FREE ENERGY PREDICTED BY IDOCK:   -7.30 KCAL/MOL
REMARK 923 INTER-LIGAND FREE ENERGY PREDICTED BY IDOCK:   -6.48 KCAL/MOL
REMARK 924 INTRA-LIGAND FREE ENERGY PREDICTED BY IDOCK:   -0.82 KCAL/MOL
REMARK 927      BINDING AFFINITY PREDICTED BY RF-SCORE:    0.00 PKD
ROOT
HETATM    1  C   UNL     1      -5.799  13.525  67.817  1.00  0.00    -0.116 C  
HETATM    2  N   UNL     1      -6.974  13.241  67.006  1.00  0.00    -0.401 NA 
HETATM    3  H   UNL     1      -6.716  13.038  66.041  1.00  0.00     0.000 HD 
ENDROOT
BRANCH   2   4
HETATM    4  C   UNL     1      -7.789  12.162  67.577  1.00  0.00    -0.162 C  
BRANCH   4   5
HETATM    5  C   UNL     1      -9.216  12.684  67.769  1.00  0.00    -0.195 C  
BRANCH   5   6
HETATM    6  C   UNL     1     -10.300  11.641  67.437  1.00  0.00    -0.205 C  
BRANCH   6   7
HETATM    7  C   UNL     1     -10.855  11.926  66.046  1.00  0.00    -0.342 A  
HETATM    8  C   UNL     1     -11.977  12.404  63.513  1.00  0.00    -0.627 A  
HETATM    9  C   UNL     1     -10.337  11.296  64.904  1.00  0.00    -0.362 A  
HETATM   10  C   UNL     1     -11.954  12.791  65.896  1.00  0.00    -0.506 A  
HETATM   11  C   UNL     1     -10.892  11.539  63.646  1.00  0.00    -0.488 A  
HETATM   12  C   UNL     1     -12.508  13.030  64.638  1.00  0.00    -0.460 A  
ENDBRANCH   6   7
BRANCH   6  13
HETATM   13  O   UNL     1     -11.335  11.641  68.443  1.00  0.00    -0.231 OA 
BRANCH  13  14
HETATM   14  C   UNL     1     -11.301  10.604  69.344  1.00  0.00    -0.284 A  
HETATM   15  C   UNL     1     -10.598   9.413  69.107  1.00  0.00    -0.234 A  
HETATM   16  C   UNL     1     -11.361   8.480  71.195  1.00  0.00    -0.319 A  
HETATM   17  C   UNL     1     -10.640   8.355  70.014  1.00  0.00    -0.235 A  
HETATM   18  C   UNL     1     -12.006   9.682  71.484  1.00  0.00    -0.485 A  
HETATM   19  C   UNL     1     -11.961  10.761  70.580  1.00  0.00    -0.456 A  
HETATM   20  C   UNL     1     -12.643  12.045  70.968  1.00  0.00    -0.370 C  
ENDBRANCH  13  14
ENDBRANCH   6  13
ENDBRANCH   5   6
ENDBRANCH   4   5
ENDBRANCH   2   4
TORSDOF 6
ENDMDL
MODEL       91
REMARK 921   NORMALIZED FREE ENERGY PREDICTED BY IDOCK:   -4.81 KCAL/MOL
REMARK 922        TOTAL FREE ENERGY PREDICTED BY IDOCK:   -7.28 KCAL/MOL
REMARK 923 INTER-LIGAND FREE ENERGY PREDICTED BY IDOCK:   -6.93 KCAL/MOL
REMARK 924 INTRA-LIGAND FREE ENERGY PREDICTED BY IDOCK:   -0.35 KCAL/MOL
REMARK 927      BINDING AFFINITY PREDICTED BY RF-SCORE:    0.00 PKD
ROOT
HETATM    1  C   UNL     1      -7.434  16.152  68.706  1.00  0.00    -0.189 C  
HETATM    2  N   UNL     1      -8.726  16.800  68.877  1.00  0.00    -0.249 NA 
HETATM    3  H   UNL     1      -8.687  17.781  68.599  1.00  0.00     0.000 HD 
ENDROOT
BRANCH   2   4
HETATM    4  C   UNL     1      -9.798  16.089  68.170  1.00  0.00    -0.222 C  
BRANCH   4   5
HETATM    5  C   UNL     1     -10.351  15.004  69.097  1.00  0.00    -0.249 C  
BRANCH   5   6
HETATM    6  C   UNL     1     -11.891  14.944  69.121  1.00  0.00    -0.307 C  
BRANCH   6   7
HETATM    7  C   UNL     1     -12.379  15.276  70.527  1.00  0.00    -0.434 A  
HETATM    8  C   UNL     1     -13.355  15.959  73.073  1.00  0.00    -0.663 A  
HETATM    9  C   UNL     1     -11.553  15.919  71.461  1.00  0.00    -0.537 A  
HETATM   10  C   UNL     1     -13.708  14.992  70.890  1.00  0.00    -0.319 A  
HETATM   11  C   UNL     1     -12.037  16.253  72.727  1.00  0.00    -0.637 A  
HETATM   12  C   UNL     1     -14.191  15.329  72.155  1.00  0.00    -0.667 A  
ENDBRANCH   6   7
BRANCH   6  13
HETATM   13  O   UNL     1     -12.360  13.654  68.676  1.00  0.00    -0.258 OA 
BRANCH  13  14
HETATM   14  C   UNL     1     -11.483  12.924  67.910  1.00  0.00    -0.318 A  
HETATM   15  C   UNL     1     -10.573  12.008  68.461  1.00  0.00    -0.252 A  
HETATM   16  C   UNL     1      -9.644  11.536  66.287  1.00  0.00    -0.239 A  
HETATM   17  C   UNL     1      -9.652  11.334  67.661  1.00  0.00    -0.180 A  
HETATM   18  C   UNL     1     -10.589  12.386  65.711  1.00  0.00    -0.288 A  
HETATM   19  C   UNL     1     -11.531  13.064  66.509  1.00  0.00    -0.385 A  
HETATM   20  C   UNL     1     -12.549  13.935  65.824  1.00  0.00    -0.533 C  
ENDBRANCH  13  14
ENDBRANCH   6  13
ENDBRANCH   5   6
ENDBRANCH   4   5
ENDBRANCH   2   4
TORSDOF 6
ENDMDL
MODEL       92
REMARK 921   NORMALIZED FREE ENERGY PREDICTED BY IDOCK:   -4.81 KCAL/MOL
REMARK 922        TOTAL FREE ENERGY PREDICTED BY IDOCK:   -7.28 KCAL/MOL
REMARK 923 INTER-LIGAND FREE ENERGY PREDICTED BY IDOCK:   -6.37 KCAL/MOL
REMARK 924 INTRA-LIGAND FREE ENERGY PREDICTED BY IDOCK:   -0.90 KCAL/MOL
REMARK 927      BINDING AFFINITY PREDICTED BY RF-SCORE:    0.00 PKD
ROOT
HETATM    1  C   UNL     1     -12.814  12.085  63.560  1.00  0.00    -0.341 C  
HETATM    2  N   UNL     1     -12.190  13.350  63.918  1.00  0.00    -0.629 NA 
HETATM    3  H   UNL     1     -12.889  14.052  64.159  1.00  0.00     0.000 HD 
ENDROOT
BRANCH   2   4
HETATM    4  C   UNL     1     -11.202  13.193  64.992  1.00  0.00    -0.298 C  
BRANCH   4   5
HETATM    5  C   UNL     1     -11.707  12.119  65.960  1.00  0.00    -0.388 C  
BRANCH   5   6
HETATM    6  C   UNL     1     -11.263  12.349  67.417  1.00  0.00    -0.297 C  
BRANCH   6   7
HETATM    7  C   UNL     1     -10.924  11.005  68.052  1.00  0.00    -0.312 A  
HETATM    8  C   UNL     1     -10.385   8.480  69.164  1.00  0.00    -0.227 A  
HETATM    9  C   UNL     1     -11.070  10.784  69.430  1.00  0.00    -0.324 A  
HETATM   10  C   UNL     1     -10.514   9.933  67.240  1.00  0.00    -0.319 A  
HETATM   11  C   UNL     1     -10.797   9.531  69.982  1.00  0.00    -0.286 A  
HETATM   12  C   UNL     1     -10.244   8.680  67.793  1.00  0.00    -0.282 A  
ENDBRANCH   6   7
BRANCH   6  13
HETATM   13  O   UNL     1     -12.281  13.056  68.157  1.00  0.00    -0.226 OA 
BRANCH  13  14
HETATM   14  C   UNL     1     -11.890  14.232  68.748  1.00  0.00    -0.341 A  
HETATM   15  C   UNL     1     -11.345  15.304  68.024  1.00  0.00    -0.345 A  
HETATM   16  C   UNL     1     -11.017  16.578  70.044  1.00  0.00    -0.245 A  
HETATM   17  C   UNL     1     -10.897  16.457  68.665  1.00  0.00    -0.331 A  
HETATM   18  C   UNL     1     -11.623  15.556  70.774  1.00  0.00    -0.399 A  
HETATM   19  C   UNL     1     -12.089  14.390  70.135  1.00  0.00    -0.397 A  
HETATM   20  C   UNL     1     -12.770  13.342  70.973  1.00  0.00    -0.387 C  
ENDBRANCH  13  14
ENDBRANCH   6  13
ENDBRANCH   5   6
ENDBRANCH   4   5
ENDBRANCH   2   4
TORSDOF 6
ENDMDL
MODEL       93
REMARK 921   NORMALIZED FREE ENERGY PREDICTED BY IDOCK:   -4.80 KCAL/MOL
REMARK 922        TOTAL FREE ENERGY PREDICTED BY IDOCK:   -7.25 KCAL/MOL
REMARK 923 INTER-LIGAND FREE ENERGY PREDICTED BY IDOCK:   -6.32 KCAL/MOL
REMARK 924 INTRA-LIGAND FREE ENERGY PREDICTED BY IDOCK:   -0.93 KCAL/MOL
REMARK 927      BINDING AFFINITY PREDICTED BY RF-SCORE:    0.00 PKD
ROOT
HETATM    1  C   UNL     1     -10.315  19.638  67.429  1.00  0.00    -0.453 C  
HETATM    2  N   UNL     1      -9.721  18.309  67.459  1.00  0.00    -0.293 NA 
HETATM    3  H   UNL     1      -8.715  18.358  67.616  1.00  0.00     0.000 HD 
ENDROOT
BRANCH   2   4
HETATM    4  C   UNL     1     -10.371  17.437  68.445  1.00  0.00    -0.379 C  
BRANCH   4   5
HETATM    5  C   UNL     1     -10.583  16.061  67.808  1.00  0.00    -0.309 C  
BRANCH   5   6
HETATM    6  C   UNL     1     -10.419  14.894  68.800  1.00  0.00    -0.242 C  
BRANCH   6   7
HETATM    7  C   UNL     1      -9.239  14.032  68.364  1.00  0.00    -0.196 A  
HETATM    8  C   UNL     1      -7.061  12.501  67.462  1.00  0.00    -0.151 A  
HETATM    9  C   UNL     1      -9.379  12.655  68.133  1.00  0.00    -0.210 A  
HETATM   10  C   UNL     1      -7.989  14.629  68.123  1.00  0.00    -0.136 A  
HETATM   11  C   UNL     1      -8.295  11.895  67.690  1.00  0.00    -0.152 A  
HETATM   12  C   UNL     1      -6.908  13.868  67.678  1.00  0.00    -0.193 A  
ENDBRANCH   6   7
BRANCH   6  13
HETATM   13  O   UNL     1     -11.639  14.131  68.899  1.00  0.00    -0.268 OA 
BRANCH  13  14
HETATM   14  C   UNL     1     -12.323  14.237  70.086  1.00  0.00    -0.353 A  
HETATM   15  C   UNL     1     -12.839  15.453  70.561  1.00  0.00    -0.425 A  
HETATM   16  C   UNL     1     -13.628  14.397  72.579  1.00  0.00    -0.598 A  
HETATM   17  C   UNL     1     -13.470  15.536  71.801  1.00  0.00    -0.576 A  
HETATM   18  C   UNL     1     -13.189  13.165  72.093  1.00  0.00    -0.561 A  
HETATM   19  C   UNL     1     -12.560  13.067  70.837  1.00  0.00    -0.364 A  
HETATM   20  C   UNL     1     -12.145  11.705  70.351  1.00  0.00    -0.462 C  
ENDBRANCH  13  14
ENDBRANCH   6  13
ENDBRANCH   5   6
ENDBRANCH   4   5
ENDBRANCH   2   4
TORSDOF 6
ENDMDL
MODEL       94
REMARK 921   NORMALIZED FREE ENERGY PREDICTED BY IDOCK:   -4.79 KCAL/MOL
REMARK 922        TOTAL FREE ENERGY PREDICTED BY IDOCK:   -7.25 KCAL/MOL
REMARK 923 INTER-LIGAND FREE ENERGY PREDICTED BY IDOCK:   -6.63 KCAL/MOL
REMARK 924 INTRA-LIGAND FREE ENERGY PREDICTED BY IDOCK:   -0.62 KCAL/MOL
REMARK 927      BINDING AFFINITY PREDICTED BY RF-SCORE:    0.00 PKD
ROOT
HETATM    1  C   UNL     1     -13.014  16.011  73.482  1.00  0.00    -0.586 C  
HETATM    2  N   UNL     1     -13.501  15.142  72.421  1.00  0.00    -0.405 NA 
HETATM    3  H   UNL     1     -14.316  15.545  71.959  1.00  0.00     0.000 HD 
ENDROOT
BRANCH   2   4
HETATM    4  C   UNL     1     -12.450  14.813  71.451  1.00  0.00    -0.336 C  
BRANCH   4   5
HETATM    5  C   UNL     1     -12.904  13.598  70.639  1.00  0.00    -0.224 C  
BRANCH   5   6
HETATM    6  C   UNL     1     -11.755  12.898  69.888  1.00  0.00    -0.254 C  
BRANCH   6   7
HETATM    7  C   UNL     1     -11.349  13.752  68.691  1.00  0.00    -0.321 A  
HETATM    8  C   UNL     1     -10.566  15.232  66.434  1.00  0.00    -0.308 A  
HETATM    9  C   UNL     1     -10.328  14.709  68.783  1.00  0.00    -0.248 A  
HETATM   10  C   UNL     1     -11.963  13.542  67.444  1.00  0.00    -0.398 A  
HETATM   11  C   UNL     1      -9.943  15.448  67.662  1.00  0.00    -0.225 A  
HETATM   12  C   UNL     1     -11.575  14.279  66.324  1.00  0.00    -0.379 A  
ENDBRANCH   6   7
BRANCH   6  13
HETATM   13  O   UNL     1     -12.138  11.563  69.495  1.00  0.00    -0.308 OA 
BRANCH  13  14
HETATM   14  C   UNL     1     -11.810  10.558  70.371  1.00  0.00    -0.340 A  
HETATM   15  C   UNL     1     -12.704  10.068  71.336  1.00  0.00    -0.518 A  
HETATM   16  C   UNL     1     -11.034   8.563  72.204  1.00  0.00    -0.427 A  
HETATM   17  C   UNL     1     -12.316   9.093  72.254  1.00  0.00    -0.379 A  
HETATM   18  C   UNL     1     -10.154   8.982  71.207  1.00  0.00    -0.384 A  
HETATM   19  C   UNL     1     -10.539   9.958  70.268  1.00  0.00    -0.359 A  
HETATM   20  C   UNL     1      -9.558  10.339  69.192  1.00  0.00    -0.229 C  
ENDBRANCH  13  14
ENDBRANCH   6  13
ENDBRANCH   5   6
ENDBRANCH   4   5
ENDBRANCH   2   4
TORSDOF 6
ENDMDL
MODEL       95
REMARK 921   NORMALIZED FREE ENERGY PREDICTED BY IDOCK:   -4.78 KCAL/MOL
REMARK 922        TOTAL FREE ENERGY PREDICTED BY IDOCK:   -7.24 KCAL/MOL
REMARK 923 INTER-LIGAND FREE ENERGY PREDICTED BY IDOCK:   -6.57 KCAL/MOL
REMARK 924 INTRA-LIGAND FREE ENERGY PREDICTED BY IDOCK:   -0.66 KCAL/MOL
REMARK 927      BINDING AFFINITY PREDICTED BY RF-SCORE:    0.00 PKD
ROOT
HETATM    1  C   UNL     1     -10.313  16.667  67.372  1.00  0.00    -0.292 C  
HETATM    2  N   UNL     1     -10.923  15.557  68.089  1.00  0.00    -0.299 NA 
HETATM    3  H   UNL     1     -11.624  15.088  67.516  1.00  0.00     0.000 HD 
ENDROOT
BRANCH   2   4
HETATM    4  C   UNL     1      -9.921  14.606  68.586  1.00  0.00    -0.234 C  
BRANCH   4   5
HETATM    5  C   UNL     1     -10.174  13.248  67.926  1.00  0.00    -0.233 C  
BRANCH   5   6
HETATM    6  C   UNL     1     -11.508  12.601  68.346  1.00  0.00    -0.310 C  
BRANCH   6   7
HETATM    7  C   UNL     1     -11.223  11.457  69.314  1.00  0.00    -0.342 A  
HETATM    8  C   UNL     1     -10.706   9.423  71.184  1.00  0.00    -0.417 A  
HETATM    9  C   UNL     1      -9.987  10.792  69.324  1.00  0.00    -0.182 A  
HETATM   10  C   UNL     1     -12.190  11.091  70.267  1.00  0.00    -0.447 A  
HETATM   11  C   UNL     1      -9.734   9.778  70.250  1.00  0.00    -0.279 A  
HETATM   12  C   UNL     1     -11.933  10.080  71.193  1.00  0.00    -0.484 A  
ENDBRANCH   6   7
BRANCH   6  13
HETATM   13  O   UNL     1     -12.248  12.158  67.189  1.00  0.00    -0.507 OA 
BRANCH  13  14
HETATM   14  C   UNL     1     -11.520  11.981  66.038  1.00  0.00    -0.338 A  
HETATM   15  C   UNL     1     -10.708  10.858  65.816  1.00  0.00    -0.179 A  
HETATM   16  C   UNL     1      -9.975  11.735  63.694  1.00  0.00    -0.404 A  
HETATM   17  C   UNL     1      -9.931  10.743  64.665  1.00  0.00    -0.386 A  
HETATM   18  C   UNL     1     -10.832  12.823  63.860  1.00  0.00    -0.447 A  
HETATM   19  C   UNL     1     -11.630  12.944  65.014  1.00  0.00    -0.367 A  
HETATM   20  C   UNL     1     -12.563  14.120  65.115  1.00  0.00    -0.426 C  
ENDBRANCH  13  14
ENDBRANCH   6  13
ENDBRANCH   5   6
ENDBRANCH   4   5
ENDBRANCH   2   4
TORSDOF 6
ENDMDL
MODEL       96
REMARK 921   NORMALIZED FREE ENERGY PREDICTED BY IDOCK:   -4.78 KCAL/MOL
REMARK 922        TOTAL FREE ENERGY PREDICTED BY IDOCK:   -7.23 KCAL/MOL
REMARK 923 INTER-LIGAND FREE ENERGY PREDICTED BY IDOCK:   -6.28 KCAL/MOL
REMARK 924 INTRA-LIGAND FREE ENERGY PREDICTED BY IDOCK:   -0.95 KCAL/MOL
REMARK 927      BINDING AFFINITY PREDICTED BY RF-SCORE:    0.00 PKD
ROOT
HETATM    1  C   UNL     1      -9.836  10.764  63.692  1.00  0.00    -0.350 C  
HETATM    2  N   UNL     1      -8.811  11.391  64.513  1.00  0.00    -0.368 NA 
HETATM    3  H   UNL     1      -9.084  12.335  64.788  1.00  0.00     0.000 HD 
ENDROOT
BRANCH   2   4
HETATM    4  C   UNL     1      -8.467  10.575  65.683  1.00  0.00    -0.176 C  
BRANCH   4   5
HETATM    5  C   UNL     1      -9.676   9.707  66.040  1.00  0.00    -0.331 C  
BRANCH   5   6
HETATM    6  C   UNL     1     -10.305  10.061  67.402  1.00  0.00    -0.238 C  
BRANCH   6   7
HETATM    7  C   UNL     1     -10.492   8.782  68.211  1.00  0.00    -0.236 A  
HETATM    8  C   UNL     1     -10.935   6.410  69.652  1.00  0.00    -0.420 A  
HETATM    9  C   UNL     1     -10.623   8.808  69.608  1.00  0.00    -0.220 A  
HETATM   10  C   UNL     1     -10.599   7.546  67.549  1.00  0.00    -0.331 A  
HETATM   11  C   UNL     1     -10.838   7.628  70.323  1.00  0.00    -0.253 A  
HETATM   12  C   UNL     1     -10.817   6.369  68.266  1.00  0.00    -0.384 A  
ENDBRANCH   6   7
BRANCH   6  13
HETATM   13  O   UNL     1     -11.548  10.773  67.222  1.00  0.00    -0.439 OA 
BRANCH  13  14
HETATM   14  C   UNL     1     -11.633  12.001  67.832  1.00  0.00    -0.337 A  
HETATM   15  C   UNL     1     -11.382  12.191  69.199  1.00  0.00    -0.333 A  
HETATM   16  C   UNL     1     -11.927  14.533  69.034  1.00  0.00    -0.334 A  
HETATM   17  C   UNL     1     -11.543  13.438  69.799  1.00  0.00    -0.305 A  
HETATM   18  C   UNL     1     -12.110  14.382  67.660  1.00  0.00    -0.312 A  
HETATM   19  C   UNL     1     -11.940  13.128  67.042  1.00  0.00    -0.412 A  
HETATM   20  C   UNL     1     -12.113  13.039  65.550  1.00  0.00    -0.501 C  
ENDBRANCH  13  14
ENDBRANCH   6  13
ENDBRANCH   5   6
ENDBRANCH   4   5
ENDBRANCH   2   4
TORSDOF 6
ENDMDL
MODEL       97
REMARK 921   NORMALIZED FREE ENERGY PREDICTED BY IDOCK:   -4.77 KCAL/MOL
REMARK 922        TOTAL FREE ENERGY PREDICTED BY IDOCK:   -7.22 KCAL/MOL
REMARK 923 INTER-LIGAND FREE ENERGY PREDICTED BY IDOCK:   -6.78 KCAL/MOL
REMARK 924 INTRA-LIGAND FREE ENERGY PREDICTED BY IDOCK:   -0.44 KCAL/MOL
REMARK 927      BINDING AFFINITY PREDICTED BY RF-SCORE:    0.00 PKD
ROOT
HETATM    1  C   UNL     1     -12.037  14.365  64.139  1.00  0.00    -0.376 C  
HETATM    2  N   UNL     1     -12.051  13.497  65.307  1.00  0.00    -0.386 NA 
HETATM    3  H   UNL     1     -11.304  12.804  65.262  1.00  0.00     0.000 HD 
ENDROOT
BRANCH   2   4
HETATM    4  C   UNL     1     -11.996  14.258  66.561  1.00  0.00    -0.427 C  
BRANCH   4   5
HETATM    5  C   UNL     1     -10.779  13.785  67.360  1.00  0.00    -0.279 C  
BRANCH   5   6
HETATM    6  C   UNL     1     -11.130  13.293  68.778  1.00  0.00    -0.266 C  
BRANCH   6   7
HETATM    7  C   UNL     1     -11.043  11.771  68.812  1.00  0.00    -0.293 A  
HETATM    8  C   UNL     1     -10.785   8.975  68.932  1.00  0.00    -0.149 A  
HETATM    9  C   UNL     1     -10.894  11.016  67.639  1.00  0.00    -0.306 A  
HETATM   10  C   UNL     1     -11.048  11.099  70.047  1.00  0.00    -0.174 A  
HETATM   11  C   UNL     1     -10.771   9.626  67.700  1.00  0.00    -0.324 A  
HETATM   12  C   UNL     1     -10.923   9.711  70.106  1.00  0.00    -0.320 A  
ENDBRANCH   6   7
BRANCH   6  13
HETATM   13  O   UNL     1     -12.432  13.770  69.177  1.00  0.00    -0.216 OA 
BRANCH  13  14
HETATM   14  C   UNL     1     -12.545  14.199  70.478  1.00  0.00    -0.342 A  
HETATM   15  C   UNL     1     -13.153  13.430  71.482  1.00  0.00    -0.427 A  
HETATM   16  C   UNL     1     -12.832  15.186  73.101  1.00  0.00    -0.606 A  
HETATM   17  C   UNL     1     -13.310  13.923  72.776  1.00  0.00    -0.567 A  
HETATM   18  C   UNL     1     -12.160  15.937  72.138  1.00  0.00    -0.596 A  
HETATM   19  C   UNL     1     -11.986  15.444  70.830  1.00  0.00    -0.406 A  
HETATM   20  C   UNL     1     -11.216  16.285  69.847  1.00  0.00    -0.319 C  
ENDBRANCH  13  14
ENDBRANCH   6  13
ENDBRANCH   5   6
ENDBRANCH   4   5
ENDBRANCH   2   4
TORSDOF 6
ENDMDL
MODEL       98
REMARK 921   NORMALIZED FREE ENERGY PREDICTED BY IDOCK:   -4.76 KCAL/MOL
REMARK 922        TOTAL FREE ENERGY PREDICTED BY IDOCK:   -7.21 KCAL/MOL
REMARK 923 INTER-LIGAND FREE ENERGY PREDICTED BY IDOCK:   -5.75 KCAL/MOL
REMARK 924 INTRA-LIGAND FREE ENERGY PREDICTED BY IDOCK:   -1.46 KCAL/MOL
REMARK 927      BINDING AFFINITY PREDICTED BY RF-SCORE:    0.00 PKD
ROOT
HETATM    1  C   UNL     1      -9.564   9.002  68.429  1.00  0.00    -0.152 C  
HETATM    2  N   UNL     1      -9.597  10.368  68.930  1.00  0.00    -0.183 NA 
HETATM    3  H   UNL     1      -9.372  11.037  68.193  1.00  0.00     0.000 HD 
ENDROOT
BRANCH   2   4
HETATM    4  C   UNL     1     -10.879  10.691  69.567  1.00  0.00    -0.259 C  
BRANCH   4   5
HETATM    5  C   UNL     1     -11.906  10.981  68.470  1.00  0.00    -0.286 C  
BRANCH   5   6
HETATM    6  C   UNL     1     -11.779  12.395  67.870  1.00  0.00    -0.360 C  
BRANCH   6   7
HETATM    7  C   UNL     1     -11.715  12.288  66.350  1.00  0.00    -0.431 A  
HETATM    8  C   UNL     1     -11.486  12.117  63.554  1.00  0.00    -0.544 A  
HETATM    9  C   UNL     1     -12.432  13.162  65.520  1.00  0.00    -0.516 A  
HETATM   10  C   UNL     1     -10.871  11.334  65.753  1.00  0.00    -0.257 A  
HETATM   11  C   UNL     1     -12.321  13.072  64.131  1.00  0.00    -0.429 A  
HETATM   12  C   UNL     1     -10.760  11.249  64.365  1.00  0.00    -0.407 A  
ENDBRANCH   6   7
BRANCH   6  13
HETATM   13  O   UNL     1     -10.631  13.081  68.413  1.00  0.00    -0.239 OA 
BRANCH  13  14
HETATM   14  C   UNL     1     -10.314  14.283  67.829  1.00  0.00    -0.238 A  
HETATM   15  C   UNL     1     -11.100  15.435  67.983  1.00  0.00    -0.312 A  
HETATM   16  C   UNL     1      -9.655  16.689  66.517  1.00  0.00    -0.292 A  
HETATM   17  C   UNL     1     -10.785  16.621  67.322  1.00  0.00    -0.227 A  
HETATM   18  C   UNL     1      -8.819  15.577  66.409  1.00  0.00    -0.359 A  
HETATM   19  C   UNL     1      -9.123  14.378  67.081  1.00  0.00    -0.238 A  
HETATM   20  C   UNL     1      -8.160  13.227  66.957  1.00  0.00    -0.020 C  
ENDBRANCH  13  14
ENDBRANCH   6  13
ENDBRANCH   5   6
ENDBRANCH   4   5
ENDBRANCH   2   4
TORSDOF 6
ENDMDL
MODEL       99
REMARK 921   NORMALIZED FREE ENERGY PREDICTED BY IDOCK:   -4.75 KCAL/MOL
REMARK 922        TOTAL FREE ENERGY PREDICTED BY IDOCK:   -7.20 KCAL/MOL
REMARK 923 INTER-LIGAND FREE ENERGY PREDICTED BY IDOCK:   -6.14 KCAL/MOL
REMARK 924 INTRA-LIGAND FREE ENERGY PREDICTED BY IDOCK:   -1.06 KCAL/MOL
REMARK 927      BINDING AFFINITY PREDICTED BY RF-SCORE:    0.00 PKD
ROOT
HETATM    1  C   UNL     1      -6.634  11.061  69.231  1.00  0.00    -0.091 C  
HETATM    2  N   UNL     1      -7.145  12.397  69.498  1.00  0.00    -0.331 NA 
HETATM    3  H   UNL     1      -6.477  12.948  70.038  1.00  0.00     0.000 HD 
ENDROOT
BRANCH   2   4
HETATM    4  C   UNL     1      -7.536  13.094  68.267  1.00  0.00    -0.129 C  
BRANCH   4   5
HETATM    5  C   UNL     1      -8.822  13.878  68.542  1.00  0.00    -0.137 C  
BRANCH   5   6
HETATM    6  C   UNL     1     -10.064  13.279  67.855  1.00  0.00    -0.235 C  
BRANCH   6   7
HETATM    7  C   UNL     1     -10.798  12.382  68.847  1.00  0.00    -0.239 A  
HETATM    8  C   UNL     1     -12.104  10.790  70.759  1.00  0.00    -0.473 A  
HETATM    9  C   UNL     1     -10.497  11.017  68.967  1.00  0.00    -0.242 A  
HETATM   10  C   UNL     1     -11.758  12.937  69.712  1.00  0.00    -0.351 A  
HETATM   11  C   UNL     1     -11.151  10.226  69.914  1.00  0.00    -0.362 A  
HETATM   12  C   UNL     1     -12.408  12.145  70.659  1.00  0.00    -0.385 A  
ENDBRANCH   6   7
BRANCH   6  13
HETATM   13  O   UNL     1      -9.693  12.568  66.655  1.00  0.00    -0.229 OA 
BRANCH  13  14
HETATM   14  C   UNL     1     -10.515  12.746  65.569  1.00  0.00    -0.287 A  
HETATM   15  C   UNL     1     -11.163  13.960  65.297  1.00  0.00    -0.313 A  
HETATM   16  C   UNL     1     -12.267  13.008  63.378  1.00  0.00    -0.552 A  
HETATM   17  C   UNL     1     -12.043  14.086  64.223  1.00  0.00    -0.476 A  
HETATM   18  C   UNL     1     -11.576  11.814  63.586  1.00  0.00    -0.521 A  
HETATM   19  C   UNL     1     -10.677  11.679  64.662  1.00  0.00    -0.371 A  
HETATM   20  C   UNL     1      -9.932  10.380  64.810  1.00  0.00    -0.409 C  
ENDBRANCH  13  14
ENDBRANCH   6  13
ENDBRANCH   5   6
ENDBRANCH   4   5
ENDBRANCH   2   4
TORSDOF 6
ENDMDL
MODEL      100
REMARK 921   NORMALIZED FREE ENERGY PREDICTED BY IDOCK:   -4.75 KCAL/MOL
REMARK 922        TOTAL FREE ENERGY PREDICTED BY IDOCK:   -7.19 KCAL/MOL
REMARK 923 INTER-LIGAND FREE ENERGY PREDICTED BY IDOCK:   -6.47 KCAL/MOL
REMARK 924 INTRA-LIGAND FREE ENERGY PREDICTED BY IDOCK:   -0.73 KCAL/MOL
REMARK 927      BINDING AFFINITY PREDICTED BY RF-SCORE:    0.00 PKD
ROOT
HETATM    1  C   UNL     1     -10.209  17.699  66.553  1.00  0.00    -0.355 C  
HETATM    2  N   UNL     1      -9.972  17.787  67.986  1.00  0.00    -0.315 NA 
HETATM    3  H   UNL     1     -10.545  18.516  68.411  1.00  0.00     0.000 HD 
ENDROOT
BRANCH   2   4
HETATM    4  C   UNL     1     -10.170  16.497  68.657  1.00  0.00    -0.264 C  
BRANCH   4   5
HETATM    5  C   UNL     1     -11.625  16.066  68.458  1.00  0.00    -0.316 C  
BRANCH   5   6
HETATM    6  C   UNL     1     -12.007  14.806  69.259  1.00  0.00    -0.294 C  
BRANCH   6   7
HETATM    7  C   UNL     1     -12.552  15.228  70.619  1.00  0.00    -0.471 A  
HETATM    8  C   UNL     1     -13.499  15.919  73.174  1.00  0.00    -0.650 A  
HETATM    9  C   UNL     1     -13.922  15.162  70.916  1.00  0.00    -0.256 A  
HETATM   10  C   UNL     1     -11.664  15.636  71.631  1.00  0.00    -0.521 A  
HETATM   11  C   UNL     1     -14.391  15.510  72.184  1.00  0.00    -0.598 A  
HETATM   12  C   UNL     1     -12.136  15.981  72.898  1.00  0.00    -0.626 A  
ENDBRANCH   6   7
BRANCH   6  13
HETATM   13  O   UNL     1     -10.879  13.915  69.380  1.00  0.00    -0.186 OA 
BRANCH  13  14
HETATM   14  C   UNL     1     -11.169  12.572  69.392  1.00  0.00    -0.149 A  
HETATM   15  C   UNL     1     -11.875  11.955  70.436  1.00  0.00    -0.329 A  
HETATM   16  C   UNL     1     -11.638   9.793  69.396  1.00  0.00     0.072 A  
HETATM   17  C   UNL     1     -12.093  10.578  70.447  1.00  0.00    -0.418 A  
HETATM   18  C   UNL     1     -10.999  10.396  68.313  1.00  0.00    -0.321 A  
HETATM   19  C   UNL     1     -10.782  11.787  68.286  1.00  0.00    -0.246 A  
HETATM   20  C   UNL     1     -10.123  12.383  67.071  1.00  0.00    -0.223 C  
ENDBRANCH  13  14
ENDBRANCH   6  13
ENDBRANCH   5   6
ENDBRANCH   4   5
ENDBRANCH   2   4
TORSDOF 6
ENDMDL
MODEL      101
REMARK 921   NORMALIZED FREE ENERGY PREDICTED BY IDOCK:   -4.73 KCAL/MOL
REMARK 922        TOTAL FREE ENERGY PREDICTED BY IDOCK:   -7.17 KCAL/MOL
REMARK 923 INTER-LIGAND FREE ENERGY PREDICTED BY IDOCK:   -6.32 KCAL/MOL
REMARK 924 INTRA-LIGAND FREE ENERGY PREDICTED BY IDOCK:   -0.85 KCAL/MOL
REMARK 927      BINDING AFFINITY PREDICTED BY RF-SCORE:    0.00 PKD
ROOT
HETATM    1  C   UNL     1      -7.149  11.863  68.740  1.00  0.00    -0.111 C  
HETATM    2  N   UNL     1      -8.469  11.286  68.946  1.00  0.00    -0.322 NA 
HETATM    3  H   UNL     1      -9.180  12.011  69.031  1.00  0.00     0.000 HD 
ENDROOT
BRANCH   2   4
HETATM    4  C   UNL     1      -8.817  10.320  67.897  1.00  0.00    -0.122 C  
BRANCH   4   5
HETATM    5  C   UNL     1     -10.260   9.860  68.123  1.00  0.00    -0.210 C  
BRANCH   5   6
HETATM    6  C   UNL     1     -11.031  10.731  69.133  1.00  0.00    -0.244 C  
BRANCH   6   7
HETATM    7  C   UNL     1     -11.449   9.867  70.318  1.00  0.00    -0.349 A  
HETATM    8  C   UNL     1     -12.264   8.367  72.551  1.00  0.00    -0.381 A  
HETATM    9  C   UNL     1     -10.502   9.256  71.154  1.00  0.00    -0.401 A  
HETATM   10  C   UNL     1     -12.812   9.721  70.629  1.00  0.00    -0.138 A  
HETATM   11  C   UNL     1     -10.908   8.507  72.260  1.00  0.00    -0.418 A  
HETATM   12  C   UNL     1     -13.216   8.974  71.736  1.00  0.00    -0.445 A  
ENDBRANCH   6   7
BRANCH   6  13
HETATM   13  O   UNL     1     -12.162  11.368  68.502  1.00  0.00    -0.557 OA 
BRANCH  13  14
HETATM   14  C   UNL     1     -11.903  12.549  67.850  1.00  0.00    -0.323 A  
HETATM   15  C   UNL     1     -11.744  12.630  66.458  1.00  0.00    -0.463 A  
HETATM   16  C   UNL     1     -11.274  14.991  66.591  1.00  0.00    -0.311 A  
HETATM   17  C   UNL     1     -11.417  13.834  65.836  1.00  0.00    -0.330 A  
HETATM   18  C   UNL     1     -11.501  14.947  67.966  1.00  0.00    -0.355 A  
HETATM   19  C   UNL     1     -11.842  13.738  68.604  1.00  0.00    -0.409 A  
HETATM   20  C   UNL     1     -12.113  13.765  70.084  1.00  0.00    -0.429 C  
ENDBRANCH  13  14
ENDBRANCH   6  13
ENDBRANCH   5   6
ENDBRANCH   4   5
ENDBRANCH   2   4
TORSDOF 6
ENDMDL
MODEL      102
REMARK 921   NORMALIZED FREE ENERGY PREDICTED BY IDOCK:   -4.71 KCAL/MOL
REMARK 922        TOTAL FREE ENERGY PREDICTED BY IDOCK:   -7.14 KCAL/MOL
REMARK 923 INTER-LIGAND FREE ENERGY PREDICTED BY IDOCK:   -6.37 KCAL/MOL
REMARK 924 INTRA-LIGAND FREE ENERGY PREDICTED BY IDOCK:   -0.76 KCAL/MOL
REMARK 927      BINDING AFFINITY PREDICTED BY RF-SCORE:    0.00 PKD
ROOT
HETATM    1  C   UNL     1     -11.967  15.565  71.091  1.00  0.00    -0.382 C  
HETATM    2  N   UNL     1     -10.700  15.142  70.513  1.00  0.00    -0.507 NA 
HETATM    3  H   UNL     1     -10.122  14.662  71.202  1.00  0.00     0.000 HD 
ENDROOT
BRANCH   2   4
HETATM    4  C   UNL     1     -10.889  14.321  69.312  1.00  0.00    -0.215 C  
BRANCH   4   5
HETATM    5  C   UNL     1      -9.688  14.533  68.387  1.00  0.00    -0.224 C  
BRANCH   5   6
HETATM    6  C   UNL     1     -10.049  15.242  67.066  1.00  0.00    -0.248 C  
BRANCH   6   7
HETATM    7  C   UNL     1     -10.281  14.191  65.986  1.00  0.00    -0.318 A  
HETATM    8  C   UNL     1     -10.819  12.250  64.025  1.00  0.00    -0.439 A  
HETATM    9  C   UNL     1      -9.677  12.926  66.046  1.00  0.00    -0.228 A  
HETATM   10  C   UNL     1     -11.170  14.461  64.930  1.00  0.00    -0.392 A  
HETATM   11  C   UNL     1      -9.941  11.965  65.069  1.00  0.00    -0.276 A  
HETATM   12  C   UNL     1     -11.434  13.497  63.955  1.00  0.00    -0.357 A  
ENDBRANCH   6   7
BRANCH   6  13
HETATM   13  O   UNL     1      -9.020  16.183  66.693  1.00  0.00    -0.209 OA 
BRANCH  13  14
HETATM   14  C   UNL     1      -9.248  17.493  67.038  1.00  0.00    -0.248 A  
HETATM   15  C   UNL     1     -10.399  17.911  67.723  1.00  0.00    -0.393 A  
HETATM   16  C   UNL     1      -9.694  20.214  67.621  1.00  0.00    -0.551 A  
HETATM   17  C   UNL     1     -10.629  19.258  67.998  1.00  0.00    -0.431 A  
HETATM   18  C   UNL     1      -8.509  19.813  67.005  1.00  0.00    -0.366 A  
HETATM   19  C   UNL     1      -8.262  18.453  66.733  1.00  0.00    -0.267 A  
HETATM   20  C   UNL     1      -6.947  18.081  66.102  1.00  0.00    -0.324 C  
ENDBRANCH  13  14
ENDBRANCH   6  13
ENDBRANCH   5   6
ENDBRANCH   4   5
ENDBRANCH   2   4
TORSDOF 6
ENDMDL
MODEL      103
REMARK 921   NORMALIZED FREE ENERGY PREDICTED BY IDOCK:   -4.69 KCAL/MOL
REMARK 922        TOTAL FREE ENERGY PREDICTED BY IDOCK:   -7.11 KCAL/MOL
REMARK 923 INTER-LIGAND FREE ENERGY PREDICTED BY IDOCK:   -5.93 KCAL/MOL
REMARK 924 INTRA-LIGAND FREE ENERGY PREDICTED BY IDOCK:   -1.19 KCAL/MOL
REMARK 927      BINDING AFFINITY PREDICTED BY RF-SCORE:    0.00 PKD
ROOT
HETATM    1  C   UNL     1     -12.242  12.116  63.374  1.00  0.00    -0.530 C  
HETATM    2  N   UNL     1     -12.710  13.359  63.970  1.00  0.00    -0.659 NA 
HETATM    3  H   UNL     1     -13.630  13.616  63.613  1.00  0.00     0.000 HD 
ENDROOT
BRANCH   2   4
HETATM    4  C   UNL     1     -12.706  13.302  65.437  1.00  0.00    -0.399 C  
BRANCH   4   5
HETATM    5  C   UNL     1     -11.857  14.461  65.964  1.00  0.00    -0.379 C  
BRANCH   5   6
HETATM    6  C   UNL     1     -10.821  14.033  67.020  1.00  0.00    -0.290 C  
BRANCH   6   7
HETATM    7  C   UNL     1     -11.467  14.085  68.401  1.00  0.00    -0.340 A  
HETATM    8  C   UNL     1     -12.569  14.243  70.982  1.00  0.00    -0.428 A  
HETATM    9  C   UNL     1     -11.640  12.929  69.176  1.00  0.00    -0.375 A  
HETATM   10  C   UNL     1     -11.845  15.324  68.947  1.00  0.00    -0.344 A  
HETATM   11  C   UNL     1     -12.192  13.008  70.456  1.00  0.00    -0.392 A  
HETATM   12  C   UNL     1     -12.395  15.401  70.228  1.00  0.00    -0.425 A  
ENDBRANCH   6   7
BRANCH   6  13
HETATM   13  O   UNL     1      -9.640  14.859  66.943  1.00  0.00    -0.228 OA 
BRANCH  13  14
HETATM   14  C   UNL     1      -8.568  14.451  67.700  1.00  0.00    -0.185 A  
HETATM   15  C   UNL     1      -7.997  13.174  67.584  1.00  0.00    -0.174 A  
HETATM   16  C   UNL     1      -6.434  13.648  69.356  1.00  0.00    -0.106 A  
HETATM   17  C   UNL     1      -6.953  12.770  68.414  1.00  0.00    -0.095 A  
HETATM   18  C   UNL     1      -6.936  14.947  69.437  1.00  0.00    -0.170 A  
HETATM   19  C   UNL     1      -7.984  15.369  68.596  1.00  0.00    -0.149 A  
HETATM   20  C   UNL     1      -8.455  16.794  68.704  1.00  0.00    -0.259 C  
ENDBRANCH  13  14
ENDBRANCH   6  13
ENDBRANCH   5   6
ENDBRANCH   4   5
ENDBRANCH   2   4
TORSDOF 6
ENDMDL
MODEL      104
REMARK 921   NORMALIZED FREE ENERGY PREDICTED BY IDOCK:   -4.66 KCAL/MOL
REMARK 922        TOTAL FREE ENERGY PREDICTED BY IDOCK:   -7.07 KCAL/MOL
REMARK 923 INTER-LIGAND FREE ENERGY PREDICTED BY IDOCK:   -6.04 KCAL/MOL
REMARK 924 INTRA-LIGAND FREE ENERGY PREDICTED BY IDOCK:   -1.03 KCAL/MOL
REMARK 927      BINDING AFFINITY PREDICTED BY RF-SCORE:    0.00 PKD
ROOT
HETATM    1  C   UNL     1      -6.723   9.378  64.218  1.00  0.00    -0.095 C  
HETATM    2  N   UNL     1      -7.124  10.625  64.854  1.00  0.00    -0.359 NA 
HETATM    3  H   UNL     1      -7.109  11.399  64.191  1.00  0.00     0.000 HD 
ENDROOT
BRANCH   2   4
HETATM    4  C   UNL     1      -8.432  10.512  65.511  1.00  0.00    -0.173 C  
BRANCH   4   5
HETATM    5  C   UNL     1      -8.538  11.614  66.569  1.00  0.00    -0.164 C  
BRANCH   5   6
HETATM    6  C   UNL     1      -9.960  11.786  67.135  1.00  0.00    -0.203 C  
BRANCH   6   7
HETATM    7  C   UNL     1     -10.736  12.753  66.247  1.00  0.00    -0.291 A  
HETATM    8  C   UNL     1     -12.157  14.462  64.526  1.00  0.00    -0.498 A  
HETATM    9  C   UNL     1     -10.206  14.000  65.880  1.00  0.00    -0.332 A  
HETATM   10  C   UNL     1     -11.986  12.375  65.726  1.00  0.00    -0.437 A  
HETATM   11  C   UNL     1     -10.916  14.850  65.029  1.00  0.00    -0.432 A  
HETATM   12  C   UNL     1     -12.692  13.225  64.874  1.00  0.00    -0.391 A  
ENDBRANCH   6   7
BRANCH   6  13
HETATM   13  O   UNL     1      -9.915  12.229  68.507  1.00  0.00    -0.213 OA 
BRANCH  13  14
HETATM   14  C   UNL     1     -10.694  11.526  69.395  1.00  0.00    -0.068 A  
HETATM   15  C   UNL     1     -10.417  10.202  69.767  1.00  0.00    -0.301 A  
HETATM   16  C   UNL     1     -12.395  10.114  71.142  1.00  0.00    -0.488 A  
HETATM   17  C   UNL     1     -11.266   9.497  70.618  1.00  0.00    -0.364 A  
HETATM   18  C   UNL     1     -12.648  11.452  70.844  1.00  0.00    -0.453 A  
HETATM   19  C   UNL     1     -11.792  12.177  69.994  1.00  0.00    -0.383 A  
HETATM   20  C   UNL     1     -12.098  13.629  69.742  1.00  0.00    -0.396 C  
ENDBRANCH  13  14
ENDBRANCH   6  13
ENDBRANCH   5   6
ENDBRANCH   4   5
ENDBRANCH   2   4
TORSDOF 6
ENDMDL
MODEL      105
REMARK 921   NORMALIZED FREE ENERGY PREDICTED BY IDOCK:   -4.65 KCAL/MOL
REMARK 922        TOTAL FREE ENERGY PREDICTED BY IDOCK:   -7.06 KCAL/MOL
REMARK 923 INTER-LIGAND FREE ENERGY PREDICTED BY IDOCK:   -6.13 KCAL/MOL
REMARK 924 INTRA-LIGAND FREE ENERGY PREDICTED BY IDOCK:   -0.92 KCAL/MOL
REMARK 927      BINDING AFFINITY PREDICTED BY RF-SCORE:    0.00 PKD
ROOT
HETATM    1  C   UNL     1      -6.133  12.321  67.125  1.00  0.00    -0.119 C  
HETATM    2  N   UNL     1      -7.558  12.400  67.408  1.00  0.00    -0.153 NA 
HETATM    3  H   UNL     1      -7.815  11.789  68.183  1.00  0.00     0.000 HD 
ENDROOT
BRANCH   2   4
HETATM    4  C   UNL     1      -7.997  13.779  67.650  1.00  0.00    -0.174 C  
BRANCH   4   5
HETATM    5  C   UNL     1      -9.526  13.816  67.601  1.00  0.00    -0.217 C  
BRANCH   5   6
HETATM    6  C   UNL     1     -10.083  14.760  66.517  1.00  0.00    -0.273 C  
BRANCH   6   7
HETATM    7  C   UNL     1     -10.786  13.930  65.449  1.00  0.00    -0.321 A  
HETATM    8  C   UNL     1     -11.984  12.390  63.425  1.00  0.00    -0.595 A  
HETATM    9  C   UNL     1     -11.777  14.481  64.623  1.00  0.00    -0.438 A  
HETATM   10  C   UNL     1     -10.399  12.595  65.233  1.00  0.00    -0.309 A  
HETATM   11  C   UNL     1     -12.376  13.714  63.621  1.00  0.00    -0.328 A  
HETATM   12  C   UNL     1     -10.996  11.831  64.230  1.00  0.00    -0.419 A  
ENDBRANCH   6   7
BRANCH   6  13
HETATM   13  O   UNL     1      -9.032  15.577  65.962  1.00  0.00    -0.324 OA 
BRANCH  13  14
HETATM   14  C   UNL     1      -9.150  16.931  66.163  1.00  0.00    -0.230 A  
HETATM   15  C   UNL     1     -10.384  17.598  66.143  1.00  0.00    -0.334 A  
HETATM   16  C   UNL     1      -9.305  19.727  66.483  1.00  0.00    -0.486 A  
HETATM   17  C   UNL     1     -10.462  18.983  66.285  1.00  0.00    -0.534 A  
HETATM   18  C   UNL     1      -8.076  19.076  66.580  1.00  0.00    -0.300 A  
HETATM   19  C   UNL     1      -7.988  17.676  66.449  1.00  0.00    -0.309 A  
HETATM   20  C   UNL     1      -6.638  17.030  66.603  1.00  0.00    -0.272 C  
ENDBRANCH  13  14
ENDBRANCH   6  13
ENDBRANCH   5   6
ENDBRANCH   4   5
ENDBRANCH   2   4
TORSDOF 6
ENDMDL
MODEL      106
REMARK 921   NORMALIZED FREE ENERGY PREDICTED BY IDOCK:   -4.65 KCAL/MOL
REMARK 922        TOTAL FREE ENERGY PREDICTED BY IDOCK:   -7.06 KCAL/MOL
REMARK 923 INTER-LIGAND FREE ENERGY PREDICTED BY IDOCK:   -5.98 KCAL/MOL
REMARK 924 INTRA-LIGAND FREE ENERGY PREDICTED BY IDOCK:   -1.07 KCAL/MOL
REMARK 927      BINDING AFFINITY PREDICTED BY RF-SCORE:    0.00 PKD
ROOT
HETATM    1  C   UNL     1     -13.186  12.525  71.924  1.00  0.00    -0.392 C  
HETATM    2  N   UNL     1     -13.107  11.072  71.964  1.00  0.00    -0.517 NA 
HETATM    3  H   UNL     1     -13.954  10.667  72.363  1.00  0.00     0.000 HD 
ENDROOT
BRANCH   2   4
HETATM    4  C   UNL     1     -12.814  10.499  70.646  1.00  0.00    -0.325 C  
BRANCH   4   5
HETATM    5  C   UNL     1     -11.861  11.444  69.909  1.00  0.00    -0.435 C  
BRANCH   5   6
HETATM    6  C   UNL     1     -11.336  10.872  68.578  1.00  0.00    -0.299 C  
BRANCH   6   7
HETATM    7  C   UNL     1     -10.442   9.671  68.871  1.00  0.00    -0.234 A  
HETATM    8  C   UNL     1      -8.706   7.518  69.372  1.00  0.00    -0.137 A  
HETATM    9  C   UNL     1     -10.594   8.456  68.187  1.00  0.00    -0.175 A  
HETATM   10  C   UNL     1      -9.395   9.791  69.803  1.00  0.00    -0.249 A  
HETATM   11  C   UNL     1      -9.734   7.385  68.441  1.00  0.00    -0.158 A  
HETATM   12  C   UNL     1      -8.536   8.721  70.053  1.00  0.00    -0.133 A  
ENDBRANCH   6   7
BRANCH   6  13
HETATM   13  O   UNL     1     -10.646  11.888  67.820  1.00  0.00    -0.195 OA 
BRANCH  13  14
HETATM   14  C   UNL     1     -10.999  11.999  66.497  1.00  0.00    -0.295 A  
HETATM   15  C   UNL     1     -12.148  12.684  66.072  1.00  0.00    -0.429 A  
HETATM   16  C   UNL     1     -11.716  12.099  63.774  1.00  0.00    -0.576 A  
HETATM   17  C   UNL     1     -12.513  12.720  64.727  1.00  0.00    -0.539 A  
HETATM   18  C   UNL     1     -10.532  11.476  64.166  1.00  0.00    -0.408 A  
HETATM   19  C   UNL     1     -10.148  11.443  65.521  1.00  0.00    -0.293 A  
HETATM   20  C   UNL     1      -8.839  10.791  65.876  1.00  0.00    -0.191 C  
ENDBRANCH  13  14
ENDBRANCH   6  13
ENDBRANCH   5   6
ENDBRANCH   4   5
ENDBRANCH   2   4
TORSDOF 6
ENDMDL
MODEL      107
REMARK 921   NORMALIZED FREE ENERGY PREDICTED BY IDOCK:   -4.64 KCAL/MOL
REMARK 922        TOTAL FREE ENERGY PREDICTED BY IDOCK:   -7.04 KCAL/MOL
REMARK 923 INTER-LIGAND FREE ENERGY PREDICTED BY IDOCK:   -6.12 KCAL/MOL
REMARK 924 INTRA-LIGAND FREE ENERGY PREDICTED BY IDOCK:   -0.92 KCAL/MOL
REMARK 927      BINDING AFFINITY PREDICTED BY RF-SCORE:    0.00 PKD
ROOT
HETATM    1  C   UNL     1      -9.516  10.603  65.482  1.00  0.00    -0.214 C  
HETATM    2  N   UNL     1      -8.841  11.050  66.692  1.00  0.00    -0.159 NA 
HETATM    3  H   UNL     1      -8.709  12.061  66.689  1.00  0.00     0.000 HD 
ENDROOT
BRANCH   2   4
HETATM    4  C   UNL     1      -9.536  10.608  67.906  1.00  0.00    -0.162 C  
BRANCH   4   5
HETATM    5  C   UNL     1     -11.043  10.757  67.682  1.00  0.00    -0.384 C  
BRANCH   5   6
HETATM    6  C   UNL     1     -11.744  11.601  68.764  1.00  0.00    -0.330 C  
BRANCH   6   7
HETATM    7  C   UNL     1     -11.592  13.079  68.419  1.00  0.00    -0.370 A  
HETATM    8  C   UNL     1     -11.412  15.821  67.830  1.00  0.00    -0.175 A  
HETATM    9  C   UNL     1     -11.557  13.524  67.089  1.00  0.00    -0.393 A  
HETATM   10  C   UNL     1     -11.547  14.035  69.448  1.00  0.00    -0.349 A  
HETATM   11  C   UNL     1     -11.462  14.886  66.798  1.00  0.00    -0.304 A  
HETATM   12  C   UNL     1     -11.455  15.397  69.155  1.00  0.00    -0.344 A  
ENDBRANCH   6   7
BRANCH   6  13
HETATM   13  O   UNL     1     -11.218  11.295  70.073  1.00  0.00    -0.238 OA 
BRANCH  13  14
HETATM   14  C   UNL     1     -11.856  10.290  70.759  1.00  0.00    -0.365 A  
HETATM   15  C   UNL     1     -11.515   8.936  70.615  1.00  0.00    -0.280 A  
HETATM   16  C   UNL     1     -13.275   8.274  72.123  1.00  0.00    -0.297 A  
HETATM   17  C   UNL     1     -12.227   7.936  71.277  1.00  0.00    -0.314 A  
HETATM   18  C   UNL     1     -13.582   9.617  72.338  1.00  0.00    -0.397 A  
HETATM   19  C   UNL     1     -12.863  10.635  71.683  1.00  0.00    -0.570 A  
HETATM   20  C   UNL     1     -13.215  12.066  71.987  1.00  0.00    -0.481 C  
ENDBRANCH  13  14
ENDBRANCH   6  13
ENDBRANCH   5   6
ENDBRANCH   4   5
ENDBRANCH   2   4
TORSDOF 6
ENDMDL
MODEL      108
REMARK 921   NORMALIZED FREE ENERGY PREDICTED BY IDOCK:   -4.64 KCAL/MOL
REMARK 922        TOTAL FREE ENERGY PREDICTED BY IDOCK:   -7.04 KCAL/MOL
REMARK 923 INTER-LIGAND FREE ENERGY PREDICTED BY IDOCK:   -5.98 KCAL/MOL
REMARK 924 INTRA-LIGAND FREE ENERGY PREDICTED BY IDOCK:   -1.06 KCAL/MOL
REMARK 927      BINDING AFFINITY PREDICTED BY RF-SCORE:    0.00 PKD
ROOT
HETATM    1  C   UNL     1     -10.827  15.270  65.162  1.00  0.00    -0.426 C  
HETATM    2  N   UNL     1     -10.483  15.986  66.382  1.00  0.00    -0.307 NA 
HETATM    3  H   UNL     1     -10.822  16.947  66.354  1.00  0.00     0.000 HD 
ENDROOT
BRANCH   2   4
HETATM    4  C   UNL     1     -10.958  15.289  67.582  1.00  0.00    -0.311 C  
BRANCH   4   5
HETATM    5  C   UNL     1      -9.817  14.421  68.121  1.00  0.00    -0.223 C  
BRANCH   5   6
HETATM    6  C   UNL     1     -10.236  12.965  68.405  1.00  0.00    -0.237 C  
BRANCH   6   7
HETATM    7  C   UNL     1      -9.714  12.070  67.287  1.00  0.00    -0.190 A  
HETATM    8  C   UNL     1      -8.686  10.505  65.191  1.00  0.00    -0.197 A  
HETATM    9  C   UNL     1     -10.551  11.614  66.258  1.00  0.00    -0.301 A  
HETATM   10  C   UNL     1      -8.349  11.736  67.239  1.00  0.00    -0.162 A  
HETATM   11  C   UNL     1     -10.040  10.832  65.220  1.00  0.00    -0.353 A  
HETATM   12  C   UNL     1      -7.840  10.957  66.200  1.00  0.00    -0.144 A  
ENDBRANCH   6   7
BRANCH   6  13
HETATM   13  O   UNL     1     -11.667  12.864  68.556  1.00  0.00    -0.300 OA 
BRANCH  13  14
HETATM   14  C   UNL     1     -12.112  12.195  69.670  1.00  0.00    -0.218 A  
HETATM   15  C   UNL     1     -12.009  10.802  69.813  1.00  0.00    -0.397 A  
HETATM   16  C   UNL     1     -13.137  10.879  71.941  1.00  0.00    -0.537 A  
HETATM   17  C   UNL     1     -12.530  10.148  70.928  1.00  0.00    -0.455 A  
HETATM   18  C   UNL     1     -13.184  12.270  71.854  1.00  0.00    -0.481 A  
HETATM   19  C   UNL     1     -12.651  12.942  70.737  1.00  0.00    -0.314 A  
HETATM   20  C   UNL     1     -12.696  14.446  70.721  1.00  0.00    -0.427 C  
ENDBRANCH  13  14
ENDBRANCH   6  13
ENDBRANCH   5   6
ENDBRANCH   4   5
ENDBRANCH   2   4
TORSDOF 6
ENDMDL
MODEL      109
REMARK 921   NORMALIZED FREE ENERGY PREDICTED BY IDOCK:   -4.62 KCAL/MOL
REMARK 922        TOTAL FREE ENERGY PREDICTED BY IDOCK:   -7.02 KCAL/MOL
REMARK 923 INTER-LIGAND FREE ENERGY PREDICTED BY IDOCK:   -6.03 KCAL/MOL
REMARK 924 INTRA-LIGAND FREE ENERGY PREDICTED BY IDOCK:   -0.99 KCAL/MOL
REMARK 927      BINDING AFFINITY PREDICTED BY RF-SCORE:    0.00 PKD
ROOT
HETATM    1  C   UNL     1     -10.246   9.042  71.418  1.00  0.00    -0.329 C  
HETATM    2  N   UNL     1     -11.488   9.782  71.247  1.00  0.00    -0.379 NA 
HETATM    3  H   UNL     1     -11.577  10.521  71.944  1.00  0.00     0.000 HD 
ENDROOT
BRANCH   2   4
HETATM    4  C   UNL     1     -11.630  10.314  69.887  1.00  0.00    -0.256 C  
BRANCH   4   5
HETATM    5  C   UNL     1     -10.418   9.868  69.064  1.00  0.00    -0.227 C  
BRANCH   5   6
HETATM    6  C   UNL     1     -10.680   9.851  67.546  1.00  0.00    -0.272 C  
BRANCH   6   7
HETATM    7  C   UNL     1     -10.215   8.515  66.975  1.00  0.00    -0.371 A  
HETATM    8  C   UNL     1      -9.336   6.018  66.030  1.00  0.00    -0.100 A  
HETATM    9  C   UNL     1      -9.068   8.418  66.172  1.00  0.00    -0.238 A  
HETATM   10  C   UNL     1     -10.906   7.336  67.305  1.00  0.00    -0.354 A  
HETATM   11  C   UNL     1      -8.636   7.177  65.699  1.00  0.00    -0.119 A  
HETATM   12  C   UNL     1     -10.470   6.097  66.833  1.00  0.00    -0.340 A  
ENDBRANCH   6   7
BRANCH   6  13
HETATM   13  O   UNL     1     -10.034  10.969  66.902  1.00  0.00    -0.187 OA 
BRANCH  13  14
HETATM   14  C   UNL     1     -10.866  11.941  66.401  1.00  0.00    -0.279 A  
HETATM   15  C   UNL     1     -11.422  12.952  67.199  1.00  0.00    -0.388 A  
HETATM   16  C   UNL     1     -12.647  13.840  65.323  1.00  0.00    -0.510 A  
HETATM   17  C   UNL     1     -12.315  13.883  66.671  1.00  0.00    -0.411 A  
HETATM   18  C   UNL     1     -12.049  12.889  64.496  1.00  0.00    -0.473 A  
HETATM   19  C   UNL     1     -11.137  11.951  65.017  1.00  0.00    -0.360 A  
HETATM   20  C   UNL     1     -10.495  10.976  64.067  1.00  0.00    -0.433 C  
ENDBRANCH  13  14
ENDBRANCH   6  13
ENDBRANCH   5   6
ENDBRANCH   4   5
ENDBRANCH   2   4
TORSDOF 6
ENDMDL
MODEL      110
REMARK 921   NORMALIZED FREE ENERGY PREDICTED BY IDOCK:   -4.61 KCAL/MOL
REMARK 922        TOTAL FREE ENERGY PREDICTED BY IDOCK:   -7.01 KCAL/MOL
REMARK 923 INTER-LIGAND FREE ENERGY PREDICTED BY IDOCK:   -5.95 KCAL/MOL
REMARK 924 INTRA-LIGAND FREE ENERGY PREDICTED BY IDOCK:   -1.06 KCAL/MOL
REMARK 927      BINDING AFFINITY PREDICTED BY RF-SCORE:    0.00 PKD
ROOT
HETATM    1  C   UNL     1     -11.521  13.157  64.022  1.00  0.00    -0.406 C  
HETATM    2  N   UNL     1     -11.337  12.393  65.247  1.00  0.00    -0.321 NA 
HETATM    3  H   UNL     1     -10.815  11.534  65.071  1.00  0.00     0.000 HD 
ENDROOT
BRANCH   2   4
HETATM    4  C   UNL     1     -10.708  13.191  66.305  1.00  0.00    -0.284 C  
BRANCH   4   5
HETATM    5  C   UNL     1      -9.779  12.279  67.111  1.00  0.00    -0.203 C  
BRANCH   5   6
HETATM    6  C   UNL     1     -10.417  11.743  68.407  1.00  0.00    -0.215 C  
BRANCH   6   7
HETATM    7  C   UNL     1     -10.249  10.228  68.455  1.00  0.00    -0.189 A  
HETATM    8  C   UNL     1     -10.053   7.426  68.532  1.00  0.00    -0.187 A  
HETATM    9  C   UNL     1      -9.781   9.576  69.605  1.00  0.00    -0.215 A  
HETATM   10  C   UNL     1     -10.628   9.449  67.348  1.00  0.00    -0.326 A  
HETATM   11  C   UNL     1      -9.679   8.184  69.640  1.00  0.00    -0.170 A  
HETATM   12  C   UNL     1     -10.528   8.058  67.386  1.00  0.00    -0.357 A  
ENDBRANCH   6   7
BRANCH   6  13
HETATM   13  O   UNL     1     -11.802  12.138  68.496  1.00  0.00    -0.317 OA 
BRANCH  13  14
HETATM   14  C   UNL     1     -12.264  12.441  69.754  1.00  0.00    -0.131 A  
HETATM   15  C   UNL     1     -12.604  11.459  70.697  1.00  0.00    -0.360 A  
HETATM   16  C   UNL     1     -13.301  13.138  72.280  1.00  0.00    -0.621 A  
HETATM   17  C   UNL     1     -13.133  11.802  71.940  1.00  0.00    -0.482 A  
HETATM   18  C   UNL     1     -12.901  14.131  71.386  1.00  0.00    -0.428 A  
HETATM   19  C   UNL     1     -12.356  13.796  70.132  1.00  0.00    -0.390 A  
HETATM   20  C   UNL     1     -11.905  14.913  69.229  1.00  0.00    -0.350 C  
ENDBRANCH  13  14
ENDBRANCH   6  13
ENDBRANCH   5   6
ENDBRANCH   4   5
ENDBRANCH   2   4
TORSDOF 6
ENDMDL
MODEL      111
REMARK 921   NORMALIZED FREE ENERGY PREDICTED BY IDOCK:   -4.58 KCAL/MOL
REMARK 922        TOTAL FREE ENERGY PREDICTED BY IDOCK:   -6.96 KCAL/MOL
REMARK 923 INTER-LIGAND FREE ENERGY PREDICTED BY IDOCK:   -6.44 KCAL/MOL
REMARK 924 INTRA-LIGAND FREE ENERGY PREDICTED BY IDOCK:   -0.52 KCAL/MOL
REMARK 927      BINDING AFFINITY PREDICTED BY RF-SCORE:    0.00 PKD
ROOT
HETATM    1  C   UNL     1     -14.253  15.155  71.431  1.00  0.00    -0.498 C  
HETATM    2  N   UNL     1     -13.259  15.782  70.573  1.00  0.00    -0.767 NA 
HETATM    3  H   UNL     1     -13.420  16.786  70.495  1.00  0.00     0.000 HD 
ENDROOT
BRANCH   2   4
HETATM    4  C   UNL     1     -11.889  15.496  71.015  1.00  0.00    -0.382 C  
BRANCH   4   5
HETATM    5  C   UNL     1     -10.955  15.626  69.809  1.00  0.00    -0.307 C  
BRANCH   5   6
HETATM    6  C   UNL     1     -11.680  15.509  68.455  1.00  0.00    -0.309 C  
BRANCH   6   7
HETATM    7  C   UNL     1     -11.627  14.058  67.986  1.00  0.00    -0.372 A  
HETATM    8  C   UNL     1     -11.416  11.389  67.130  1.00  0.00    -0.268 A  
HETATM    9  C   UNL     1     -12.045  13.685  66.700  1.00  0.00    -0.459 A  
HETATM   10  C   UNL     1     -11.091  13.071  68.831  1.00  0.00    -0.307 A  
HETATM   11  C   UNL     1     -11.945  12.357  66.278  1.00  0.00    -0.369 A  
HETATM   12  C   UNL     1     -10.989  11.746  68.406  1.00  0.00    -0.274 A  
ENDBRANCH   6   7
BRANCH   6  13
HETATM   13  O   UNL     1     -11.106  16.411  67.486  1.00  0.00    -0.241 OA 
BRANCH  13  14
HETATM   14  C   UNL     1      -9.739  16.541  67.518  1.00  0.00    -0.242 A  
HETATM   15  C   UNL     1      -8.871  15.580  66.976  1.00  0.00    -0.255 A  
HETATM   16  C   UNL     1      -6.942  16.825  67.710  1.00  0.00    -0.151 A  
HETATM   17  C   UNL     1      -7.488  15.711  67.085  1.00  0.00    -0.253 A  
HETATM   18  C   UNL     1      -7.784  17.827  68.190  1.00  0.00    -0.254 A  
HETATM   19  C   UNL     1      -9.183  17.710  68.076  1.00  0.00    -0.271 A  
HETATM   20  C   UNL     1     -10.037  18.844  68.577  1.00  0.00    -0.460 C  
ENDBRANCH  13  14
ENDBRANCH   6  13
ENDBRANCH   5   6
ENDBRANCH   4   5
ENDBRANCH   2   4
TORSDOF 6
ENDMDL
MODEL      112
REMARK 921   NORMALIZED FREE ENERGY PREDICTED BY IDOCK:   -4.58 KCAL/MOL
REMARK 922        TOTAL FREE ENERGY PREDICTED BY IDOCK:   -6.96 KCAL/MOL
REMARK 923 INTER-LIGAND FREE ENERGY PREDICTED BY IDOCK:   -6.45 KCAL/MOL
REMARK 924 INTRA-LIGAND FREE ENERGY PREDICTED BY IDOCK:   -0.51 KCAL/MOL
REMARK 927      BINDING AFFINITY PREDICTED BY RF-SCORE:    0.00 PKD
ROOT
HETATM    1  C   UNL     1     -10.521  18.690  65.978  1.00  0.00    -0.414 C  
HETATM    2  N   UNL     1      -9.354  17.827  66.082  1.00  0.00    -0.496 NA 
HETATM    3  H   UNL     1      -8.493  18.373  66.109  1.00  0.00     0.000 HD 
ENDROOT
BRANCH   2   4
HETATM    4  C   UNL     1      -9.442  16.916  67.229  1.00  0.00    -0.242 C  
BRANCH   4   5
HETATM    5  C   UNL     1     -10.423  15.794  66.881  1.00  0.00    -0.315 C  
BRANCH   5   6
HETATM    6  C   UNL     1      -9.734  14.511  66.377  1.00  0.00    -0.296 C  
BRANCH   6   7
HETATM    7  C   UNL     1     -10.711  13.732  65.501  1.00  0.00    -0.304 A  
HETATM    8  C   UNL     1     -12.475  12.358  63.798  1.00  0.00    -0.593 A  
HETATM    9  C   UNL     1     -12.099  13.837  65.675  1.00  0.00    -0.444 A  
HETATM   10  C   UNL     1     -10.224  12.935  64.451  1.00  0.00    -0.342 A  
HETATM   11  C   UNL     1     -12.974  13.150  64.831  1.00  0.00    -0.213 A  
HETATM   12  C   UNL     1     -11.100  12.251  63.608  1.00  0.00    -0.537 A  
ENDBRANCH   6   7
BRANCH   6  13
HETATM   13  O   UNL     1      -9.252  13.720  67.484  1.00  0.00    -0.199 OA 
BRANCH  13  14
HETATM   14  C   UNL     1     -10.213  13.187  68.309  1.00  0.00    -0.250 A  
HETATM   15  C   UNL     1     -11.058  13.977  69.103  1.00  0.00    -0.294 A  
HETATM   16  C   UNL     1     -12.092  12.018  70.053  1.00  0.00    -0.355 A  
HETATM   17  C   UNL     1     -11.976  13.400  69.979  1.00  0.00    -0.407 A  
HETATM   18  C   UNL     1     -11.315  11.216  69.218  1.00  0.00    -0.349 A  
HETATM   19  C   UNL     1     -10.391  11.788  68.322  1.00  0.00    -0.217 A  
HETATM   20  C   UNL     1      -9.611  10.871  67.420  1.00  0.00    -0.181 C  
ENDBRANCH  13  14
ENDBRANCH   6  13
ENDBRANCH   5   6
ENDBRANCH   4   5
ENDBRANCH   2   4
TORSDOF 6
ENDMDL
MODEL      113
REMARK 921   NORMALIZED FREE ENERGY PREDICTED BY IDOCK:   -4.56 KCAL/MOL
REMARK 922        TOTAL FREE ENERGY PREDICTED BY IDOCK:   -6.94 KCAL/MOL
REMARK 923 INTER-LIGAND FREE ENERGY PREDICTED BY IDOCK:   -5.88 KCAL/MOL
REMARK 924 INTRA-LIGAND FREE ENERGY PREDICTED BY IDOCK:   -1.06 KCAL/MOL
REMARK 927      BINDING AFFINITY PREDICTED BY RF-SCORE:    0.00 PKD
ROOT
HETATM    1  C   UNL     1     -13.706  15.182  71.617  1.00  0.00    -0.485 C  
HETATM    2  N   UNL     1     -12.696  15.999  70.962  1.00  0.00    -0.567 NA 
HETATM    3  H   UNL     1     -12.400  16.770  71.560  1.00  0.00     0.000 HD 
ENDROOT
BRANCH   2   4
HETATM    4  C   UNL     1     -11.548  15.202  70.514  1.00  0.00    -0.300 C  
BRANCH   4   5
HETATM    5  C   UNL     1     -11.980  14.370  69.303  1.00  0.00    -0.362 C  
BRANCH   5   6
HETATM    6  C   UNL     1     -10.804  13.936  68.407  1.00  0.00    -0.254 C  
BRANCH   6   7
HETATM    7  C   UNL     1     -11.222  14.056  66.945  1.00  0.00    -0.323 A  
HETATM    8  C   UNL     1     -11.950  14.175  64.233  1.00  0.00    -0.460 A  
HETATM    9  C   UNL     1     -10.648  15.011  66.092  1.00  0.00    -0.314 A  
HETATM   10  C   UNL     1     -12.159  13.155  66.411  1.00  0.00    -0.447 A  
HETATM   11  C   UNL     1     -11.014  15.072  64.746  1.00  0.00    -0.389 A  
HETATM   12  C   UNL     1     -12.522  13.216  65.065  1.00  0.00    -0.516 A  
ENDBRANCH   6   7
BRANCH   6  13
HETATM   13  O   UNL     1     -10.374  12.598  68.738  1.00  0.00    -0.202 OA 
BRANCH  13  14
HETATM   14  C   UNL     1      -9.259  12.142  68.079  1.00  0.00    -0.194 A  
HETATM   15  C   UNL     1      -8.027  12.814  68.112  1.00  0.00    -0.156 A  
HETATM   16  C   UNL     1      -7.040  11.200  66.618  1.00  0.00    -0.141 A  
HETATM   17  C   UNL     1      -6.934  12.358  67.377  1.00  0.00    -0.149 A  
HETATM   18  C   UNL     1      -8.232  10.476  66.630  1.00  0.00    -0.129 A  
HETATM   19  C   UNL     1      -9.340  10.922  67.377  1.00  0.00    -0.166 A  
HETATM   20  C   UNL     1     -10.584  10.075  67.381  1.00  0.00    -0.330 C  
ENDBRANCH  13  14
ENDBRANCH   6  13
ENDBRANCH   5   6
ENDBRANCH   4   5
ENDBRANCH   2   4
TORSDOF 6
ENDMDL
MODEL      114
REMARK 921   NORMALIZED FREE ENERGY PREDICTED BY IDOCK:   -4.56 KCAL/MOL
REMARK 922        TOTAL FREE ENERGY PREDICTED BY IDOCK:   -6.94 KCAL/MOL
REMARK 923 INTER-LIGAND FREE ENERGY PREDICTED BY IDOCK:   -6.54 KCAL/MOL
REMARK 924 INTRA-LIGAND FREE ENERGY PREDICTED BY IDOCK:   -0.40 KCAL/MOL
REMARK 927      BINDING AFFINITY PREDICTED BY RF-SCORE:    0.00 PKD
ROOT
HETATM    1  C   UNL     1      -8.182  15.575  68.596  1.00  0.00    -0.162 C  
HETATM    2  N   UNL     1      -8.447  14.237  69.105  1.00  0.00    -0.359 NA 
HETATM    3  H   UNL     1      -9.098  14.262  69.889  1.00  0.00     0.000 HD 
ENDROOT
BRANCH   2   4
HETATM    4  C   UNL     1      -8.917  13.330  68.051  1.00  0.00    -0.191 C  
BRANCH   4   5
HETATM    5  C   UNL     1     -10.421  13.114  68.235  1.00  0.00    -0.258 C  
BRANCH   5   6
HETATM    6  C   UNL     1     -10.968  11.906  67.449  1.00  0.00    -0.263 C  
BRANCH   6   7
HETATM    7  C   UNL     1     -11.346  12.358  66.042  1.00  0.00    -0.397 A  
HETATM    8  C   UNL     1     -12.150  13.169  63.474  1.00  0.00    -0.585 A  
HETATM    9  C   UNL     1     -10.935  11.644  64.906  1.00  0.00    -0.345 A  
HETATM   10  C   UNL     1     -12.176  13.479  65.868  1.00  0.00    -0.507 A  
HETATM   11  C   UNL     1     -11.331  12.051  63.630  1.00  0.00    -0.536 A  
HETATM   12  C   UNL     1     -12.572  13.882  64.592  1.00  0.00    -0.287 A  
ENDBRANCH   6   7
BRANCH   6  13
HETATM   13  O   UNL     1     -12.083  11.307  68.143  1.00  0.00    -0.635 OA 
BRANCH  13  14
HETATM   14  C   UNL     1     -11.769  10.518  69.223  1.00  0.00    -0.209 A  
HETATM   15  C   UNL     1     -12.256  10.769  70.515  1.00  0.00    -0.457 A  
HETATM   16  C   UNL     1     -11.001   8.916  71.410  1.00  0.00    -0.380 A  
HETATM   17  C   UNL     1     -11.864   9.988  71.600  1.00  0.00    -0.315 A  
HETATM   18  C   UNL     1     -10.564   8.604  70.123  1.00  0.00    -0.235 A  
HETATM   19  C   UNL     1     -10.963   9.381  69.017  1.00  0.00    -0.094 A  
HETATM   20  C   UNL     1     -10.490   8.969  67.649  1.00  0.00    -0.324 C  
ENDBRANCH  13  14
ENDBRANCH   6  13
ENDBRANCH   5   6
ENDBRANCH   4   5
ENDBRANCH   2   4
TORSDOF 6
ENDMDL
MODEL      115
REMARK 921   NORMALIZED FREE ENERGY PREDICTED BY IDOCK:   -4.54 KCAL/MOL
REMARK 922        TOTAL FREE ENERGY PREDICTED BY IDOCK:   -6.91 KCAL/MOL
REMARK 923 INTER-LIGAND FREE ENERGY PREDICTED BY IDOCK:   -5.91 KCAL/MOL
REMARK 924 INTRA-LIGAND FREE ENERGY PREDICTED BY IDOCK:   -0.99 KCAL/MOL
REMARK 927      BINDING AFFINITY PREDICTED BY RF-SCORE:    0.00 PKD
ROOT
HETATM    1  C   UNL     1      -8.057   7.163  71.532  1.00  0.00    -0.103 C  
HETATM    2  N   UNL     1      -8.269   8.190  70.522  1.00  0.00    -0.114 NA 
HETATM    3  H   UNL     1      -7.398   8.672  70.299  1.00  0.00     0.000 HD 
ENDROOT
BRANCH   2   4
HETATM    4  C   UNL     1      -8.905   7.653  69.314  1.00  0.00    -0.136 C  
BRANCH   4   5
HETATM    5  C   UNL     1      -9.066   8.793  68.305  1.00  0.00    -0.141 C  
BRANCH   5   6
HETATM    6  C   UNL     1     -10.432   9.500  68.390  1.00  0.00    -0.224 C  
BRANCH   6   7
HETATM    7  C   UNL     1     -10.661  10.298  67.111  1.00  0.00    -0.320 A  
HETATM    8  C   UNL     1     -10.969  11.786  64.747  1.00  0.00    -0.360 A  
HETATM    9  C   UNL     1     -11.368  11.509  67.116  1.00  0.00    -0.354 A  
HETATM   10  C   UNL     1     -10.100   9.852  65.901  1.00  0.00    -0.316 A  
HETATM   11  C   UNL     1     -11.526  12.245  65.939  1.00  0.00    -0.428 A  
HETATM   12  C   UNL     1     -10.256  10.590  64.727  1.00  0.00    -0.373 A  
ENDBRANCH   6   7
BRANCH   6  13
HETATM   13  O   UNL     1     -10.506  10.332  69.567  1.00  0.00    -0.214 OA 
BRANCH  13  14
HETATM   14  C   UNL     1     -11.477  10.001  70.481  1.00  0.00    -0.330 A  
HETATM   15  C   UNL     1     -11.660   8.693  70.957  1.00  0.00    -0.325 A  
HETATM   16  C   UNL     1     -13.556   9.378  72.278  1.00  0.00    -0.532 A  
HETATM   17  C   UNL     1     -12.698   8.380  71.833  1.00  0.00    -0.390 A  
HETATM   18  C   UNL     1     -13.347  10.696  71.875  1.00  0.00    -0.454 A  
HETATM   19  C   UNL     1     -12.295  11.025  70.999  1.00  0.00    -0.490 A  
HETATM   20  C   UNL     1     -12.097  12.472  70.633  1.00  0.00    -0.312 C  
ENDBRANCH  13  14
ENDBRANCH   6  13
ENDBRANCH   5   6
ENDBRANCH   4   5
ENDBRANCH   2   4
TORSDOF 6
ENDMDL
MODEL      116
REMARK 921   NORMALIZED FREE ENERGY PREDICTED BY IDOCK:   -4.54 KCAL/MOL
REMARK 922        TOTAL FREE ENERGY PREDICTED BY IDOCK:   -6.91 KCAL/MOL
REMARK 923 INTER-LIGAND FREE ENERGY PREDICTED BY IDOCK:   -6.01 KCAL/MOL
REMARK 924 INTRA-LIGAND FREE ENERGY PREDICTED BY IDOCK:   -0.90 KCAL/MOL
REMARK 927      BINDING AFFINITY PREDICTED BY RF-SCORE:    0.00 PKD
ROOT
HETATM    1  C   UNL     1      -6.118  14.346  70.539  1.00  0.00    -0.185 C  
HETATM    2  N   UNL     1      -6.614  15.487  69.785  1.00  0.00    -0.175 NA 
HETATM    3  H   UNL     1      -5.849  16.084  69.472  1.00  0.00     0.000 HD 
ENDROOT
BRANCH   2   4
HETATM    4  C   UNL     1      -7.463  15.077  68.660  1.00  0.00    -0.122 C  
BRANCH   4   5
HETATM    5  C   UNL     1      -8.817  15.778  68.796  1.00  0.00    -0.207 C  
BRANCH   5   6
HETATM    6  C   UNL     1      -9.482  16.097  67.442  1.00  0.00    -0.226 C  
BRANCH   6   7
HETATM    7  C   UNL     1      -9.516  17.609  67.249  1.00  0.00    -0.257 A  
HETATM    8  C   UNL     1      -9.670  20.383  66.824  1.00  0.00    -0.528 A  
HETATM    9  C   UNL     1      -8.470  18.294  66.614  1.00  0.00    -0.281 A  
HETATM   10  C   UNL     1     -10.647  18.339  67.657  1.00  0.00    -0.427 A  
HETATM   11  C   UNL     1      -8.545  19.673  66.409  1.00  0.00    -0.390 A  
HETATM   12  C   UNL     1     -10.721  19.717  67.448  1.00  0.00    -0.563 A  
ENDBRANCH   6   7
BRANCH   6  13
HETATM   13  O   UNL     1     -10.798  15.511  67.368  1.00  0.00    -0.304 OA 
BRANCH  13  14
HETATM   14  C   UNL     1     -10.845  14.158  67.138  1.00  0.00    -0.290 A  
HETATM   15  C   UNL     1     -10.231  13.552  66.031  1.00  0.00    -0.308 A  
HETATM   16  C   UNL     1     -11.069  11.387  66.676  1.00  0.00    -0.333 A  
HETATM   17  C   UNL     1     -10.355  12.185  65.792  1.00  0.00    -0.289 A  
HETATM   18  C   UNL     1     -11.625  11.955  67.822  1.00  0.00    -0.393 A  
HETATM   19  C   UNL     1     -11.497  13.334  68.078  1.00  0.00    -0.344 A  
HETATM   20  C   UNL     1     -12.085  13.880  69.352  1.00  0.00    -0.384 C  
ENDBRANCH  13  14
ENDBRANCH   6  13
ENDBRANCH   5   6
ENDBRANCH   4   5
ENDBRANCH   2   4
TORSDOF 6
ENDMDL
MODEL      117
REMARK 921   NORMALIZED FREE ENERGY PREDICTED BY IDOCK:   -4.53 KCAL/MOL
REMARK 922        TOTAL FREE ENERGY PREDICTED BY IDOCK:   -6.90 KCAL/MOL
REMARK 923 INTER-LIGAND FREE ENERGY PREDICTED BY IDOCK:   -6.09 KCAL/MOL
REMARK 924 INTRA-LIGAND FREE ENERGY PREDICTED BY IDOCK:   -0.81 KCAL/MOL
REMARK 927      BINDING AFFINITY PREDICTED BY RF-SCORE:    0.00 PKD
ROOT
HETATM    1  C   UNL     1      -9.711   7.029  70.186  1.00  0.00    -0.175 C  
HETATM    2  N   UNL     1     -10.266   8.308  69.767  1.00  0.00    -0.199 NA 
HETATM    3  H   UNL     1     -11.137   8.511  70.258  1.00  0.00     0.000 HD 
ENDROOT
BRANCH   2   4
HETATM    4  C   UNL     1      -9.302   9.404  69.920  1.00  0.00    -0.214 C  
BRANCH   4   5
HETATM    5  C   UNL     1      -9.829  10.622  69.156  1.00  0.00    -0.217 C  
BRANCH   5   6
HETATM    6  C   UNL     1     -10.947  10.280  68.153  1.00  0.00    -0.274 C  
BRANCH   6   7
HETATM    7  C   UNL     1     -10.372  10.297  66.741  1.00  0.00    -0.288 A  
HETATM    8  C   UNL     1      -9.416  10.329  64.098  1.00  0.00    -0.358 A  
HETATM    9  C   UNL     1      -9.634   9.216  66.234  1.00  0.00    -0.321 A  
HETATM   10  C   UNL     1     -10.631  11.389  65.894  1.00  0.00    -0.317 A  
HETATM   11  C   UNL     1      -9.156   9.236  64.922  1.00  0.00    -0.227 A  
HETATM   12  C   UNL     1     -10.155  11.405  64.583  1.00  0.00    -0.330 A  
ENDBRANCH   6   7
BRANCH   6  13
HETATM   13  O   UNL     1     -12.058  11.190  68.295  1.00  0.00    -0.620 OA 
BRANCH  13  14
HETATM   14  C   UNL     1     -12.397  11.533  69.582  1.00  0.00    -0.142 A  
HETATM   15  C   UNL     1     -12.840  10.595  70.528  1.00  0.00    -0.356 A  
HETATM   16  C   UNL     1     -13.171  12.325  72.173  1.00  0.00    -0.466 A  
HETATM   17  C   UNL     1     -13.239  10.988  71.804  1.00  0.00    -0.505 A  
HETATM   18  C   UNL     1     -12.664  13.262  71.274  1.00  0.00    -0.411 A  
HETATM   19  C   UNL     1     -12.248  12.875  69.985  1.00  0.00    -0.292 A  
HETATM   20  C   UNL     1     -11.673  13.927  69.075  1.00  0.00    -0.378 C  
ENDBRANCH  13  14
ENDBRANCH   6  13
ENDBRANCH   5   6
ENDBRANCH   4   5
ENDBRANCH   2   4
TORSDOF 6
ENDMDL
MODEL      118
REMARK 921   NORMALIZED FREE ENERGY PREDICTED BY IDOCK:   -4.53 KCAL/MOL
REMARK 922        TOTAL FREE ENERGY PREDICTED BY IDOCK:   -6.90 KCAL/MOL
REMARK 923 INTER-LIGAND FREE ENERGY PREDICTED BY IDOCK:   -6.12 KCAL/MOL
REMARK 924 INTRA-LIGAND FREE ENERGY PREDICTED BY IDOCK:   -0.78 KCAL/MOL
REMARK 927      BINDING AFFINITY PREDICTED BY RF-SCORE:    0.00 PKD
ROOT
HETATM    1  C   UNL     1     -13.984   8.656  71.705  1.00  0.00    -0.434 C  
HETATM    2  N   UNL     1     -13.596   9.925  72.302  1.00  0.00    -0.579 NA 
HETATM    3  H   UNL     1     -13.102   9.783  73.184  1.00  0.00     0.000 HD 
ENDROOT
BRANCH   2   4
HETATM    4  C   UNL     1     -12.809  10.751  71.379  1.00  0.00    -0.452 C  
BRANCH   4   5
HETATM    5  C   UNL     1     -11.687   9.887  70.795  1.00  0.00    -0.424 C  
BRANCH   5   6
HETATM    6  C   UNL     1     -11.296  10.280  69.357  1.00  0.00    -0.221 C  
BRANCH   6   7
HETATM    7  C   UNL     1     -10.212   9.330  68.859  1.00  0.00    -0.217 A  
HETATM    8  C   UNL     1      -8.155   7.669  67.907  1.00  0.00    -0.123 A  
HETATM    9  C   UNL     1     -10.444   8.441  67.799  1.00  0.00    -0.284 A  
HETATM   10  C   UNL     1      -8.926   9.380  69.425  1.00  0.00    -0.157 A  
HETATM   11  C   UNL     1      -9.423   7.612  67.331  1.00  0.00    -0.175 A  
HETATM   12  C   UNL     1      -7.906   8.552  68.954  1.00  0.00    -0.109 A  
ENDBRANCH   6   7
BRANCH   6  13
HETATM   13  O   UNL     1     -10.874  11.659  69.300  1.00  0.00    -0.220 OA 
BRANCH  13  14
HETATM   14  C   UNL     1     -11.294  12.374  68.204  1.00  0.00    -0.291 A  
HETATM   15  C   UNL     1     -11.412  11.808  66.926  1.00  0.00    -0.364 A  
HETATM   16  C   UNL     1     -12.063  13.928  65.983  1.00  0.00    -0.465 A  
HETATM   17  C   UNL     1     -11.776  12.578  65.823  1.00  0.00    -0.478 A  
HETATM   18  C   UNL     1     -12.024  14.494  67.257  1.00  0.00    -0.375 A  
HETATM   19  C   UNL     1     -11.668  13.722  68.379  1.00  0.00    -0.393 A  
HETATM   20  C   UNL     1     -11.683  14.381  69.732  1.00  0.00    -0.361 C  
ENDBRANCH  13  14
ENDBRANCH   6  13
ENDBRANCH   5   6
ENDBRANCH   4   5
ENDBRANCH   2   4
TORSDOF 6
ENDMDL
MODEL      119
REMARK 921   NORMALIZED FREE ENERGY PREDICTED BY IDOCK:   -4.52 KCAL/MOL
REMARK 922        TOTAL FREE ENERGY PREDICTED BY IDOCK:   -6.88 KCAL/MOL
REMARK 923 INTER-LIGAND FREE ENERGY PREDICTED BY IDOCK:   -5.97 KCAL/MOL
REMARK 924 INTRA-LIGAND FREE ENERGY PREDICTED BY IDOCK:   -0.91 KCAL/MOL
REMARK 927      BINDING AFFINITY PREDICTED BY RF-SCORE:    0.00 PKD
ROOT
HETATM    1  C   UNL     1     -12.687   6.872  71.618  1.00  0.00    -0.352 C  
HETATM    2  N   UNL     1     -12.122   6.932  70.278  1.00  0.00    -0.627 NA 
HETATM    3  H   UNL     1     -12.640   7.583  69.687  1.00  0.00     0.000 HD 
ENDROOT
BRANCH   2   4
HETATM    4  C   UNL     1     -10.691   7.255  70.297  1.00  0.00    -0.236 C  
BRANCH   4   5
HETATM    5  C   UNL     1     -10.521   8.668  70.860  1.00  0.00    -0.265 C  
BRANCH   5   6
HETATM    6  C   UNL     1     -10.738   9.777  69.812  1.00  0.00    -0.256 C  
BRANCH   6   7
HETATM    7  C   UNL     1     -11.646  10.850  70.404  1.00  0.00    -0.418 A  
HETATM    8  C   UNL     1     -13.228  12.883  71.529  1.00  0.00    -0.346 A  
HETATM    9  C   UNL     1     -12.520  10.571  71.465  1.00  0.00    -0.493 A  
HETATM   10  C   UNL     1     -11.572  12.169  69.924  1.00  0.00    -0.297 A  
HETATM   11  C   UNL     1     -13.309  11.581  72.020  1.00  0.00    -0.397 A  
HETATM   12  C   UNL     1     -12.359  13.177  70.482  1.00  0.00    -0.380 A  
ENDBRANCH   6   7
BRANCH   6  13
HETATM   13  O   UNL     1     -11.274   9.228  68.590  1.00  0.00     0.035 OA 
BRANCH  13  14
HETATM   14  C   UNL     1     -10.608   9.561  67.435  1.00  0.00    -0.271 A  
HETATM   15  C   UNL     1     -10.442  10.888  67.009  1.00  0.00    -0.291 A  
HETATM   16  C   UNL     1      -9.318  10.164  65.004  1.00  0.00    -0.299 A  
HETATM   17  C   UNL     1      -9.819  11.187  65.799  1.00  0.00    -0.279 A  
HETATM   18  C   UNL     1      -9.406   8.844  65.444  1.00  0.00    -0.158 A  
HETATM   19  C   UNL     1     -10.024   8.531  66.670  1.00  0.00    -0.363 A  
HETATM   20  C   UNL     1     -10.052   7.092  67.109  1.00  0.00    -0.283 C  
ENDBRANCH  13  14
ENDBRANCH   6  13
ENDBRANCH   5   6
ENDBRANCH   4   5
ENDBRANCH   2   4
TORSDOF 6
ENDMDL
MODEL      120
REMARK 921   NORMALIZED FREE ENERGY PREDICTED BY IDOCK:   -4.51 KCAL/MOL
REMARK 922        TOTAL FREE ENERGY PREDICTED BY IDOCK:   -6.87 KCAL/MOL
REMARK 923 INTER-LIGAND FREE ENERGY PREDICTED BY IDOCK:   -5.96 KCAL/MOL
REMARK 924 INTRA-LIGAND FREE ENERGY PREDICTED BY IDOCK:   -0.90 KCAL/MOL
REMARK 927      BINDING AFFINITY PREDICTED BY RF-SCORE:    0.00 PKD
ROOT
HETATM    1  C   UNL     1     -11.600  14.752  64.631  1.00  0.00    -0.399 C  
HETATM    2  N   UNL     1     -11.131  13.455  65.096  1.00  0.00    -0.294 NA 
HETATM    3  H   UNL     1     -10.181  13.517  65.463  1.00  0.00     0.000 HD 
ENDROOT
BRANCH   2   4
HETATM    4  C   UNL     1     -12.043  12.859  66.078  1.00  0.00    -0.422 C  
BRANCH   4   5
HETATM    5  C   UNL     1     -11.465  13.089  67.477  1.00  0.00    -0.375 C  
BRANCH   5   6
HETATM    6  C   UNL     1     -11.499  11.833  68.369  1.00  0.00    -0.294 C  
BRANCH   6   7
HETATM    7  C   UNL     1     -12.125  12.193  69.712  1.00  0.00    -0.306 A  
HETATM    8  C   UNL     1     -13.179  12.899  72.221  1.00  0.00    -0.519 A  
HETATM    9  C   UNL     1     -12.577  11.206  70.602  1.00  0.00    -0.408 A  
HETATM   10  C   UNL     1     -12.201  13.539  70.109  1.00  0.00    -0.400 A  
HETATM   11  C   UNL     1     -13.105  11.559  71.845  1.00  0.00    -0.492 A  
HETATM   12  C   UNL     1     -12.727  13.889  71.353  1.00  0.00    -0.445 A  
ENDBRANCH   6   7
BRANCH   6  13
HETATM   13  O   UNL     1     -10.176  11.277  68.521  1.00  0.00    -0.191 OA 
BRANCH  13  14
HETATM   14  C   UNL     1      -9.886  10.186  67.737  1.00  0.00    -0.163 A  
HETATM   15  C   UNL     1     -10.743   9.080  67.625  1.00  0.00    -0.232 A  
HETATM   16  C   UNL     1      -9.178   7.939  66.191  1.00  0.00    -0.208 A  
HETATM   17  C   UNL     1     -10.387   7.962  66.874  1.00  0.00    -0.400 A  
HETATM   18  C   UNL     1      -8.345   9.057  66.229  1.00  0.00    -0.122 A  
HETATM   19  C   UNL     1      -8.700  10.197  66.976  1.00  0.00    -0.137 A  
HETATM   20  C   UNL     1      -7.778  11.386  66.944  1.00  0.00    -0.155 C  
ENDBRANCH  13  14
ENDBRANCH   6  13
ENDBRANCH   5   6
ENDBRANCH   4   5
ENDBRANCH   2   4
TORSDOF 6
ENDMDL
MODEL      121
REMARK 921   NORMALIZED FREE ENERGY PREDICTED BY IDOCK:   -4.49 KCAL/MOL
REMARK 922        TOTAL FREE ENERGY PREDICTED BY IDOCK:   -6.85 KCAL/MOL
REMARK 923 INTER-LIGAND FREE ENERGY PREDICTED BY IDOCK:   -6.03 KCAL/MOL
REMARK 924 INTRA-LIGAND FREE ENERGY PREDICTED BY IDOCK:   -0.82 KCAL/MOL
REMARK 927      BINDING AFFINITY PREDICTED BY RF-SCORE:    0.00 PKD
ROOT
HETATM    1  C   UNL     1     -10.278  10.274  66.249  1.00  0.00    -0.221 C  
HETATM    2  N   UNL     1     -10.641   9.950  67.621  1.00  0.00    -0.252 NA 
HETATM    3  H   UNL     1     -11.109   9.046  67.675  1.00  0.00     0.000 HD 
ENDROOT
BRANCH   2   4
HETATM    4  C   UNL     1      -9.486  10.006  68.524  1.00  0.00    -0.148 C  
BRANCH   4   5
HETATM    5  C   UNL     1      -9.999  10.203  69.953  1.00  0.00    -0.250 C  
BRANCH   5   6
HETATM    6  C   UNL     1     -11.528  10.061  70.081  1.00  0.00    -0.277 C  
BRANCH   6   7
HETATM    7  C   UNL     1     -12.115  11.393  70.538  1.00  0.00    -0.487 A  
HETATM    8  C   UNL     1     -13.090  13.884  71.399  1.00  0.00    -0.413 A  
HETATM    9  C   UNL     1     -12.914  11.489  71.687  1.00  0.00    -0.499 A  
HETATM   10  C   UNL     1     -11.804  12.570  69.835  1.00  0.00    -0.373 A  
HETATM   11  C   UNL     1     -13.402  12.727  72.110  1.00  0.00    -0.593 A  
HETATM   12  C   UNL     1     -12.291  13.806  70.262  1.00  0.00    -0.407 A  
ENDBRANCH   6   7
BRANCH   6  13
HETATM   13  O   UNL     1     -11.869   8.983  70.978  1.00  0.00    -0.283 OA 
BRANCH  13  14
HETATM   14  C   UNL     1     -11.228   7.788  70.758  1.00  0.00    -0.271 A  
HETATM   15  C   UNL     1     -11.420   7.025  69.595  1.00  0.00    -0.124 A  
HETATM   16  C   UNL     1      -9.957   5.296  70.420  1.00  0.00    -0.303 A  
HETATM   17  C   UNL     1     -10.805   5.785  69.434  1.00  0.00    -0.393 A  
HETATM   18  C   UNL     1      -9.694   6.072  71.548  1.00  0.00    -0.186 A  
HETATM   19  C   UNL     1     -10.302   7.331  71.717  1.00  0.00    -0.215 A  
HETATM   20  C   UNL     1      -9.947   8.137  72.937  1.00  0.00    -0.336 C  
ENDBRANCH  13  14
ENDBRANCH   6  13
ENDBRANCH   5   6
ENDBRANCH   4   5
ENDBRANCH   2   4
TORSDOF 6
ENDMDL
MODEL      122
REMARK 921   NORMALIZED FREE ENERGY PREDICTED BY IDOCK:   -4.48 KCAL/MOL
REMARK 922        TOTAL FREE ENERGY PREDICTED BY IDOCK:   -6.83 KCAL/MOL
REMARK 923 INTER-LIGAND FREE ENERGY PREDICTED BY IDOCK:   -5.98 KCAL/MOL
REMARK 924 INTRA-LIGAND FREE ENERGY PREDICTED BY IDOCK:   -0.86 KCAL/MOL
REMARK 927      BINDING AFFINITY PREDICTED BY RF-SCORE:    0.00 PKD
ROOT
HETATM    1  C   UNL     1      -9.107   6.362  66.292  1.00  0.00    -0.151 C  
HETATM    2  N   UNL     1     -10.482   6.755  66.562  1.00  0.00    -0.491 NA 
HETATM    3  H   UNL     1     -11.081   6.584  65.754  1.00  0.00     0.000 HD 
ENDROOT
BRANCH   2   4
HETATM    4  C   UNL     1     -11.015   6.106  67.765  1.00  0.00    -0.303 C  
BRANCH   4   5
HETATM    5  C   UNL     1     -10.673   6.978  68.976  1.00  0.00    -0.234 C  
BRANCH   5   6
HETATM    6  C   UNL     1     -11.200   6.410  70.309  1.00  0.00    -0.382 C  
BRANCH   6   7
HETATM    7  C   UNL     1     -12.083   7.457  70.981  1.00  0.00    -0.330 A  
HETATM    8  C   UNL     1     -13.783   9.376  72.134  1.00  0.00    -0.490 A  
HETATM    9  C   UNL     1     -11.659   8.785  71.138  1.00  0.00    -0.344 A  
HETATM   10  C   UNL     1     -13.379   7.111  71.401  1.00  0.00    -0.380 A  
HETATM   11  C   UNL     1     -12.503   9.736  71.716  1.00  0.00    -0.485 A  
HETATM   12  C   UNL     1     -14.221   8.064  71.976  1.00  0.00    -0.465 A  
ENDBRANCH   6   7
BRANCH   6  13
HETATM   13  O   UNL     1     -10.108   5.998  71.157  1.00  0.00    -0.185 OA 
BRANCH  13  14
HETATM   14  C   UNL     1     -10.297   4.834  71.861  1.00  0.00    -0.172 A  
HETATM   15  C   UNL     1     -10.970   4.789  73.092  1.00  0.00    -0.374 A  
HETATM   16  C   UNL     1     -10.557   2.423  73.298  1.00  0.00    -0.250 A  
HETATM   17  C   UNL     1     -11.085   3.601  73.812  1.00  0.00    -0.281 A  
HETATM   18  C   UNL     1      -9.950   2.431  72.043  1.00  0.00    -0.231 A  
HETATM   19  C   UNL     1      -9.837   3.624  71.302  1.00  0.00    -0.211 A  
HETATM   20  C   UNL     1      -9.208   3.559  69.937  1.00  0.00    -0.217 C  
ENDBRANCH  13  14
ENDBRANCH   6  13
ENDBRANCH   5   6
ENDBRANCH   4   5
ENDBRANCH   2   4
TORSDOF 6
ENDMDL
MODEL      123
REMARK 921   NORMALIZED FREE ENERGY PREDICTED BY IDOCK:   -4.47 KCAL/MOL
REMARK 922        TOTAL FREE ENERGY PREDICTED BY IDOCK:   -6.82 KCAL/MOL
REMARK 923 INTER-LIGAND FREE ENERGY PREDICTED BY IDOCK:   -5.90 KCAL/MOL
REMARK 924 INTRA-LIGAND FREE ENERGY PREDICTED BY IDOCK:   -0.92 KCAL/MOL
REMARK 927      BINDING AFFINITY PREDICTED BY RF-SCORE:    0.00 PKD
ROOT
HETATM    1  C   UNL     1      -7.902  17.240  67.508  1.00  0.00    -0.181 C  
HETATM    2  N   UNL     1      -8.973  16.978  68.458  1.00  0.00    -0.256 NA 
HETATM    3  H   UNL     1      -9.515  17.821  68.644  1.00  0.00     0.000 HD 
ENDROOT
BRANCH   2   4
HETATM    4  C   UNL     1      -9.838  15.875  68.022  1.00  0.00    -0.218 C  
BRANCH   4   5
HETATM    5  C   UNL     1      -9.145  14.553  68.363  1.00  0.00    -0.191 C  
BRANCH   5   6
HETATM    6  C   UNL     1     -10.127  13.398  68.638  1.00  0.00    -0.157 C  
BRANCH   6   7
HETATM    7  C   UNL     1     -10.097  12.429  67.461  1.00  0.00    -0.205 A  
HETATM    8  C   UNL     1     -10.147  10.610  65.318  1.00  0.00    -0.363 A  
HETATM    9  C   UNL     1      -9.223  11.332  67.434  1.00  0.00    -0.164 A  
HETATM   10  C   UNL     1     -11.005  12.591  66.400  1.00  0.00    -0.309 A  
HETATM   11  C   UNL     1      -9.245  10.432  66.366  1.00  0.00    -0.187 A  
HETATM   12  C   UNL     1     -11.028  11.689  65.335  1.00  0.00    -0.328 A  
ENDBRANCH   6   7
BRANCH   6  13
HETATM   13  O   UNL     1     -11.455  13.904  68.888  1.00  0.00    -0.260 OA 
BRANCH  13  14
HETATM   14  C   UNL     1     -12.086  13.418  70.008  1.00  0.00    -0.334 A  
HETATM   15  C   UNL     1     -12.158  12.049  70.306  1.00  0.00    -0.395 A  
HETATM   16  C   UNL     1     -13.484  12.487  72.270  1.00  0.00    -0.490 A  
HETATM   17  C   UNL     1     -12.863  11.586  71.415  1.00  0.00    -0.489 A  
HETATM   18  C   UNL     1     -13.363  13.856  72.033  1.00  0.00    -0.523 A  
HETATM   19  C   UNL     1     -12.644  14.335  70.921  1.00  0.00    -0.426 A  
HETATM   20  C   UNL     1     -12.516  15.824  70.743  1.00  0.00    -0.420 C  
ENDBRANCH  13  14
ENDBRANCH   6  13
ENDBRANCH   5   6
ENDBRANCH   4   5
ENDBRANCH   2   4
TORSDOF 6
ENDMDL
MODEL      124
REMARK 921   NORMALIZED FREE ENERGY PREDICTED BY IDOCK:   -4.44 KCAL/MOL
REMARK 922        TOTAL FREE ENERGY PREDICTED BY IDOCK:   -6.78 KCAL/MOL
REMARK 923 INTER-LIGAND FREE ENERGY PREDICTED BY IDOCK:   -5.81 KCAL/MOL
REMARK 924 INTRA-LIGAND FREE ENERGY PREDICTED BY IDOCK:   -0.97 KCAL/MOL
REMARK 927      BINDING AFFINITY PREDICTED BY RF-SCORE:    0.00 PKD
ROOT
HETATM    1  C   UNL     1     -11.131   7.613  72.833  1.00  0.00    -0.393 C  
HETATM    2  N   UNL     1     -12.500   8.105  72.852  1.00  0.00    -0.653 NA 
HETATM    3  H   UNL     1     -12.635   8.795  73.591  1.00  0.00     0.000 HD 
ENDROOT
BRANCH   2   4
HETATM    4  C   UNL     1     -12.914   8.635  71.548  1.00  0.00    -0.312 C  
BRANCH   4   5
HETATM    5  C   UNL     1     -12.402  10.072  71.426  1.00  0.00    -0.512 C  
BRANCH   5   6
HETATM    6  C   UNL     1     -11.260  10.231  70.403  1.00  0.00    -0.332 C  
BRANCH   6   7
HETATM    7  C   UNL     1     -11.491  11.503  69.593  1.00  0.00    -0.373 A  
HETATM    8  C   UNL     1     -12.026  13.845  68.133  1.00  0.00    -0.385 A  
HETATM    9  C   UNL     1     -11.350  11.523  68.198  1.00  0.00    -0.367 A  
HETATM   10  C   UNL     1     -11.916  12.676  70.242  1.00  0.00    -0.363 A  
HETATM   11  C   UNL     1     -11.611  12.688  67.474  1.00  0.00    -0.418 A  
HETATM   12  C   UNL     1     -12.179  13.838  69.517  1.00  0.00    -0.344 A  
ENDBRANCH   6   7
BRANCH   6  13
HETATM   13  O   UNL     1     -11.162   9.064  69.560  1.00  0.00    -0.098 OA 
BRANCH  13  14
HETATM   14  C   UNL     1      -9.931   8.456  69.511  1.00  0.00    -0.190 A  
HETATM   15  C   UNL     1      -8.729   9.157  69.694  1.00  0.00    -0.145 A  
HETATM   16  C   UNL     1      -7.437   7.162  69.295  1.00  0.00    -0.093 A  
HETATM   17  C   UNL     1      -7.495   8.522  69.572  1.00  0.00    -0.080 A  
HETATM   18  C   UNL     1      -8.620   6.432  69.183  1.00  0.00    -0.125 A  
HETATM   19  C   UNL     1      -9.873   7.062  69.315  1.00  0.00    -0.159 A  
HETATM   20  C   UNL     1     -11.112   6.212  69.223  1.00  0.00    -0.463 C  
ENDBRANCH  13  14
ENDBRANCH   6  13
ENDBRANCH   5   6
ENDBRANCH   4   5
ENDBRANCH   2   4
TORSDOF 6
ENDMDL
MODEL      125
REMARK 921   NORMALIZED FREE ENERGY PREDICTED BY IDOCK:   -4.44 KCAL/MOL
REMARK 922        TOTAL FREE ENERGY PREDICTED BY IDOCK:   -6.77 KCAL/MOL
REMARK 923 INTER-LIGAND FREE ENERGY PREDICTED BY IDOCK:   -6.30 KCAL/MOL
REMARK 924 INTRA-LIGAND FREE ENERGY PREDICTED BY IDOCK:   -0.47 KCAL/MOL
REMARK 927      BINDING AFFINITY PREDICTED BY RF-SCORE:    0.00 PKD
ROOT
HETATM    1  C   UNL     1      -8.680  17.985  68.097  1.00  0.00    -0.272 C  
HETATM    2  N   UNL     1      -9.735  17.389  68.904  1.00  0.00    -0.275 NA 
HETATM    3  H   UNL     1     -10.427  18.086  69.179  1.00  0.00     0.000 HD 
ENDROOT
BRANCH   2   4
HETATM    4  C   UNL     1     -10.366  16.249  68.230  1.00  0.00    -0.272 C  
BRANCH   4   5
HETATM    5  C   UNL     1      -9.707  14.963  68.736  1.00  0.00    -0.225 C  
BRANCH   5   6
HETATM    6  C   UNL     1     -10.664  13.756  68.771  1.00  0.00    -0.249 C  
BRANCH   6   7
HETATM    7  C   UNL     1     -10.465  12.926  67.507  1.00  0.00    -0.226 A  
HETATM    8  C   UNL     1      -9.986  11.418  65.184  1.00  0.00    -0.310 A  
HETATM    9  C   UNL     1     -10.990  13.331  66.271  1.00  0.00    -0.296 A  
HETATM   10  C   UNL     1      -9.685  11.757  67.555  1.00  0.00    -0.185 A  
HETATM   11  C   UNL     1     -10.756  12.578  65.119  1.00  0.00    -0.323 A  
HETATM   12  C   UNL     1      -9.450  11.008  66.402  1.00  0.00    -0.218 A  
ENDBRANCH   6   7
BRANCH   6  13
HETATM   13  O   UNL     1     -12.032  14.191  68.923  1.00  0.00    -0.333 OA 
BRANCH  13  14
HETATM   14  C   UNL     1     -12.487  14.315  70.213  1.00  0.00    -0.361 A  
HETATM   15  C   UNL     1     -12.798  15.553  70.795  1.00  0.00    -0.513 A  
HETATM   16  C   UNL     1     -13.317  14.501  72.900  1.00  0.00    -0.579 A  
HETATM   17  C   UNL     1     -13.194  15.649  72.128  1.00  0.00    -0.547 A  
HETATM   18  C   UNL     1     -13.084  13.253  72.321  1.00  0.00    -0.474 A  
HETATM   19  C   UNL     1     -12.694  13.145  70.972  1.00  0.00    -0.361 A  
HETATM   20  C   UNL     1     -12.497  11.769  70.395  1.00  0.00    -0.280 C  
ENDBRANCH  13  14
ENDBRANCH   6  13
ENDBRANCH   5   6
ENDBRANCH   4   5
ENDBRANCH   2   4
TORSDOF 6
ENDMDL
MODEL      126
REMARK 921   NORMALIZED FREE ENERGY PREDICTED BY IDOCK:   -4.43 KCAL/MOL
REMARK 922        TOTAL FREE ENERGY PREDICTED BY IDOCK:   -6.77 KCAL/MOL
REMARK 923 INTER-LIGAND FREE ENERGY PREDICTED BY IDOCK:   -5.88 KCAL/MOL
REMARK 924 INTRA-LIGAND FREE ENERGY PREDICTED BY IDOCK:   -0.89 KCAL/MOL
REMARK 927      BINDING AFFINITY PREDICTED BY RF-SCORE:    0.00 PKD
ROOT
HETATM    1  C   UNL     1     -11.365   9.575  71.158  1.00  0.00    -0.370 C  
HETATM    2  N   UNL     1     -10.003   9.846  70.723  1.00  0.00    -0.333 NA 
HETATM    3  H   UNL     1      -9.417   9.015  70.807  1.00  0.00     0.000 HD 
ENDROOT
BRANCH   2   4
HETATM    4  C   UNL     1      -9.957  10.394  69.363  1.00  0.00    -0.218 C  
BRANCH   4   5
HETATM    5  C   UNL     1     -11.136   9.824  68.571  1.00  0.00    -0.138 C  
BRANCH   5   6
HETATM    6  C   UNL     1     -10.908   9.821  67.047  1.00  0.00    -0.094 C  
BRANCH   6   7
HETATM    7  C   UNL     1     -10.067   8.605  66.673  1.00  0.00    -0.364 A  
HETATM    8  C   UNL     1      -8.541   6.384  65.873  1.00  0.00    -0.151 A  
HETATM    9  C   UNL     1     -10.445   7.306  67.045  1.00  0.00    -0.398 A  
HETATM   10  C   UNL     1      -8.916   8.769  65.882  1.00  0.00    -0.240 A  
HETATM   11  C   UNL     1      -9.682   6.204  66.652  1.00  0.00    -0.196 A  
HETATM   12  C   UNL     1      -8.158   7.666  65.488  1.00  0.00    -0.130 A  
ENDBRANCH   6   7
BRANCH   6  13
HETATM   13  O   UNL     1     -10.295  11.055  66.619  1.00  0.00    -0.223 OA 
BRANCH  13  14
HETATM   14  C   UNL     1     -11.003  11.794  65.702  1.00  0.00    -0.295 A  
HETATM   15  C   UNL     1     -11.001  11.506  64.328  1.00  0.00    -0.406 A  
HETATM   16  C   UNL     1     -12.398  13.416  63.867  1.00  0.00    -0.410 A  
HETATM   17  C   UNL     1     -11.677  12.317  63.418  1.00  0.00    -0.542 A  
HETATM   18  C   UNL     1     -12.474  13.677  65.235  1.00  0.00    -0.517 A  
HETATM   19  C   UNL     1     -11.804  12.858  66.165  1.00  0.00    -0.487 A  
HETATM   20  C   UNL     1     -11.958  13.168  67.629  1.00  0.00    -0.363 C  
ENDBRANCH  13  14
ENDBRANCH   6  13
ENDBRANCH   5   6
ENDBRANCH   4   5
ENDBRANCH   2   4
TORSDOF 6
ENDMDL
MODEL      127
REMARK 921   NORMALIZED FREE ENERGY PREDICTED BY IDOCK:   -4.41 KCAL/MOL
REMARK 922        TOTAL FREE ENERGY PREDICTED BY IDOCK:   -6.73 KCAL/MOL
REMARK 923 INTER-LIGAND FREE ENERGY PREDICTED BY IDOCK:   -5.94 KCAL/MOL
REMARK 924 INTRA-LIGAND FREE ENERGY PREDICTED BY IDOCK:   -0.79 KCAL/MOL
REMARK 927      BINDING AFFINITY PREDICTED BY RF-SCORE:    0.00 PKD
ROOT
HETATM    1  C   UNL     1     -12.637  12.091  63.404  1.00  0.00    -0.469 C  
HETATM    2  N   UNL     1     -12.624  13.545  63.455  1.00  0.00    -0.855 NA 
HETATM    3  H   UNL     1     -13.557  13.918  63.630  1.00  0.00     0.000 HD 
ENDROOT
BRANCH   2   4
HETATM    4  C   UNL     1     -11.656  14.054  64.434  1.00  0.00    -0.369 C  
BRANCH   4   5
HETATM    5  C   UNL     1     -10.398  13.184  64.367  1.00  0.00    -0.390 C  
BRANCH   5   6
HETATM    6  C   UNL     1      -9.679  13.040  65.722  1.00  0.00    -0.145 C  
BRANCH   6   7
HETATM    7  C   UNL     1     -10.124  11.741  66.386  1.00  0.00    -0.239 A  
HETATM    8  C   UNL     1     -10.893   9.381  67.705  1.00  0.00    -0.223 A  
HETATM    9  C   UNL     1      -9.634  10.495  65.966  1.00  0.00    -0.242 A  
HETATM   10  C   UNL     1     -10.997  11.783  67.487  1.00  0.00    -0.310 A  
HETATM   11  C   UNL     1     -10.021   9.323  66.619  1.00  0.00    -0.333 A  
HETATM   12  C   UNL     1     -11.381  10.611  68.140  1.00  0.00    -0.354 A  
ENDBRANCH   6   7
BRANCH   6  13
HETATM   13  O   UNL     1      -9.929  14.188  66.559  1.00  0.00    -0.266 OA 
BRANCH  13  14
HETATM   14  C   UNL     1      -8.875  15.053  66.729  1.00  0.00    -0.268 A  
HETATM   15  C   UNL     1      -8.806  16.303  66.095  1.00  0.00    -0.362 A  
HETATM   16  C   UNL     1      -6.633  16.730  67.045  1.00  0.00    -0.239 A  
HETATM   17  C   UNL     1      -7.691  17.126  66.237  1.00  0.00    -0.350 A  
HETATM   18  C   UNL     1      -6.713  15.526  67.743  1.00  0.00    -0.186 A  
HETATM   19  C   UNL     1      -7.840  14.691  67.615  1.00  0.00    -0.196 A  
HETATM   20  C   UNL     1      -7.884  13.423  68.425  1.00  0.00    -0.138 C  
ENDBRANCH  13  14
ENDBRANCH   6  13
ENDBRANCH   5   6
ENDBRANCH   4   5
ENDBRANCH   2   4
TORSDOF 6
ENDMDL
MODEL      128
REMARK 921   NORMALIZED FREE ENERGY PREDICTED BY IDOCK:   -4.40 KCAL/MOL
REMARK 922        TOTAL FREE ENERGY PREDICTED BY IDOCK:   -6.72 KCAL/MOL
REMARK 923 INTER-LIGAND FREE ENERGY PREDICTED BY IDOCK:   -5.66 KCAL/MOL
REMARK 924 INTRA-LIGAND FREE ENERGY PREDICTED BY IDOCK:   -1.06 KCAL/MOL
REMARK 927      BINDING AFFINITY PREDICTED BY RF-SCORE:    0.00 PKD
ROOT
HETATM    1  C   UNL     1     -10.633   7.478  73.285  1.00  0.00    -0.384 C  
HETATM    2  N   UNL     1     -11.946   7.961  72.884  1.00  0.00    -0.619 NA 
HETATM    3  H   UNL     1     -12.504   8.230  73.695  1.00  0.00     0.000 HD 
ENDROOT
BRANCH   2   4
HETATM    4  C   UNL     1     -11.857   9.057  71.912  1.00  0.00    -0.376 C  
BRANCH   4   5
HETATM    5  C   UNL     1     -10.507   8.961  71.198  1.00  0.00    -0.336 C  
BRANCH   5   6
HETATM    6  C   UNL     1     -10.629   8.887  69.663  1.00  0.00    -0.226 C  
BRANCH   6   7
HETATM    7  C   UNL     1     -10.282   7.475  69.204  1.00  0.00    -0.202 A  
HETATM    8  C   UNL     1      -9.751   4.842  68.376  1.00  0.00    -0.209 A  
HETATM    9  C   UNL     1      -9.398   6.661  69.930  1.00  0.00    -0.153 A  
HETATM   10  C   UNL     1     -10.903   6.939  68.062  1.00  0.00    -0.266 A  
HETATM   11  C   UNL     1      -9.131   5.355  69.514  1.00  0.00    -0.140 A  
HETATM   12  C   UNL     1     -10.637   5.633  67.651  1.00  0.00    -0.279 A  
ENDBRANCH   6   7
BRANCH   6  13
HETATM   13  O   UNL     1      -9.792   9.881  69.035  1.00  0.00    -0.173 OA 
BRANCH  13  14
HETATM   14  C   UNL     1     -10.447  10.890  68.372  1.00  0.00    -0.183 A  
HETATM   15  C   UNL     1     -11.062  11.963  69.037  1.00  0.00    -0.300 A  
HETATM   16  C   UNL     1     -11.862  12.872  66.953  1.00  0.00    -0.444 A  
HETATM   17  C   UNL     1     -11.776  12.935  68.338  1.00  0.00    -0.382 A  
HETATM   18  C   UNL     1     -11.197  11.856  66.267  1.00  0.00    -0.392 A  
HETATM   19  C   UNL     1     -10.464  10.875  66.963  1.00  0.00    -0.291 A  
HETATM   20  C   UNL     1      -9.735   9.829  66.163  1.00  0.00    -0.309 C  
ENDBRANCH  13  14
ENDBRANCH   6  13
ENDBRANCH   5   6
ENDBRANCH   4   5
ENDBRANCH   2   4
TORSDOF 6
ENDMDL
MODEL      129
REMARK 921   NORMALIZED FREE ENERGY PREDICTED BY IDOCK:   -4.40 KCAL/MOL
REMARK 922        TOTAL FREE ENERGY PREDICTED BY IDOCK:   -6.72 KCAL/MOL
REMARK 923 INTER-LIGAND FREE ENERGY PREDICTED BY IDOCK:   -5.64 KCAL/MOL
REMARK 924 INTRA-LIGAND FREE ENERGY PREDICTED BY IDOCK:   -1.08 KCAL/MOL
REMARK 927      BINDING AFFINITY PREDICTED BY RF-SCORE:    0.00 PKD
ROOT
HETATM    1  C   UNL     1      -7.352  11.207  68.780  1.00  0.00    -0.114 C  
HETATM    2  N   UNL     1      -8.686  11.113  68.206  1.00  0.00    -0.144 NA 
HETATM    3  H   UNL     1      -8.954  11.985  67.751  1.00  0.00     0.000 HD 
ENDROOT
BRANCH   2   4
HETATM    4  C   UNL     1      -8.814   9.974  67.291  1.00  0.00    -0.135 C  
BRANCH   4   5
HETATM    5  C   UNL     1     -10.027   9.143  67.719  1.00  0.00    -0.236 C  
BRANCH   5   6
HETATM    6  C   UNL     1     -10.729   9.687  68.977  1.00  0.00    -0.211 C  
BRANCH   6   7
HETATM    7  C   UNL     1     -10.996   8.532  69.937  1.00  0.00    -0.165 A  
HETATM    8  C   UNL     1     -11.574   6.371  71.639  1.00  0.00    -0.363 A  
HETATM    9  C   UNL     1     -11.397   8.754  71.263  1.00  0.00    -0.357 A  
HETATM   10  C   UNL     1     -10.901   7.207  69.477  1.00  0.00    -0.244 A  
HETATM   11  C   UNL     1     -11.679   7.680  72.109  1.00  0.00    -0.355 A  
HETATM   12  C   UNL     1     -11.186   6.135  70.323  1.00  0.00    -0.439 A  
ENDBRANCH   6   7
BRANCH   6  13
HETATM   13  O   UNL     1     -11.941  10.388  68.625  1.00  0.00    -0.249 OA 
BRANCH  13  14
HETATM   14  C   UNL     1     -12.030  11.691  69.051  1.00  0.00    -0.305 A  
HETATM   15  C   UNL     1     -12.211  12.040  70.398  1.00  0.00    -0.379 A  
HETATM   16  C   UNL     1     -12.306  14.383  69.838  1.00  0.00    -0.365 A  
HETATM   17  C   UNL     1     -12.364  13.370  70.787  1.00  0.00    -0.433 A  
HETATM   18  C   UNL     1     -12.053  14.063  68.505  1.00  0.00    -0.329 A  
HETATM   19  C   UNL     1     -11.886  12.724  68.102  1.00  0.00    -0.372 A  
HETATM   20  C   UNL     1     -11.575  12.447  66.656  1.00  0.00    -0.447 C  
ENDBRANCH  13  14
ENDBRANCH   6  13
ENDBRANCH   5   6
ENDBRANCH   4   5
ENDBRANCH   2   4
TORSDOF 6
ENDMDL
MODEL      130
REMARK 921   NORMALIZED FREE ENERGY PREDICTED BY IDOCK:   -4.40 KCAL/MOL
REMARK 922        TOTAL FREE ENERGY PREDICTED BY IDOCK:   -6.72 KCAL/MOL
REMARK 923 INTER-LIGAND FREE ENERGY PREDICTED BY IDOCK:   -5.55 KCAL/MOL
REMARK 924 INTRA-LIGAND FREE ENERGY PREDICTED BY IDOCK:   -1.17 KCAL/MOL
REMARK 927      BINDING AFFINITY PREDICTED BY RF-SCORE:    0.00 PKD
ROOT
HETATM    1  C   UNL     1      -9.571   6.233  73.305  1.00  0.00    -0.147 C  
HETATM    2  N   UNL     1     -10.108   7.585  73.354  1.00  0.00    -0.325 NA 
HETATM    3  H   UNL     1      -9.492   8.244  72.880  1.00  0.00     0.000 HD 
ENDROOT
BRANCH   2   4
HETATM    4  C   UNL     1     -11.474   7.654  72.820  1.00  0.00    -0.332 C  
BRANCH   4   5
HETATM    5  C   UNL     1     -11.565   6.731  71.603  1.00  0.00    -0.336 C  
BRANCH   5   6
HETATM    6  C   UNL     1     -11.276   7.444  70.268  1.00  0.00    -0.247 C  
BRANCH   6   7
HETATM    7  C   UNL     1     -10.748   6.426  69.263  1.00  0.00    -0.349 A  
HETATM    8  C   UNL     1      -9.882   4.523  67.385  1.00  0.00    -0.204 A  
HETATM    9  C   UNL     1     -10.030   5.292  69.673  1.00  0.00    -0.302 A  
HETATM   10  C   UNL     1     -11.034   6.582  67.895  1.00  0.00    -0.382 A  
HETATM   11  C   UNL     1      -9.596   4.350  68.738  1.00  0.00    -0.224 A  
HETATM   12  C   UNL     1     -10.601   5.638  66.963  1.00  0.00    -0.358 A  
ENDBRANCH   6   7
BRANCH   6  13
HETATM   13  O   UNL     1     -10.357   8.540  70.461  1.00  0.00    -0.193 OA 
BRANCH  13  14
HETATM   14  C   UNL     1     -10.820   9.785  70.112  1.00  0.00    -0.291 A  
HETATM   15  C   UNL     1     -11.703  10.522  70.916  1.00  0.00    -0.431 A  
HETATM   16  C   UNL     1     -11.807  12.291  69.282  1.00  0.00    -0.363 A  
HETATM   17  C   UNL     1     -12.205  11.753  70.499  1.00  0.00    -0.438 A  
HETATM   18  C   UNL     1     -10.873  11.610  68.501  1.00  0.00    -0.257 A  
HETATM   19  C   UNL     1     -10.351  10.370  68.918  1.00  0.00    -0.227 A  
HETATM   20  C   UNL     1      -9.317   9.705  68.050  1.00  0.00    -0.142 C  
ENDBRANCH  13  14
ENDBRANCH   6  13
ENDBRANCH   5   6
ENDBRANCH   4   5
ENDBRANCH   2   4
TORSDOF 6
ENDMDL
MODEL      131
REMARK 921   NORMALIZED FREE ENERGY PREDICTED BY IDOCK:   -4.39 KCAL/MOL
REMARK 922        TOTAL FREE ENERGY PREDICTED BY IDOCK:   -6.70 KCAL/MOL
REMARK 923 INTER-LIGAND FREE ENERGY PREDICTED BY IDOCK:   -5.69 KCAL/MOL
REMARK 924 INTRA-LIGAND FREE ENERGY PREDICTED BY IDOCK:   -1.02 KCAL/MOL
REMARK 927      BINDING AFFINITY PREDICTED BY RF-SCORE:    0.00 PKD
ROOT
HETATM    1  C   UNL     1      -8.630   9.343  65.685  1.00  0.00    -0.142 C  
HETATM    2  N   UNL     1      -9.048   8.677  66.910  1.00  0.00    -0.139 NA 
HETATM    3  H   UNL     1      -8.499   8.993  67.709  1.00  0.00     0.000 HD 
ENDROOT
BRANCH   2   4
HETATM    4  C   UNL     1     -10.486   8.832  67.158  1.00  0.00    -0.283 C  
BRANCH   4   5
HETATM    5  C   UNL     1     -10.774  10.311  67.428  1.00  0.00    -0.339 C  
BRANCH   5   6
HETATM    6  C   UNL     1     -11.088  10.615  68.906  1.00  0.00    -0.261 C  
BRANCH   6   7
HETATM    7  C   UNL     1     -11.389  12.103  69.054  1.00  0.00    -0.329 A  
HETATM    8  C   UNL     1     -11.834  14.863  69.343  1.00  0.00    -0.356 A  
HETATM    9  C   UNL     1     -12.147  12.597  70.127  1.00  0.00    -0.368 A  
HETATM   10  C   UNL     1     -10.849  13.020  68.136  1.00  0.00    -0.267 A  
HETATM   11  C   UNL     1     -12.372  13.968  70.266  1.00  0.00    -0.425 A  
HETATM   12  C   UNL     1     -11.072  14.390  68.278  1.00  0.00    -0.275 A  
ENDBRANCH   6   7
BRANCH   6  13
HETATM   13  O   UNL     1     -10.001  10.196  69.757  1.00  0.00    -0.231 OA 
BRANCH  13  14
HETATM   14  C   UNL     1     -10.334   9.359  70.794  1.00  0.00    -0.298 A  
HETATM   15  C   UNL     1     -11.655   8.969  71.063  1.00  0.00    -0.360 A  
HETATM   16  C   UNL     1     -10.955   7.721  73.002  1.00  0.00    -0.442 A  
HETATM   17  C   UNL     1     -11.966   8.172  72.163  1.00  0.00    -0.413 A  
HETATM   18  C   UNL     1      -9.628   8.035  72.711  1.00  0.00    -0.345 A  
HETATM   19  C   UNL     1      -9.302   8.831  71.596  1.00  0.00    -0.345 A  
HETATM   20  C   UNL     1      -7.849   9.101  71.313  1.00  0.00    -0.067 C  
ENDBRANCH  13  14
ENDBRANCH   6  13
ENDBRANCH   5   6
ENDBRANCH   4   5
ENDBRANCH   2   4
TORSDOF 6
ENDMDL
MODEL      132
REMARK 921   NORMALIZED FREE ENERGY PREDICTED BY IDOCK:   -4.38 KCAL/MOL
REMARK 922        TOTAL FREE ENERGY PREDICTED BY IDOCK:   -6.69 KCAL/MOL
REMARK 923 INTER-LIGAND FREE ENERGY PREDICTED BY IDOCK:   -5.63 KCAL/MOL
REMARK 924 INTRA-LIGAND FREE ENERGY PREDICTED BY IDOCK:   -1.06 KCAL/MOL
REMARK 927      BINDING AFFINITY PREDICTED BY RF-SCORE:    0.00 PKD
ROOT
HETATM    1  C   UNL     1     -12.408  15.899  71.632  1.00  0.00    -0.459 C  
HETATM    2  N   UNL     1     -12.789  14.847  70.701  1.00  0.00    -0.448 NA 
HETATM    3  H   UNL     1     -12.667  15.148  69.734  1.00  0.00     0.000 HD 
ENDROOT
BRANCH   2   4
HETATM    4  C   UNL     1     -12.073  13.594  70.963  1.00  0.00    -0.188 C  
BRANCH   4   5
HETATM    5  C   UNL     1     -12.647  12.509  70.048  1.00  0.00     0.109 C  
BRANCH   5   6
HETATM    6  C   UNL     1     -11.760  12.206  68.825  1.00  0.00    -0.321 C  
BRANCH   6   7
HETATM    7  C   UNL     1     -10.674  11.215  69.230  1.00  0.00    -0.241 A  
HETATM    8  C   UNL     1      -8.665   9.356  69.869  1.00  0.00    -0.209 A  
HETATM    9  C   UNL     1     -10.945  10.133  70.081  1.00  0.00    -0.376 A  
HETATM   10  C   UNL     1      -9.380  11.341  68.696  1.00  0.00    -0.167 A  
HETATM   11  C   UNL     1      -9.945   9.214  70.402  1.00  0.00    -0.263 A  
HETATM   12  C   UNL     1      -8.382  10.420  69.016  1.00  0.00    -0.150 A  
ENDBRANCH   6   7
BRANCH   6  13
HETATM   13  O   UNL     1     -11.207  13.422  68.279  1.00  0.00    -0.251 OA 
BRANCH  13  14
HETATM   14  C   UNL     1     -11.495  13.678  66.961  1.00  0.00    -0.343 A  
HETATM   15  C   UNL     1     -12.269  12.815  66.169  1.00  0.00    -0.340 A  
HETATM   16  C   UNL     1     -11.958  14.218  64.234  1.00  0.00    -0.449 A  
HETATM   17  C   UNL     1     -12.485  13.072  64.817  1.00  0.00    -0.485 A  
HETATM   18  C   UNL     1     -11.249  15.126  65.019  1.00  0.00    -0.414 A  
HETATM   19  C   UNL     1     -11.034  14.881  66.389  1.00  0.00    -0.336 A  
HETATM   20  C   UNL     1     -10.296  15.919  67.192  1.00  0.00    -0.300 C  
ENDBRANCH  13  14
ENDBRANCH   6  13
ENDBRANCH   5   6
ENDBRANCH   4   5
ENDBRANCH   2   4
TORSDOF 6
ENDMDL
MODEL      133
REMARK 921   NORMALIZED FREE ENERGY PREDICTED BY IDOCK:   -4.37 KCAL/MOL
REMARK 922        TOTAL FREE ENERGY PREDICTED BY IDOCK:   -6.68 KCAL/MOL
REMARK 923 INTER-LIGAND FREE ENERGY PREDICTED BY IDOCK:   -5.68 KCAL/MOL
REMARK 924 INTRA-LIGAND FREE ENERGY PREDICTED BY IDOCK:   -1.00 KCAL/MOL
REMARK 927      BINDING AFFINITY PREDICTED BY RF-SCORE:    0.00 PKD
ROOT
HETATM    1  C   UNL     1      -6.080  12.081  66.976  1.00  0.00    -0.132 C  
HETATM    2  N   UNL     1      -7.267  11.311  67.316  1.00  0.00    -0.106 NA 
HETATM    3  H   UNL     1      -7.020  10.384  67.661  1.00  0.00     0.000 HD 
ENDROOT
BRANCH   2   4
HETATM    4  C   UNL     1      -8.129  12.020  68.269  1.00  0.00    -0.155 C  
BRANCH   4   5
HETATM    5  C   UNL     1      -9.585  11.836  67.833  1.00  0.00    -0.187 C  
BRANCH   5   6
HETATM    6  C   UNL     1     -10.187  13.086  67.162  1.00  0.00    -0.243 C  
BRANCH   6   7
HETATM    7  C   UNL     1     -10.830  12.680  65.839  1.00  0.00    -0.300 A  
HETATM    8  C   UNL     1     -11.960  12.018  63.353  1.00  0.00    -0.571 A  
HETATM    9  C   UNL     1     -12.217  12.754  65.642  1.00  0.00    -0.503 A  
HETATM   10  C   UNL     1     -10.019  12.278  64.763  1.00  0.00    -0.215 A  
HETATM   11  C   UNL     1     -12.778  12.420  64.407  1.00  0.00    -0.434 A  
HETATM   12  C   UNL     1     -10.581  11.947  63.530  1.00  0.00    -0.507 A  
ENDBRANCH   6   7
BRANCH   6  13
HETATM   13  O   UNL     1      -9.182  14.106  66.984  1.00  0.00    -0.220 OA 
BRANCH  13  14
HETATM   14  C   UNL     1      -9.624  15.405  67.037  1.00  0.00    -0.218 A  
HETATM   15  C   UNL     1      -9.906  16.161  65.888  1.00  0.00    -0.384 A  
HETATM   16  C   UNL     1     -10.431  18.099  67.220  1.00  0.00    -0.407 A  
HETATM   17  C   UNL     1     -10.289  17.498  65.976  1.00  0.00    -0.309 A  
HETATM   18  C   UNL     1     -10.229  17.346  68.376  1.00  0.00    -0.362 A  
HETATM   19  C   UNL     1      -9.852  15.991  68.298  1.00  0.00    -0.219 A  
HETATM   20  C   UNL     1      -9.687  15.222  69.581  1.00  0.00    -0.208 C  
ENDBRANCH  13  14
ENDBRANCH   6  13
ENDBRANCH   5   6
ENDBRANCH   4   5
ENDBRANCH   2   4
TORSDOF 6
ENDMDL
MODEL      134
REMARK 921   NORMALIZED FREE ENERGY PREDICTED BY IDOCK:   -4.35 KCAL/MOL
REMARK 922        TOTAL FREE ENERGY PREDICTED BY IDOCK:   -6.65 KCAL/MOL
REMARK 923 INTER-LIGAND FREE ENERGY PREDICTED BY IDOCK:   -5.79 KCAL/MOL
REMARK 924 INTRA-LIGAND FREE ENERGY PREDICTED BY IDOCK:   -0.86 KCAL/MOL
REMARK 927      BINDING AFFINITY PREDICTED BY RF-SCORE:    0.00 PKD
ROOT
HETATM    1  C   UNL     1      -7.764   9.371  64.899  1.00  0.00    -0.111 C  
HETATM    2  N   UNL     1      -8.851   8.648  65.541  1.00  0.00    -0.235 NA 
HETATM    3  H   UNL     1      -8.518   8.118  66.347  1.00  0.00     0.000 HD 
ENDROOT
BRANCH   2   4
HETATM    4  C   UNL     1      -9.961   9.534  65.911  1.00  0.00    -0.272 C  
BRANCH   4   5
HETATM    5  C   UNL     1      -9.465  10.510  66.981  1.00  0.00    -0.188 C  
BRANCH   5   6
HETATM    6  C   UNL     1     -10.567  10.957  67.961  1.00  0.00    -0.202 C  
BRANCH   6   7
HETATM    7  C   UNL     1     -10.911  12.418  67.689  1.00  0.00    -0.276 A  
HETATM    8  C   UNL     1     -11.577  15.120  67.296  1.00  0.00    -0.231 A  
HETATM    9  C   UNL     1     -11.959  12.778  66.828  1.00  0.00    -0.389 A  
HETATM   10  C   UNL     1     -10.211  13.437  68.358  1.00  0.00    -0.251 A  
HETATM   11  C   UNL     1     -12.285  14.121  66.629  1.00  0.00    -0.450 A  
HETATM   12  C   UNL     1     -10.541  14.778  68.161  1.00  0.00    -0.241 A  
ENDBRANCH   6   7
BRANCH   6  13
HETATM   13  O   UNL     1     -10.154  10.744  69.327  1.00  0.00    -0.218 OA 
BRANCH  13  14
HETATM   14  C   UNL     1     -11.132  10.321  70.195  1.00  0.00    -0.319 A  
HETATM   15  C   UNL     1     -12.152  11.165  70.662  1.00  0.00    -0.477 A  
HETATM   16  C   UNL     1     -13.045   9.411  72.053  1.00  0.00    -0.516 A  
HETATM   17  C   UNL     1     -13.089  10.721  71.593  1.00  0.00    -0.551 A  
HETATM   18  C   UNL     1     -12.085   8.535  71.546  1.00  0.00    -0.351 A  
HETATM   19  C   UNL     1     -11.140   8.970  70.597  1.00  0.00    -0.314 A  
HETATM   20  C   UNL     1     -10.156   7.967  70.059  1.00  0.00    -0.199 C  
ENDBRANCH  13  14
ENDBRANCH   6  13
ENDBRANCH   5   6
ENDBRANCH   4   5
ENDBRANCH   2   4
TORSDOF 6
ENDMDL
MODEL      135
REMARK 921   NORMALIZED FREE ENERGY PREDICTED BY IDOCK:   -4.34 KCAL/MOL
REMARK 922        TOTAL FREE ENERGY PREDICTED BY IDOCK:   -6.65 KCAL/MOL
REMARK 923 INTER-LIGAND FREE ENERGY PREDICTED BY IDOCK:   -6.09 KCAL/MOL
REMARK 924 INTRA-LIGAND FREE ENERGY PREDICTED BY IDOCK:   -0.56 KCAL/MOL
REMARK 927      BINDING AFFINITY PREDICTED BY RF-SCORE:    0.00 PKD
ROOT
HETATM    1  C   UNL     1      -7.562  17.673  68.126  1.00  0.00    -0.234 C  
HETATM    2  N   UNL     1      -8.462  17.109  67.131  1.00  0.00    -0.195 NA 
HETATM    3  H   UNL     1      -7.952  16.801  66.303  1.00  0.00     0.000 HD 
ENDROOT
BRANCH   2   4
HETATM    4  C   UNL     1      -9.283  16.024  67.683  1.00  0.00    -0.205 C  
BRANCH   4   5
HETATM    5  C   UNL     1      -9.740  15.129  66.528  1.00  0.00    -0.290 C  
BRANCH   5   6
HETATM    6  C   UNL     1     -10.351  13.793  66.993  1.00  0.00    -0.260 C  
BRANCH   6   7
HETATM    7  C   UNL     1     -10.160  12.750  65.897  1.00  0.00    -0.286 A  
HETATM    8  C   UNL     1      -9.694  10.837  63.890  1.00  0.00    -0.366 A  
HETATM    9  C   UNL     1     -10.538  13.000  64.569  1.00  0.00    -0.413 A  
HETATM   10  C   UNL     1      -9.533  11.528  66.198  1.00  0.00    -0.239 A  
HETATM   11  C   UNL     1     -10.311  12.047  63.574  1.00  0.00    -0.492 A  
HETATM   12  C   UNL     1      -9.305  10.578  65.201  1.00  0.00    -0.262 A  
ENDBRANCH   6   7
BRANCH   6  13
HETATM   13  O   UNL     1     -11.741  13.960  67.344  1.00  0.00    -0.345 OA 
BRANCH  13  14
HETATM   14  C   UNL     1     -12.016  14.073  68.685  1.00  0.00    -0.354 A  
HETATM   15  C   UNL     1     -12.259  15.306  69.310  1.00  0.00    -0.218 A  
HETATM   16  C   UNL     1     -12.472  14.238  71.461  1.00  0.00    -0.435 A  
HETATM   17  C   UNL     1     -12.468  15.391  70.686  1.00  0.00    -0.478 A  
HETATM   18  C   UNL     1     -12.307  12.996  70.849  1.00  0.00    -0.376 A  
HETATM   19  C   UNL     1     -12.105  12.898  69.459  1.00  0.00    -0.274 A  
HETATM   20  C   UNL     1     -11.973  11.526  68.852  1.00  0.00    -0.364 C  
ENDBRANCH  13  14
ENDBRANCH   6  13
ENDBRANCH   5   6
ENDBRANCH   4   5
ENDBRANCH   2   4
TORSDOF 6
ENDMDL
MODEL      136
REMARK 921   NORMALIZED FREE ENERGY PREDICTED BY IDOCK:   -4.34 KCAL/MOL
REMARK 922        TOTAL FREE ENERGY PREDICTED BY IDOCK:   -6.64 KCAL/MOL
REMARK 923 INTER-LIGAND FREE ENERGY PREDICTED BY IDOCK:   -5.56 KCAL/MOL
REMARK 924 INTRA-LIGAND FREE ENERGY PREDICTED BY IDOCK:   -1.08 KCAL/MOL
REMARK 927      BINDING AFFINITY PREDICTED BY RF-SCORE:    0.00 PKD
ROOT
HETATM    1  C   UNL     1      -8.973   7.279  67.146  1.00  0.00    -0.126 C  
HETATM    2  N   UNL     1      -8.521   8.567  67.651  1.00  0.00    -0.128 NA 
HETATM    3  H   UNL     1      -9.159   9.315  67.379  1.00  0.00     0.000 HD 
ENDROOT
BRANCH   2   4
HETATM    4  C   UNL     1      -8.313   8.547  69.103  1.00  0.00    -0.120 C  
BRANCH   4   5
HETATM    5  C   UNL     1      -8.757   9.896  69.674  1.00  0.00    -0.218 C  
BRANCH   5   6
HETATM    6  C   UNL     1     -10.281  10.005  69.877  1.00  0.00    -0.260 C  
BRANCH   6   7
HETATM    7  C   UNL     1     -10.760   8.808  70.691  1.00  0.00    -0.267 A  
HETATM    8  C   UNL     1     -11.536   6.578  72.217  1.00  0.00    -0.330 A  
HETATM    9  C   UNL     1     -11.397   7.714  70.086  1.00  0.00    -0.147 A  
HETATM   10  C   UNL     1     -10.510   8.758  72.074  1.00  0.00    -0.414 A  
HETATM   11  C   UNL     1     -11.787   6.609  70.846  1.00  0.00    -0.434 A  
HETATM   12  C   UNL     1     -10.898   7.652  72.831  1.00  0.00    -0.446 A  
ENDBRANCH   6   7
BRANCH   6  13
HETATM   13  O   UNL     1     -10.961  10.103  68.608  1.00  0.00    -0.229 OA 
BRANCH  13  14
HETATM   14  C   UNL     1     -11.270  11.374  68.186  1.00  0.00    -0.278 A  
HETATM   15  C   UNL     1     -11.722  12.376  69.058  1.00  0.00    -0.372 A  
HETATM   16  C   UNL     1     -11.983  13.928  67.232  1.00  0.00    -0.446 A  
HETATM   17  C   UNL     1     -12.090  13.635  68.585  1.00  0.00    -0.325 A  
HETATM   18  C   UNL     1     -11.467  12.970  66.359  1.00  0.00    -0.384 A  
HETATM   19  C   UNL     1     -11.081  11.699  66.827  1.00  0.00    -0.366 A  
HETATM   20  C   UNL     1     -10.494  10.724  65.843  1.00  0.00    -0.270 C  
ENDBRANCH  13  14
ENDBRANCH   6  13
ENDBRANCH   5   6
ENDBRANCH   4   5
ENDBRANCH   2   4
TORSDOF 6
ENDMDL
MODEL      137
REMARK 921   NORMALIZED FREE ENERGY PREDICTED BY IDOCK:   -4.33 KCAL/MOL
REMARK 922        TOTAL FREE ENERGY PREDICTED BY IDOCK:   -6.63 KCAL/MOL
REMARK 923 INTER-LIGAND FREE ENERGY PREDICTED BY IDOCK:   -5.50 KCAL/MOL
REMARK 924 INTRA-LIGAND FREE ENERGY PREDICTED BY IDOCK:   -1.13 KCAL/MOL
REMARK 927      BINDING AFFINITY PREDICTED BY RF-SCORE:    0.00 PKD
ROOT
HETATM    1  C   UNL     1      -9.918   8.911  66.385  1.00  0.00    -0.284 C  
HETATM    2  N   UNL     1      -8.768   8.296  67.030  1.00  0.00    -0.125 NA 
HETATM    3  H   UNL     1      -7.929   8.863  66.909  1.00  0.00     0.000 HD 
ENDROOT
BRANCH   2   4
HETATM    4  C   UNL     1      -9.018   8.012  68.448  1.00  0.00    -0.133 C  
BRANCH   4   5
HETATM    5  C   UNL     1     -10.520   7.784  68.638  1.00  0.00    -0.199 C  
BRANCH   5   6
HETATM    6  C   UNL     1     -10.897   7.339  70.065  1.00  0.00    -0.253 C  
BRANCH   6   7
HETATM    7  C   UNL     1     -11.705   8.446  70.734  1.00  0.00    -0.219 A  
HETATM    8  C   UNL     1     -13.285  10.450  71.913  1.00  0.00    -0.535 A  
HETATM    9  C   UNL     1     -11.461   9.801  70.463  1.00  0.00    -0.370 A  
HETATM   10  C   UNL     1     -12.763   8.114  71.598  1.00  0.00    -0.343 A  
HETATM   11  C   UNL     1     -12.243  10.796  71.054  1.00  0.00    -0.485 A  
HETATM   12  C   UNL     1     -13.545   9.109  72.185  1.00  0.00    -0.534 A  
ENDBRANCH   6   7
BRANCH   6  13
HETATM   13  O   UNL     1      -9.718   6.996  70.823  1.00  0.00    -0.169 OA 
BRANCH  13  14
HETATM   14  C   UNL     1      -9.933   6.338  72.010  1.00  0.00    -0.168 A  
HETATM   15  C   UNL     1     -10.475   5.046  72.076  1.00  0.00    -0.269 A  
HETATM   16  C   UNL     1     -10.442   5.092  74.485  1.00  0.00    -0.274 A  
HETATM   17  C   UNL     1     -10.742   4.434  73.299  1.00  0.00    -0.307 A  
HETATM   18  C   UNL     1      -9.834   6.346  74.442  1.00  0.00    -0.338 A  
HETATM   19  C   UNL     1      -9.550   6.969  73.211  1.00  0.00    -0.209 A  
HETATM   20  C   UNL     1      -8.857   8.305  73.230  1.00  0.00    -0.283 C  
ENDBRANCH  13  14
ENDBRANCH   6  13
ENDBRANCH   5   6
ENDBRANCH   4   5
ENDBRANCH   2   4
TORSDOF 6
ENDMDL
MODEL      138
REMARK 921   NORMALIZED FREE ENERGY PREDICTED BY IDOCK:   -4.33 KCAL/MOL
REMARK 922        TOTAL FREE ENERGY PREDICTED BY IDOCK:   -6.62 KCAL/MOL
REMARK 923 INTER-LIGAND FREE ENERGY PREDICTED BY IDOCK:   -5.56 KCAL/MOL
REMARK 924 INTRA-LIGAND FREE ENERGY PREDICTED BY IDOCK:   -1.07 KCAL/MOL
REMARK 927      BINDING AFFINITY PREDICTED BY RF-SCORE:    0.00 PKD
ROOT
HETATM    1  C   UNL     1     -10.477  12.772  64.658  1.00  0.00    -0.350 C  
HETATM    2  N   UNL     1     -11.138  13.855  65.372  1.00  0.00    -0.302 NA 
HETATM    3  H   UNL     1     -11.622  14.480  64.728  1.00  0.00     0.000 HD 
ENDROOT
BRANCH   2   4
HETATM    4  C   UNL     1     -12.044  13.357  66.413  1.00  0.00    -0.409 C  
BRANCH   4   5
HETATM    5  C   UNL     1     -11.478  12.043  66.959  1.00  0.00    -0.402 C  
BRANCH   5   6
HETATM    6  C   UNL     1     -10.561  12.232  68.183  1.00  0.00    -0.214 C  
BRANCH   6   7
HETATM    7  C   UNL     1     -11.168  11.504  69.377  1.00  0.00    -0.324 A  
HETATM    8  C   UNL     1     -12.336  10.088  71.506  1.00  0.00    -0.513 A  
HETATM    9  C   UNL     1     -12.125  12.114  70.202  1.00  0.00    -0.368 A  
HETATM   10  C   UNL     1     -10.816  10.167  69.632  1.00  0.00    -0.299 A  
HETATM   11  C   UNL     1     -12.701  11.411  71.263  1.00  0.00    -0.498 A  
HETATM   12  C   UNL     1     -11.394   9.465  70.691  1.00  0.00    -0.352 A  
ENDBRANCH   6   7
BRANCH   6  13
HETATM   13  O   UNL     1     -10.351  13.634  68.454  1.00  0.00    -0.238 OA 
BRANCH  13  14
HETATM   14  C   UNL     1      -9.081  14.109  68.230  1.00  0.00    -0.190 A  
HETATM   15  C   UNL     1      -8.026  13.287  67.804  1.00  0.00    -0.166 A  
HETATM   16  C   UNL     1      -6.479  15.133  67.888  1.00  0.00    -0.176 A  
HETATM   17  C   UNL     1      -6.735  13.789  67.650  1.00  0.00    -0.189 A  
HETATM   18  C   UNL     1      -7.527  15.982  68.240  1.00  0.00    -0.136 A  
HETATM   19  C   UNL     1      -8.838  15.488  68.388  1.00  0.00    -0.183 A  
HETATM   20  C   UNL     1      -9.933  16.462  68.730  1.00  0.00    -0.246 C  
ENDBRANCH  13  14
ENDBRANCH   6  13
ENDBRANCH   5   6
ENDBRANCH   4   5
ENDBRANCH   2   4
TORSDOF 6
ENDMDL
MODEL      139
REMARK 921   NORMALIZED FREE ENERGY PREDICTED BY IDOCK:   -4.31 KCAL/MOL
REMARK 922        TOTAL FREE ENERGY PREDICTED BY IDOCK:   -6.60 KCAL/MOL
REMARK 923 INTER-LIGAND FREE ENERGY PREDICTED BY IDOCK:   -5.47 KCAL/MOL
REMARK 924 INTRA-LIGAND FREE ENERGY PREDICTED BY IDOCK:   -1.14 KCAL/MOL
REMARK 927      BINDING AFFINITY PREDICTED BY RF-SCORE:    0.00 PKD
ROOT
HETATM    1  C   UNL     1      -6.375  16.237  69.221  1.00  0.00    -0.177 C  
HETATM    2  N   UNL     1      -5.965  14.854  69.026  1.00  0.00    -0.094 NA 
HETATM    3  H   UNL     1      -6.251  14.270  69.812  1.00  0.00     0.000 HD 
ENDROOT
BRANCH   2   4
HETATM    4  C   UNL     1      -6.450  14.309  67.753  1.00  0.00    -0.166 C  
BRANCH   4   5
HETATM    5  C   UNL     1      -7.769  13.576  68.012  1.00  0.00    -0.143 C  
BRANCH   5   6
HETATM    6  C   UNL     1      -8.848  13.860  66.949  1.00  0.00    -0.193 C  
BRANCH   6   7
HETATM    7  C   UNL     1      -9.373  15.279  67.139  1.00  0.00    -0.227 A  
HETATM    8  C   UNL     1     -10.445  17.853  67.495  1.00  0.00    -0.398 A  
HETATM    9  C   UNL     1      -9.260  16.247  66.129  1.00  0.00    -0.376 A  
HETATM   10  C   UNL     1     -10.043  15.623  68.326  1.00  0.00    -0.218 A  
HETATM   11  C   UNL     1      -9.789  17.527  66.310  1.00  0.00    -0.295 A  
HETATM   12  C   UNL     1     -10.573  16.901  68.503  1.00  0.00    -0.367 A  
ENDBRANCH   6   7
BRANCH   6  13
HETATM   13  O   UNL     1      -9.904  12.879  67.017  1.00  0.00    -0.224 OA 
BRANCH  13  14
HETATM   14  C   UNL     1     -10.589  12.647  65.849  1.00  0.00    -0.273 A  
HETATM   15  C   UNL     1     -10.074  11.859  64.809  1.00  0.00    -0.295 A  
HETATM   16  C   UNL     1     -12.008  12.299  63.439  1.00  0.00    -0.588 A  
HETATM   17  C   UNL     1     -10.767  11.699  63.610  1.00  0.00    -0.500 A  
HETATM   18  C   UNL     1     -12.572  13.026  64.488  1.00  0.00    -0.387 A  
HETATM   19  C   UNL     1     -11.885  13.185  65.707  1.00  0.00    -0.442 A  
HETATM   20  C   UNL     1     -12.563  13.946  66.814  1.00  0.00    -0.103 C  
ENDBRANCH  13  14
ENDBRANCH   6  13
ENDBRANCH   5   6
ENDBRANCH   4   5
ENDBRANCH   2   4
TORSDOF 6
ENDMDL
MODEL      140
REMARK 921   NORMALIZED FREE ENERGY PREDICTED BY IDOCK:   -4.30 KCAL/MOL
REMARK 922        TOTAL FREE ENERGY PREDICTED BY IDOCK:   -6.58 KCAL/MOL
REMARK 923 INTER-LIGAND FREE ENERGY PREDICTED BY IDOCK:   -5.47 KCAL/MOL
REMARK 924 INTRA-LIGAND FREE ENERGY PREDICTED BY IDOCK:   -1.11 KCAL/MOL
REMARK 927      BINDING AFFINITY PREDICTED BY RF-SCORE:    0.00 PKD
ROOT
HETATM    1  C   UNL     1      -7.328  10.467  68.946  1.00  0.00    -0.098 C  
HETATM    2  N   UNL     1      -7.724  11.268  67.798  1.00  0.00    -0.109 NA 
HETATM    3  H   UNL     1      -8.285  10.723  67.143  1.00  0.00     0.000 HD 
ENDROOT
BRANCH   2   4
HETATM    4  C   UNL     1      -8.419  12.498  68.196  1.00  0.00    -0.180 C  
BRANCH   4   5
HETATM    5  C   UNL     1      -9.927  12.251  68.113  1.00  0.00    -0.210 C  
BRANCH   5   6
HETATM    6  C   UNL     1     -10.318  11.193  67.063  1.00  0.00    -0.224 C  
BRANCH   6   7
HETATM    7  C   UNL     1     -10.999  11.886  65.888  1.00  0.00    -0.354 A  
HETATM    8  C   UNL     1     -12.153  13.202  63.688  1.00  0.00    -0.583 A  
HETATM    9  C   UNL     1     -11.903  12.942  66.079  1.00  0.00    -0.485 A  
HETATM   10  C   UNL     1     -10.675  11.510  64.572  1.00  0.00    -0.390 A  
HETATM   11  C   UNL     1     -12.479  13.591  64.986  1.00  0.00    -0.462 A  
HETATM   12  C   UNL     1     -11.251  12.162  63.481  1.00  0.00    -0.536 A  
ENDBRANCH   6   7
BRANCH   6  13
HETATM   13  O   UNL     1     -11.156  10.174  67.649  1.00  0.00    -0.301 OA 
BRANCH  13  14
HETATM   14  C   UNL     1     -10.610   8.916  67.730  1.00  0.00    -0.202 A  
HETATM   15  C   UNL     1     -10.107   8.232  66.613  1.00  0.00    -0.351 A  
HETATM   16  C   UNL     1      -9.598   6.296  67.956  1.00  0.00    -0.115 A  
HETATM   17  C   UNL     1      -9.621   6.930  66.720  1.00  0.00    -0.215 A  
HETATM   18  C   UNL     1     -10.024   6.985  69.091  1.00  0.00    -0.165 A  
HETATM   19  C   UNL     1     -10.507   8.304  68.996  1.00  0.00    -0.212 A  
HETATM   20  C   UNL     1     -10.914   9.007  70.263  1.00  0.00    -0.274 C  
ENDBRANCH  13  14
ENDBRANCH   6  13
ENDBRANCH   5   6
ENDBRANCH   4   5
ENDBRANCH   2   4
TORSDOF 6
ENDMDL
MODEL      141
REMARK 921   NORMALIZED FREE ENERGY PREDICTED BY IDOCK:   -4.29 KCAL/MOL
REMARK 922        TOTAL FREE ENERGY PREDICTED BY IDOCK:   -6.57 KCAL/MOL
REMARK 923 INTER-LIGAND FREE ENERGY PREDICTED BY IDOCK:   -5.68 KCAL/MOL
REMARK 924 INTRA-LIGAND FREE ENERGY PREDICTED BY IDOCK:   -0.90 KCAL/MOL
REMARK 927      BINDING AFFINITY PREDICTED BY RF-SCORE:    0.00 PKD
ROOT
HETATM    1  C   UNL     1      -7.555   9.111  69.806  1.00  0.00    -0.079 C  
HETATM    2  N   UNL     1      -8.142  10.431  69.630  1.00  0.00    -0.316 NA 
HETATM    3  H   UNL     1      -8.185  10.937  70.515  1.00  0.00     0.000 HD 
ENDROOT
BRANCH   2   4
HETATM    4  C   UNL     1      -7.443  11.213  68.604  1.00  0.00    -0.119 C  
BRANCH   4   5
HETATM    5  C   UNL     1      -8.418  12.250  68.039  1.00  0.00    -0.171 C  
BRANCH   5   6
HETATM    6  C   UNL     1      -9.842  11.702  67.826  1.00  0.00    -0.179 C  
BRANCH   6   7
HETATM    7  C   UNL     1     -10.076  11.491  66.334  1.00  0.00    -0.250 A  
HETATM    8  C   UNL     1     -10.409  11.155  63.564  1.00  0.00    -0.446 A  
HETATM    9  C   UNL     1     -11.133  12.121  65.659  1.00  0.00    -0.360 A  
HETATM   10  C   UNL     1      -9.183  10.699  65.592  1.00  0.00    -0.227 A  
HETATM   11  C   UNL     1     -11.300  11.949  64.284  1.00  0.00    -0.425 A  
HETATM   12  C   UNL     1      -9.350  10.530  64.217  1.00  0.00    -0.310 A  
ENDBRANCH   6   7
BRANCH   6  13
HETATM   13  O   UNL     1     -10.823  12.585  68.409  1.00  0.00    -0.224 OA 
BRANCH  13  14
HETATM   14  C   UNL     1     -11.561  12.068  69.446  1.00  0.00    -0.330 A  
HETATM   15  C   UNL     1     -11.652  10.691  69.702  1.00  0.00    -0.368 A  
HETATM   16  C   UNL     1     -13.176  11.074  71.531  1.00  0.00    -0.400 A  
HETATM   17  C   UNL     1     -12.463  10.197  70.723  1.00  0.00    -0.417 A  
HETATM   18  C   UNL     1     -13.042  12.449  71.340  1.00  0.00    -0.299 A  
HETATM   19  C   UNL     1     -12.216  12.959  70.320  1.00  0.00    -0.362 A  
HETATM   20  C   UNL     1     -12.082  14.453  70.191  1.00  0.00    -0.397 C  
ENDBRANCH  13  14
ENDBRANCH   6  13
ENDBRANCH   5   6
ENDBRANCH   4   5
ENDBRANCH   2   4
TORSDOF 6
ENDMDL
MODEL      142
REMARK 921   NORMALIZED FREE ENERGY PREDICTED BY IDOCK:   -4.29 KCAL/MOL
REMARK 922        TOTAL FREE ENERGY PREDICTED BY IDOCK:   -6.57 KCAL/MOL
REMARK 923 INTER-LIGAND FREE ENERGY PREDICTED BY IDOCK:   -6.10 KCAL/MOL
REMARK 924 INTRA-LIGAND FREE ENERGY PREDICTED BY IDOCK:   -0.46 KCAL/MOL
REMARK 927      BINDING AFFINITY PREDICTED BY RF-SCORE:    0.00 PKD
ROOT
HETATM    1  C   UNL     1     -12.630  15.612  71.234  1.00  0.00    -0.463 C  
HETATM    2  N   UNL     1     -11.607  14.591  71.068  1.00  0.00    -0.501 NA 
HETATM    3  H   UNL     1     -10.849  14.714  71.740  1.00  0.00     0.000 HD 
ENDROOT
BRANCH   2   4
HETATM    4  C   UNL     1     -12.164  13.235  71.138  1.00  0.00    -0.113 C  
BRANCH   4   5
HETATM    5  C   UNL     1     -12.655  12.841  69.742  1.00  0.00     0.227 C  
BRANCH   5   6
HETATM    6  C   UNL     1     -12.034  11.531  69.220  1.00  0.00    -0.330 C  
BRANCH   6   7
HETATM    7  C   UNL     1     -11.987  10.515  70.357  1.00  0.00    -0.425 A  
HETATM    8  C   UNL     1     -11.927   8.727  72.524  1.00  0.00    -0.301 A  
HETATM    9  C   UNL     1     -10.799   9.859  70.709  1.00  0.00    -0.387 A  
HETATM   10  C   UNL     1     -13.143  10.268  71.119  1.00  0.00    -0.481 A  
HETATM   11  C   UNL     1     -10.771   8.966  71.783  1.00  0.00    -0.432 A  
HETATM   12  C   UNL     1     -13.112   9.378  72.193  1.00  0.00    -0.526 A  
ENDBRANCH   6   7
BRANCH   6  13
HETATM   13  O   UNL     1     -10.727  11.773  68.657  1.00  0.00    -0.205 OA 
BRANCH  13  14
HETATM   14  C   UNL     1     -10.529  11.320  67.375  1.00  0.00    -0.212 A  
HETATM   15  C   UNL     1     -10.229   9.982  67.079  1.00  0.00    -0.295 A  
HETATM   16  C   UNL     1     -10.036  10.485  64.729  1.00  0.00    -0.412 A  
HETATM   17  C   UNL     1      -9.969   9.571  65.773  1.00  0.00    -0.316 A  
HETATM   18  C   UNL     1     -10.405  11.804  64.993  1.00  0.00    -0.325 A  
HETATM   19  C   UNL     1     -10.681  12.228  66.307  1.00  0.00    -0.293 A  
HETATM   20  C   UNL     1     -11.113  13.653  66.521  1.00  0.00    -0.310 C  
ENDBRANCH  13  14
ENDBRANCH   6  13
ENDBRANCH   5   6
ENDBRANCH   4   5
ENDBRANCH   2   4
TORSDOF 6
ENDMDL
MODEL      143
REMARK 921   NORMALIZED FREE ENERGY PREDICTED BY IDOCK:   -4.28 KCAL/MOL
REMARK 922        TOTAL FREE ENERGY PREDICTED BY IDOCK:   -6.56 KCAL/MOL
REMARK 923 INTER-LIGAND FREE ENERGY PREDICTED BY IDOCK:   -5.89 KCAL/MOL
REMARK 924 INTRA-LIGAND FREE ENERGY PREDICTED BY IDOCK:   -0.67 KCAL/MOL
REMARK 927      BINDING AFFINITY PREDICTED BY RF-SCORE:    0.00 PKD
ROOT
HETATM    1  C   UNL     1     -13.108  11.863  71.351  1.00  0.00    -0.204 C  
HETATM    2  N   UNL     1     -13.182  13.222  71.868  1.00  0.00    -0.427 NA 
HETATM    3  H   UNL     1     -13.111  13.234  72.885  1.00  0.00     0.000 HD 
ENDROOT
BRANCH   2   4
HETATM    4  C   UNL     1     -12.179  14.100  71.254  1.00  0.00    -0.339 C  
BRANCH   4   5
HETATM    5  C   UNL     1     -12.648  14.457  69.841  1.00  0.00    -0.217 C  
BRANCH   5   6
HETATM    6  C   UNL     1     -11.600  14.154  68.752  1.00  0.00    -0.327 C  
BRANCH   6   7
HETATM    7  C   UNL     1     -10.601  15.304  68.690  1.00  0.00    -0.236 A  
HETATM    8  C   UNL     1      -8.786  17.438  68.465  1.00  0.00    -0.277 A  
HETATM    9  C   UNL     1      -9.225  15.093  68.859  1.00  0.00    -0.209 A  
HETATM   10  C   UNL     1     -11.050  16.603  68.394  1.00  0.00    -0.305 A  
HETATM   11  C   UNL     1      -8.324  16.155  68.752  1.00  0.00    -0.231 A  
HETATM   12  C   UNL     1     -10.148  17.663  68.285  1.00  0.00    -0.362 A  
ENDBRANCH   6   7
BRANCH   6  13
HETATM   13  O   UNL     1     -12.238  13.921  67.479  1.00  0.00    -0.366 OA 
BRANCH  13  14
HETATM   14  C   UNL     1     -11.491  13.248  66.543  1.00  0.00    -0.337 A  
HETATM   15  C   UNL     1     -11.027  13.851  65.364  1.00  0.00    -0.316 A  
HETATM   16  C   UNL     1     -10.049  11.777  64.620  1.00  0.00    -0.310 A  
HETATM   17  C   UNL     1     -10.327  13.120  64.404  1.00  0.00    -0.390 A  
HETATM   18  C   UNL     1     -10.436  11.177  65.818  1.00  0.00    -0.305 A  
HETATM   19  C   UNL     1     -11.134  11.909  66.799  1.00  0.00    -0.359 A  
HETATM   20  C   UNL     1     -11.489  11.216  68.087  1.00  0.00    -0.373 C  
ENDBRANCH  13  14
ENDBRANCH   6  13
ENDBRANCH   5   6
ENDBRANCH   4   5
ENDBRANCH   2   4
TORSDOF 6
ENDMDL
MODEL      144
REMARK 921   NORMALIZED FREE ENERGY PREDICTED BY IDOCK:   -4.28 KCAL/MOL
REMARK 922        TOTAL FREE ENERGY PREDICTED BY IDOCK:   -6.56 KCAL/MOL
REMARK 923 INTER-LIGAND FREE ENERGY PREDICTED BY IDOCK:   -5.69 KCAL/MOL
REMARK 924 INTRA-LIGAND FREE ENERGY PREDICTED BY IDOCK:   -0.87 KCAL/MOL
REMARK 927      BINDING AFFINITY PREDICTED BY RF-SCORE:    0.00 PKD
ROOT
HETATM    1  C   UNL     1      -5.909  11.860  66.894  1.00  0.00    -0.118 C  
HETATM    2  N   UNL     1      -7.070  12.163  67.717  1.00  0.00    -0.098 NA 
HETATM    3  H   UNL     1      -7.009  11.701  68.625  1.00  0.00     0.000 HD 
ENDROOT
BRANCH   2   4
HETATM    4  C   UNL     1      -7.278  13.607  67.868  1.00  0.00    -0.148 C  
BRANCH   4   5
HETATM    5  C   UNL     1      -8.739  13.848  68.256  1.00  0.00    -0.183 C  
BRANCH   5   6
HETATM    6  C   UNL     1      -9.601  14.385  67.097  1.00  0.00    -0.250 C  
BRANCH   6   7
HETATM    7  C   UNL     1      -9.824  15.880  67.294  1.00  0.00    -0.234 A  
HETATM    8  C   UNL     1     -10.132  18.656  67.613  1.00  0.00    -0.404 A  
HETATM    9  C   UNL     1      -9.949  16.444  68.573  1.00  0.00    -0.239 A  
HETATM   10  C   UNL     1      -9.845  16.736  66.179  1.00  0.00    -0.330 A  
HETATM   11  C   UNL     1     -10.107  17.822  68.730  1.00  0.00    -0.381 A  
HETATM   12  C   UNL     1     -10.001  18.113  66.338  1.00  0.00    -0.376 A  
ENDBRANCH   6   7
BRANCH   6  13
HETATM   13  O   UNL     1     -10.846  13.660  67.007  1.00  0.00    -0.282 OA 
BRANCH  13  14
HETATM   14  C   UNL     1     -11.227  13.270  65.745  1.00  0.00    -0.294 A  
HETATM   15  C   UNL     1     -11.833  14.145  64.830  1.00  0.00    -0.425 A  
HETATM   16  C   UNL     1     -12.076  12.375  63.212  1.00  0.00    -0.519 A  
HETATM   17  C   UNL     1     -12.268  13.699  63.583  1.00  0.00    -0.376 A  
HETATM   18  C   UNL     1     -11.410  11.507  64.077  1.00  0.00    -0.380 A  
HETATM   19  C   UNL     1     -10.957  11.949  65.335  1.00  0.00    -0.352 A  
HETATM   20  C   UNL     1     -10.209  10.975  66.206  1.00  0.00    -0.295 C  
ENDBRANCH  13  14
ENDBRANCH   6  13
ENDBRANCH   5   6
ENDBRANCH   4   5
ENDBRANCH   2   4
TORSDOF 6
ENDMDL
MODEL      145
REMARK 921   NORMALIZED FREE ENERGY PREDICTED BY IDOCK:   -4.26 KCAL/MOL
REMARK 922        TOTAL FREE ENERGY PREDICTED BY IDOCK:   -6.54 KCAL/MOL
REMARK 923 INTER-LIGAND FREE ENERGY PREDICTED BY IDOCK:   -5.82 KCAL/MOL
REMARK 924 INTRA-LIGAND FREE ENERGY PREDICTED BY IDOCK:   -0.72 KCAL/MOL
REMARK 927      BINDING AFFINITY PREDICTED BY RF-SCORE:    0.00 PKD
ROOT
HETATM    1  C   UNL     1      -9.200   5.672  68.585  1.00  0.00    -0.122 C  
HETATM    2  N   UNL     1     -10.224   5.347  69.566  1.00  0.00    -0.243 NA 
HETATM    3  H   UNL     1      -9.835   5.305  70.508  1.00  0.00     0.000 HD 
ENDROOT
BRANCH   2   4
HETATM    4  C   UNL     1     -11.362   6.272  69.502  1.00  0.00    -0.404 C  
BRANCH   4   5
HETATM    5  C   UNL     1     -10.997   7.542  70.276  1.00  0.00    -0.264 C  
BRANCH   5   6
HETATM    6  C   UNL     1     -12.134   8.059  71.178  1.00  0.00    -0.265 C  
BRANCH   6   7
HETATM    7  C   UNL     1     -12.260   9.568  71.004  1.00  0.00    -0.385 A  
HETATM    8  C   UNL     1     -12.380  12.360  70.696  1.00  0.00    -0.367 A  
HETATM    9  C   UNL     1     -12.950  10.361  71.933  1.00  0.00    -0.555 A  
HETATM   10  C   UNL     1     -11.622  10.202  69.923  1.00  0.00    -0.290 A  
HETATM   11  C   UNL     1     -13.013  11.747  71.776  1.00  0.00    -0.466 A  
HETATM   12  C   UNL     1     -11.684  11.588  69.770  1.00  0.00    -0.426 A  
ENDBRANCH   6   7
BRANCH   6  13
HETATM   13  O   UNL     1     -11.904   7.690  72.554  1.00  0.00    -0.311 OA 
BRANCH  13  14
HETATM   14  C   UNL     1     -10.609   7.371  72.885  1.00  0.00    -0.321 A  
HETATM   15  C   UNL     1      -9.602   8.337  73.035  1.00  0.00    -0.295 A  
HETATM   16  C   UNL     1      -7.951   6.634  73.464  1.00  0.00    -0.097 A  
HETATM   17  C   UNL     1      -8.284   7.973  73.306  1.00  0.00    -0.254 A  
HETATM   18  C   UNL     1      -8.950   5.663  73.392  1.00  0.00    -0.129 A  
HETATM   19  C   UNL     1     -10.287   6.021  73.130  1.00  0.00    -0.230 A  
HETATM   20  C   UNL     1     -11.325   4.931  73.104  1.00  0.00    -0.395 C  
ENDBRANCH  13  14
ENDBRANCH   6  13
ENDBRANCH   5   6
ENDBRANCH   4   5
ENDBRANCH   2   4
TORSDOF 6
ENDMDL
MODEL      146
REMARK 921   NORMALIZED FREE ENERGY PREDICTED BY IDOCK:   -4.26 KCAL/MOL
REMARK 922        TOTAL FREE ENERGY PREDICTED BY IDOCK:   -6.53 KCAL/MOL
REMARK 923 INTER-LIGAND FREE ENERGY PREDICTED BY IDOCK:   -5.72 KCAL/MOL
REMARK 924 INTRA-LIGAND FREE ENERGY PREDICTED BY IDOCK:   -0.81 KCAL/MOL
REMARK 927      BINDING AFFINITY PREDICTED BY RF-SCORE:    0.00 PKD
ROOT
HETATM    1  C   UNL     1      -8.650   5.967  66.756  1.00  0.00    -0.110 C  
HETATM    2  N   UNL     1      -9.992   6.142  66.221  1.00  0.00    -0.377 NA 
HETATM    3  H   UNL     1     -10.477   5.248  66.142  1.00  0.00     0.000 HD 
ENDROOT
BRANCH   2   4
HETATM    4  C   UNL     1     -10.776   7.105  67.003  1.00  0.00    -0.350 C  
BRANCH   4   5
HETATM    5  C   UNL     1      -9.946   8.380  67.173  1.00  0.00    -0.304 C  
BRANCH   5   6
HETATM    6  C   UNL     1     -10.685   9.496  67.935  1.00  0.00    -0.228 C  
BRANCH   6   7
HETATM    7  C   UNL     1     -10.445  10.826  67.227  1.00  0.00    -0.282 A  
HETATM    8  C   UNL     1      -9.951  13.219  65.838  1.00  0.00    -0.280 A  
HETATM    9  C   UNL     1      -9.627  11.820  67.784  1.00  0.00    -0.184 A  
HETATM   10  C   UNL     1     -11.002  11.049  65.955  1.00  0.00    -0.136 A  
HETATM   11  C   UNL     1      -9.387  13.011  67.095  1.00  0.00    -0.230 A  
HETATM   12  C   UNL     1     -10.759  12.238  65.268  1.00  0.00    -0.329 A  
ENDBRANCH   6   7
BRANCH   6  13
HETATM   13  O   UNL     1     -10.266   9.537  69.316  1.00  0.00    -0.186 OA 
BRANCH  13  14
HETATM   14  C   UNL     1     -11.258   9.756  70.241  1.00  0.00    -0.288 A  
HETATM   15  C   UNL     1     -11.883  11.001  70.406  1.00  0.00    -0.460 A  
HETATM   16  C   UNL     1     -13.214  10.158  72.230  1.00  0.00    -0.359 A  
HETATM   17  C   UNL     1     -12.839  11.206  71.399  1.00  0.00    -0.544 A  
HETATM   18  C   UNL     1     -12.659   8.893  72.035  1.00  0.00    -0.460 A  
HETATM   19  C   UNL     1     -11.701   8.672  71.027  1.00  0.00    -0.319 A  
HETATM   20  C   UNL     1     -11.170   7.277  70.841  1.00  0.00    -0.298 C  
ENDBRANCH  13  14
ENDBRANCH   6  13
ENDBRANCH   5   6
ENDBRANCH   4   5
ENDBRANCH   2   4
TORSDOF 6
ENDMDL
MODEL      147
REMARK 921   NORMALIZED FREE ENERGY PREDICTED BY IDOCK:   -4.26 KCAL/MOL
REMARK 922        TOTAL FREE ENERGY PREDICTED BY IDOCK:   -6.53 KCAL/MOL
REMARK 923 INTER-LIGAND FREE ENERGY PREDICTED BY IDOCK:   -5.42 KCAL/MOL
REMARK 924 INTRA-LIGAND FREE ENERGY PREDICTED BY IDOCK:   -1.11 KCAL/MOL
REMARK 927      BINDING AFFINITY PREDICTED BY RF-SCORE:    0.00 PKD
ROOT
HETATM    1  C   UNL     1     -11.788  14.559  68.908  1.00  0.00    -0.324 C  
HETATM    2  N   UNL     1     -10.777  13.950  68.056  1.00  0.00    -0.242 NA 
HETATM    3  H   UNL     1     -10.570  12.996  68.352  1.00  0.00     0.000 HD 
ENDROOT
BRANCH   2   4
HETATM    4  C   UNL     1     -11.149  13.997  66.638  1.00  0.00    -0.309 C  
BRANCH   4   5
HETATM    5  C   UNL     1     -11.676  12.619  66.229  1.00  0.00    -0.460 C  
BRANCH   5   6
HETATM    6  C   UNL     1     -10.748  11.460  66.642  1.00  0.00    -0.269 C  
BRANCH   6   7
HETATM    7  C   UNL     1      -9.875  11.074  65.453  1.00  0.00    -0.301 A  
HETATM    8  C   UNL     1      -8.190  10.438  63.295  1.00  0.00    -0.148 A  
HETATM    9  C   UNL     1     -10.286  11.308  64.132  1.00  0.00    -0.391 A  
HETATM   10  C   UNL     1      -8.599  10.526  65.672  1.00  0.00    -0.182 A  
HETATM   11  C   UNL     1      -9.450  10.986  63.061  1.00  0.00    -0.379 A  
HETATM   12  C   UNL     1      -7.764  10.208  64.600  1.00  0.00    -0.141 A  
ENDBRANCH   6   7
BRANCH   6  13
HETATM   13  O   UNL     1     -11.514  10.342  67.137  1.00  0.00    -0.250 OA 
BRANCH  13  14
HETATM   14  C   UNL     1     -11.388  10.070  68.478  1.00  0.00    -0.052 A  
HETATM   15  C   UNL     1     -11.993  10.852  69.473  1.00  0.00    -0.401 A  
HETATM   16  C   UNL     1     -11.001   9.510  71.213  1.00  0.00    -0.440 A  
HETATM   17  C   UNL     1     -11.790  10.586  70.826  1.00  0.00    -0.465 A  
HETATM   18  C   UNL     1     -10.451   8.676  70.240  1.00  0.00    -0.229 A  
HETATM   19  C   UNL     1     -10.659   8.929  68.870  1.00  0.00    -0.188 A  
HETATM   20  C   UNL     1     -10.071   7.969  67.871  1.00  0.00    -0.243 C  
ENDBRANCH  13  14
ENDBRANCH   6  13
ENDBRANCH   5   6
ENDBRANCH   4   5
ENDBRANCH   2   4
TORSDOF 6
ENDMDL
MODEL      148
REMARK 921   NORMALIZED FREE ENERGY PREDICTED BY IDOCK:   -4.20 KCAL/MOL
REMARK 922        TOTAL FREE ENERGY PREDICTED BY IDOCK:   -6.45 KCAL/MOL
REMARK 923 INTER-LIGAND FREE ENERGY PREDICTED BY IDOCK:   -5.55 KCAL/MOL
REMARK 924 INTRA-LIGAND FREE ENERGY PREDICTED BY IDOCK:   -0.90 KCAL/MOL
REMARK 927      BINDING AFFINITY PREDICTED BY RF-SCORE:    0.00 PKD
ROOT
HETATM    1  C   UNL     1     -10.714   7.403  67.506  1.00  0.00    -0.240 C  
HETATM    2  N   UNL     1     -10.075   6.773  68.652  1.00  0.00    -0.153 NA 
HETATM    3  H   UNL     1      -9.710   7.470  69.301  1.00  0.00     0.000 HD 
ENDROOT
BRANCH   2   4
HETATM    4  C   UNL     1     -10.970   5.830  69.333  1.00  0.00    -0.282 C  
BRANCH   4   5
HETATM    5  C   UNL     1     -11.540   6.515  70.578  1.00  0.00    -0.455 C  
BRANCH   5   6
HETATM    6  C   UNL     1     -10.464   6.899  71.613  1.00  0.00    -0.204 C  
BRANCH   6   7
HETATM    7  C   UNL     1     -10.211   5.709  72.532  1.00  0.00    -0.225 A  
HETATM    8  C   UNL     1      -9.702   3.459  74.138  1.00  0.00    -0.142 A  
HETATM    9  C   UNL     1     -11.267   5.002  73.127  1.00  0.00    -0.408 A  
HETATM   10  C   UNL     1      -8.896   5.260  72.747  1.00  0.00    -0.122 A  
HETATM   11  C   UNL     1     -11.012   3.887  73.929  1.00  0.00    -0.285 A  
HETATM   12  C   UNL     1      -8.644   4.145  73.546  1.00  0.00    -0.092 A  
ENDBRANCH   6   7
BRANCH   6  13
HETATM   13  O   UNL     1     -10.859   8.077  72.348  1.00  0.00    -0.275 OA 
BRANCH  13  14
HETATM   14  C   UNL     1     -11.199   9.174  71.594  1.00  0.00    -0.377 A  
HETATM   15  C   UNL     1     -10.306   9.791  70.704  1.00  0.00    -0.330 A  
HETATM   16  C   UNL     1     -11.932  11.483  70.156  1.00  0.00    -0.452 A  
HETATM   17  C   UNL     1     -10.662  10.942  70.004  1.00  0.00    -0.049 A  
HETATM   18  C   UNL     1     -12.859  10.844  70.979  1.00  0.00    -0.472 A  
HETATM   19  C   UNL     1     -12.514   9.674  71.682  1.00  0.00    -0.494 A  
HETATM   20  C   UNL     1     -13.570   9.009  72.522  1.00  0.00    -0.492 C  
ENDBRANCH  13  14
ENDBRANCH   6  13
ENDBRANCH   5   6
ENDBRANCH   4   5
ENDBRANCH   2   4
TORSDOF 6
ENDMDL
MODEL      149
REMARK 921   NORMALIZED FREE ENERGY PREDICTED BY IDOCK:   -4.20 KCAL/MOL
REMARK 922        TOTAL FREE ENERGY PREDICTED BY IDOCK:   -6.45 KCAL/MOL
REMARK 923 INTER-LIGAND FREE ENERGY PREDICTED BY IDOCK:   -5.42 KCAL/MOL
REMARK 924 INTRA-LIGAND FREE ENERGY PREDICTED BY IDOCK:   -1.03 KCAL/MOL
REMARK 927      BINDING AFFINITY PREDICTED BY RF-SCORE:    0.00 PKD
ROOT
HETATM    1  C   UNL     1     -10.734  13.730  68.781  1.00  0.00    -0.249 C  
HETATM    2  N   UNL     1     -10.629  12.337  69.189  1.00  0.00    -0.429 NA 
HETATM    3  H   UNL     1     -10.874  12.221  70.172  1.00  0.00     0.000 HD 
ENDROOT
BRANCH   2   4
HETATM    4  C   UNL     1     -11.427  11.451  68.333  1.00  0.00    -0.299 C  
BRANCH   4   5
HETATM    5  C   UNL     1     -11.196  10.007  68.784  1.00  0.00    -0.173 C  
BRANCH   5   6
HETATM    6  C   UNL     1     -10.063   9.860  69.818  1.00  0.00    -0.242 C  
BRANCH   6   7
HETATM    7  C   UNL     1      -9.260   8.603  69.501  1.00  0.00    -0.150 A  
HETATM    8  C   UNL     1      -7.688   6.349  68.911  1.00  0.00    -0.108 A  
HETATM    9  C   UNL     1      -9.473   7.871  68.323  1.00  0.00    -0.149 A  
HETATM   10  C   UNL     1      -8.238   8.190  70.373  1.00  0.00    -0.114 A  
HETATM   11  C   UNL     1      -8.694   6.749  68.034  1.00  0.00    -0.118 A  
HETATM   12  C   UNL     1      -7.459   7.069  70.081  1.00  0.00    -0.086 A  
ENDBRANCH   6   7
BRANCH   6  13
HETATM   13  O   UNL     1     -10.593   9.840  71.160  1.00  0.00    -0.297 OA 
BRANCH  13  14
HETATM   14  C   UNL     1     -11.741   9.108  71.345  1.00  0.00    -0.343 A  
HETATM   15  C   UNL     1     -11.762   7.705  71.308  1.00  0.00    -0.308 A  
HETATM   16  C   UNL     1     -14.151   7.675  71.631  1.00  0.00    -0.547 A  
HETATM   17  C   UNL     1     -12.955   6.996  71.433  1.00  0.00    -0.395 A  
HETATM   18  C   UNL     1     -14.142   9.065  71.745  1.00  0.00    -0.377 A  
HETATM   19  C   UNL     1     -12.940   9.791  71.631  1.00  0.00    -0.517 A  
HETATM   20  C   UNL     1     -12.991  11.285  71.803  1.00  0.00    -0.519 C  
ENDBRANCH  13  14
ENDBRANCH   6  13
ENDBRANCH   5   6
ENDBRANCH   4   5
ENDBRANCH   2   4
TORSDOF 6
ENDMDL
MODEL      150
REMARK 921   NORMALIZED FREE ENERGY PREDICTED BY IDOCK:   -4.20 KCAL/MOL
REMARK 922        TOTAL FREE ENERGY PREDICTED BY IDOCK:   -6.44 KCAL/MOL
REMARK 923 INTER-LIGAND FREE ENERGY PREDICTED BY IDOCK:   -5.43 KCAL/MOL
REMARK 924 INTRA-LIGAND FREE ENERGY PREDICTED BY IDOCK:   -1.02 KCAL/MOL
REMARK 927      BINDING AFFINITY PREDICTED BY RF-SCORE:    0.00 PKD
ROOT
HETATM    1  C   UNL     1      -9.218   6.585  66.221  1.00  0.00    -0.133 C  
HETATM    2  N   UNL     1     -10.594   6.853  66.614  1.00  0.00    -0.517 NA 
HETATM    3  H   UNL     1     -11.076   5.993  66.877  1.00  0.00     0.000 HD 
ENDROOT
BRANCH   2   4
HETATM    4  C   UNL     1     -10.677   7.857  67.681  1.00  0.00    -0.145 C  
BRANCH   4   5
HETATM    5  C   UNL     1      -9.747   9.020  67.324  1.00  0.00    -0.232 C  
BRANCH   5   6
HETATM    6  C   UNL     1     -10.451  10.390  67.321  1.00  0.00    -0.252 C  
BRANCH   6   7
HETATM    7  C   UNL     1     -10.619  10.861  65.881  1.00  0.00    -0.244 A  
HETATM    8  C   UNL     1     -11.033  11.684  63.225  1.00  0.00    -0.361 A  
HETATM    9  C   UNL     1      -9.836  10.340  64.840  1.00  0.00    -0.404 A  
HETATM   10  C   UNL     1     -11.622  11.794  65.563  1.00  0.00    -0.192 A  
HETATM   11  C   UNL     1     -10.039  10.753  63.522  1.00  0.00    -0.364 A  
HETATM   12  C   UNL     1     -11.825  12.204  64.245  1.00  0.00    -0.460 A  
ENDBRANCH   6   7
BRANCH   6  13
HETATM   13  O   UNL     1      -9.719  11.343  68.120  1.00  0.00    -0.179 OA 
BRANCH  13  14
HETATM   14  C   UNL     1     -10.402  12.480  68.480  1.00  0.00    -0.222 A  
HETATM   15  C   UNL     1     -11.573  12.452  69.252  1.00  0.00    -0.379 A  
HETATM   16  C   UNL     1     -11.805  14.846  69.093  1.00  0.00    -0.340 A  
HETATM   17  C   UNL     1     -12.277  13.620  69.542  1.00  0.00    -0.316 A  
HETATM   18  C   UNL     1     -10.603  14.904  68.387  1.00  0.00    -0.244 A  
HETATM   19  C   UNL     1      -9.878  13.732  68.098  1.00  0.00    -0.239 A  
HETATM   20  C   UNL     1      -8.569  13.865  67.368  1.00  0.00    -0.206 C  
ENDBRANCH  13  14
ENDBRANCH   6  13
ENDBRANCH   5   6
ENDBRANCH   4   5
ENDBRANCH   2   4
TORSDOF 6
ENDMDL
MODEL      151
REMARK 921   NORMALIZED FREE ENERGY PREDICTED BY IDOCK:   -4.18 KCAL/MOL
REMARK 922        TOTAL FREE ENERGY PREDICTED BY IDOCK:   -6.42 KCAL/MOL
REMARK 923 INTER-LIGAND FREE ENERGY PREDICTED BY IDOCK:   -5.90 KCAL/MOL
REMARK 924 INTRA-LIGAND FREE ENERGY PREDICTED BY IDOCK:   -0.52 KCAL/MOL
REMARK 927      BINDING AFFINITY PREDICTED BY RF-SCORE:    0.00 PKD
ROOT
HETATM    1  C   UNL     1     -14.054   8.556  71.943  1.00  0.00    -0.447 C  
HETATM    2  N   UNL     1     -13.215   9.116  70.894  1.00  0.00    -0.539 NA 
HETATM    3  H   UNL     1     -13.776   9.599  70.192  1.00  0.00     0.000 HD 
ENDROOT
BRANCH   2   4
HETATM    4  C   UNL     1     -12.168   9.991  71.432  1.00  0.00    -0.416 C  
BRANCH   4   5
HETATM    5  C   UNL     1     -10.826   9.565  70.832  1.00  0.00    -0.407 C  
BRANCH   5   6
HETATM    6  C   UNL     1     -10.876   9.353  69.306  1.00  0.00    -0.172 C  
BRANCH   6   7
HETATM    7  C   UNL     1     -10.594   7.886  68.998  1.00  0.00    -0.177 A  
HETATM    8  C   UNL     1      -9.965   5.203  68.444  1.00  0.00    -0.214 A  
HETATM    9  C   UNL     1     -10.875   7.331  67.741  1.00  0.00    -0.214 A  
HETATM   10  C   UNL     1      -9.981   7.074  69.969  1.00  0.00    -0.188 A  
HETATM   11  C   UNL     1     -10.567   5.996  67.469  1.00  0.00    -0.345 A  
HETATM   12  C   UNL     1      -9.671   5.742  69.694  1.00  0.00    -0.208 A  
ENDBRANCH   6   7
BRANCH   6  13
HETATM   13  O   UNL     1      -9.950  10.234  68.636  1.00  0.00    -0.160 OA 
BRANCH  13  14
HETATM   14  C   UNL     1     -10.374  10.759  67.439  1.00  0.00    -0.211 A  
HETATM   15  C   UNL     1     -10.010  10.214  66.198  1.00  0.00    -0.310 A  
HETATM   16  C   UNL     1     -11.199  11.950  65.023  1.00  0.00    -0.350 A  
HETATM   17  C   UNL     1     -10.404  10.812  65.002  1.00  0.00    -0.357 A  
HETATM   18  C   UNL     1     -11.634  12.464  66.244  1.00  0.00    -0.449 A  
HETATM   19  C   UNL     1     -11.251  11.862  67.458  1.00  0.00    -0.359 A  
HETATM   20  C   UNL     1     -11.785  12.440  68.741  1.00  0.00    -0.379 C  
ENDBRANCH  13  14
ENDBRANCH   6  13
ENDBRANCH   5   6
ENDBRANCH   4   5
ENDBRANCH   2   4
TORSDOF 6
ENDMDL
MODEL      152
REMARK 921   NORMALIZED FREE ENERGY PREDICTED BY IDOCK:   -4.17 KCAL/MOL
REMARK 922        TOTAL FREE ENERGY PREDICTED BY IDOCK:   -6.42 KCAL/MOL
REMARK 923 INTER-LIGAND FREE ENERGY PREDICTED BY IDOCK:   -5.75 KCAL/MOL
REMARK 924 INTRA-LIGAND FREE ENERGY PREDICTED BY IDOCK:   -0.66 KCAL/MOL
REMARK 927      BINDING AFFINITY PREDICTED BY RF-SCORE:    0.00 PKD
ROOT
HETATM    1  C   UNL     1      -7.430  18.713  68.516  1.00  0.00    -0.302 C  
HETATM    2  N   UNL     1      -8.440  19.332  67.670  1.00  0.00    -0.286 NA 
HETATM    3  H   UNL     1      -8.028  19.704  66.814  1.00  0.00     0.000 HD 
ENDROOT
BRANCH   2   4
HETATM    4  C   UNL     1      -9.547  18.416  67.373  1.00  0.00    -0.286 C  
BRANCH   4   5
HETATM    5  C   UNL     1      -9.258  17.073  68.049  1.00  0.00    -0.241 C  
BRANCH   5   6
HETATM    6  C   UNL     1     -10.225  15.952  67.624  1.00  0.00    -0.263 C  
BRANCH   6   7
HETATM    7  C   UNL     1     -10.893  15.373  68.867  1.00  0.00    -0.251 A  
HETATM    8  C   UNL     1     -12.220  14.361  71.129  1.00  0.00    -0.420 A  
HETATM    9  C   UNL     1     -10.477  15.729  70.159  1.00  0.00    -0.288 A  
HETATM   10  C   UNL     1     -11.995  14.510  68.730  1.00  0.00    -0.315 A  
HETATM   11  C   UNL     1     -11.134  15.221  71.282  1.00  0.00    -0.306 A  
HETATM   12  C   UNL     1     -12.651  14.006  69.853  1.00  0.00    -0.195 A  
ENDBRANCH   6   7
BRANCH   6  13
HETATM   13  O   UNL     1      -9.534  14.940  66.862  1.00  0.00    -0.218 OA 
BRANCH  13  14
HETATM   14  C   UNL     1     -10.320  14.132  66.077  1.00  0.00    -0.309 A  
HETATM   15  C   UNL     1     -11.394  14.622  65.317  1.00  0.00    -0.354 A  
HETATM   16  C   UNL     1     -11.954  12.400  64.570  1.00  0.00    -0.474 A  
HETATM   17  C   UNL     1     -12.212  13.765  64.584  1.00  0.00    -0.440 A  
HETATM   18  C   UNL     1     -10.848  11.902  65.258  1.00  0.00    -0.347 A  
HETATM   19  C   UNL     1     -10.008  12.760  65.993  1.00  0.00    -0.277 A  
HETATM   20  C   UNL     1      -8.809  12.167  66.681  1.00  0.00    -0.182 C  
ENDBRANCH  13  14
ENDBRANCH   6  13
ENDBRANCH   5   6
ENDBRANCH   4   5
ENDBRANCH   2   4
TORSDOF 6
ENDMDL
MODEL      153
REMARK 921   NORMALIZED FREE ENERGY PREDICTED BY IDOCK:   -4.17 KCAL/MOL
REMARK 922        TOTAL FREE ENERGY PREDICTED BY IDOCK:   -6.41 KCAL/MOL
REMARK 923 INTER-LIGAND FREE ENERGY PREDICTED BY IDOCK:   -5.47 KCAL/MOL
REMARK 924 INTRA-LIGAND FREE ENERGY PREDICTED BY IDOCK:   -0.94 KCAL/MOL
REMARK 927      BINDING AFFINITY PREDICTED BY RF-SCORE:    0.00 PKD
ROOT
HETATM    1  C   UNL     1      -7.159   9.893  69.914  1.00  0.00    -0.118 C  
HETATM    2  N   UNL     1      -7.227  10.529  68.607  1.00  0.00    -0.083 NA 
HETATM    3  H   UNL     1      -6.543  10.128  67.965  1.00  0.00     0.000 HD 
ENDROOT
BRANCH   2   4
HETATM    4  C   UNL     1      -8.580  10.480  68.040  1.00  0.00    -0.121 C  
BRANCH   4   5
HETATM    5  C   UNL     1      -8.613  11.366  66.792  1.00  0.00    -0.166 C  
BRANCH   5   6
HETATM    6  C   UNL     1      -9.577  12.562  66.914  1.00  0.00    -0.229 C  
BRANCH   6   7
HETATM    7  C   UNL     1     -10.514  12.571  65.711  1.00  0.00    -0.296 A  
HETATM    8  C   UNL     1     -12.298  12.500  63.540  1.00  0.00    -0.623 A  
HETATM    9  C   UNL     1     -10.060  12.252  64.422  1.00  0.00    -0.296 A  
HETATM   10  C   UNL     1     -11.881  12.841  65.893  1.00  0.00    -0.490 A  
HETATM   11  C   UNL     1     -10.947  12.223  63.343  1.00  0.00    -0.467 A  
HETATM   12  C   UNL     1     -12.766  12.809  64.814  1.00  0.00    -0.469 A  
ENDBRANCH   6   7
BRANCH   6  13
HETATM   13  O   UNL     1      -8.844  13.799  67.037  1.00  0.00    -0.223 OA 
BRANCH  13  14
HETATM   14  C   UNL     1      -9.425  14.770  67.816  1.00  0.00    -0.204 A  
HETATM   15  C   UNL     1     -10.126  14.480  68.997  1.00  0.00    -0.187 A  
HETATM   16  C   UNL     1     -10.679  16.805  69.309  1.00  0.00    -0.324 A  
HETATM   17  C   UNL     1     -10.760  15.483  69.727  1.00  0.00    -0.301 A  
HETATM   18  C   UNL     1      -9.926  17.125  68.180  1.00  0.00    -0.297 A  
HETATM   19  C   UNL     1      -9.272  16.120  67.440  1.00  0.00    -0.213 A  
HETATM   20  C   UNL     1      -8.442  16.534  66.255  1.00  0.00    -0.363 C  
ENDBRANCH  13  14
ENDBRANCH   6  13
ENDBRANCH   5   6
ENDBRANCH   4   5
ENDBRANCH   2   4
TORSDOF 6
ENDMDL
MODEL      154
REMARK 921   NORMALIZED FREE ENERGY PREDICTED BY IDOCK:   -4.17 KCAL/MOL
REMARK 922        TOTAL FREE ENERGY PREDICTED BY IDOCK:   -6.41 KCAL/MOL
REMARK 923 INTER-LIGAND FREE ENERGY PREDICTED BY IDOCK:   -5.52 KCAL/MOL
REMARK 924 INTRA-LIGAND FREE ENERGY PREDICTED BY IDOCK:   -0.89 KCAL/MOL
REMARK 927      BINDING AFFINITY PREDICTED BY RF-SCORE:    0.00 PKD
ROOT
HETATM    1  C   UNL     1      -9.888   9.231  66.750  1.00  0.00    -0.225 C  
HETATM    2  N   UNL     1     -10.314   7.877  66.430  1.00  0.00    -0.452 NA 
HETATM    3  H   UNL     1      -9.609   7.388  65.879  1.00  0.00     0.000 HD 
ENDROOT
BRANCH   2   4
HETATM    4  C   UNL     1     -10.675   7.114  67.631  1.00  0.00    -0.244 C  
BRANCH   4   5
HETATM    5  C   UNL     1     -10.193   7.889  68.859  1.00  0.00    -0.215 C  
BRANCH   5   6
HETATM    6  C   UNL     1     -10.878   7.452  70.169  1.00  0.00    -0.256 C  
BRANCH   6   7
HETATM    7  C   UNL     1     -11.699   8.615  70.714  1.00  0.00    -0.239 A  
HETATM    8  C   UNL     1     -13.117  10.806  71.758  1.00  0.00    -0.573 A  
HETATM    9  C   UNL     1     -12.646   8.434  71.733  1.00  0.00    -0.378 A  
HETATM   10  C   UNL     1     -11.468   9.917  70.236  1.00  0.00    -0.349 A  
HETATM   11  C   UNL     1     -13.354   9.522  72.247  1.00  0.00    -0.526 A  
HETATM   12  C   UNL     1     -12.174  11.004  70.753  1.00  0.00    -0.480 A  
ENDBRANCH   6   7
BRANCH   6  13
HETATM   13  O   UNL     1      -9.903   6.983  71.124  1.00  0.00    -0.177 OA 
BRANCH  13  14
HETATM   14  C   UNL     1      -9.637   5.635  71.104  1.00  0.00    -0.168 A  
HETATM   15  C   UNL     1      -8.688   5.060  70.244  1.00  0.00    -0.127 A  
HETATM   16  C   UNL     1      -9.217   2.849  71.045  1.00  0.00    -0.200 A  
HETATM   17  C   UNL     1      -8.491   3.681  70.202  1.00  0.00    -0.095 A  
HETATM   18  C   UNL     1     -10.111   3.406  71.959  1.00  0.00    -0.179 A  
HETATM   19  C   UNL     1     -10.310   4.799  72.017  1.00  0.00    -0.247 A  
HETATM   20  C   UNL     1     -11.259   5.341  73.052  1.00  0.00    -0.387 C  
ENDBRANCH  13  14
ENDBRANCH   6  13
ENDBRANCH   5   6
ENDBRANCH   4   5
ENDBRANCH   2   4
TORSDOF 6
ENDMDL
MODEL      155
REMARK 921   NORMALIZED FREE ENERGY PREDICTED BY IDOCK:   -4.16 KCAL/MOL
REMARK 922        TOTAL FREE ENERGY PREDICTED BY IDOCK:   -6.40 KCAL/MOL
REMARK 923 INTER-LIGAND FREE ENERGY PREDICTED BY IDOCK:   -5.15 KCAL/MOL
REMARK 924 INTRA-LIGAND FREE ENERGY PREDICTED BY IDOCK:   -1.25 KCAL/MOL
REMARK 927      BINDING AFFINITY PREDICTED BY RF-SCORE:    0.00 PKD
ROOT
HETATM    1  C   UNL     1      -9.703   7.804  66.483  1.00  0.00    -0.195 C  
HETATM    2  N   UNL     1      -9.317   7.842  67.886  1.00  0.00    -0.140 NA 
HETATM    3  H   UNL     1      -9.104   6.908  68.236  1.00  0.00     0.000 HD 
ENDROOT
BRANCH   2   4
HETATM    4  C   UNL     1      -8.202   8.766  68.126  1.00  0.00    -0.114 C  
BRANCH   4   5
HETATM    5  C   UNL     1      -8.412   9.433  69.487  1.00  0.00    -0.152 C  
BRANCH   5   6
HETATM    6  C   UNL     1      -9.472  10.551  69.466  1.00  0.00    -0.080 C  
BRANCH   6   7
HETATM    7  C   UNL     1     -10.668  10.120  70.308  1.00  0.00    -0.352 A  
HETATM    8  C   UNL     1     -12.867   9.424  71.914  1.00  0.00    -0.497 A  
HETATM    9  C   UNL     1     -10.586   9.045  71.206  1.00  0.00    -0.378 A  
HETATM   10  C   UNL     1     -11.870  10.846  70.238  1.00  0.00    -0.450 A  
HETATM   11  C   UNL     1     -11.681   8.697  72.000  1.00  0.00    -0.439 A  
HETATM   12  C   UNL     1     -12.962  10.498  71.034  1.00  0.00    -0.475 A  
ENDBRANCH   6   7
BRANCH   6  13
HETATM   13  O   UNL     1      -9.852  10.871  68.111  1.00  0.00    -0.166 OA 
BRANCH  13  14
HETATM   14  C   UNL     1      -9.546  12.140  67.681  1.00  0.00    -0.190 A  
HETATM   15  C   UNL     1      -8.288  12.728  67.883  1.00  0.00    -0.172 A  
HETATM   16  C   UNL     1      -9.022  14.785  66.862  1.00  0.00    -0.276 A  
HETATM   17  C   UNL     1      -8.033  14.042  67.493  1.00  0.00    -0.199 A  
HETATM   18  C   UNL     1     -10.255  14.194  66.586  1.00  0.00    -0.270 A  
HETATM   19  C   UNL     1     -10.520  12.864  66.966  1.00  0.00    -0.244 A  
HETATM   20  C   UNL     1     -11.855  12.272  66.603  1.00  0.00    -0.362 C  
ENDBRANCH  13  14
ENDBRANCH   6  13
ENDBRANCH   5   6
ENDBRANCH   4   5
ENDBRANCH   2   4
TORSDOF 6
ENDMDL
MODEL      156
REMARK 921   NORMALIZED FREE ENERGY PREDICTED BY IDOCK:   -4.14 KCAL/MOL
REMARK 922        TOTAL FREE ENERGY PREDICTED BY IDOCK:   -6.36 KCAL/MOL
REMARK 923 INTER-LIGAND FREE ENERGY PREDICTED BY IDOCK:   -6.24 KCAL/MOL
REMARK 924 INTRA-LIGAND FREE ENERGY PREDICTED BY IDOCK:   -0.13 KCAL/MOL
REMARK 927      BINDING AFFINITY PREDICTED BY RF-SCORE:    0.00 PKD
ROOT
HETATM    1  C   UNL     1     -12.298  11.941  63.307  1.00  0.00    -0.391 C  
HETATM    2  N   UNL     1     -12.336  13.366  63.016  1.00  0.00    -0.945 NA 
HETATM    3  H   UNL     1     -13.178  13.615  62.496  1.00  0.00     0.000 HD 
ENDROOT
BRANCH   2   4
HETATM    4  C   UNL     1     -12.200  14.180  64.229  1.00  0.00    -0.420 C  
BRANCH   4   5
HETATM    5  C   UNL     1     -10.709  14.397  64.501  1.00  0.00    -0.236 C  
BRANCH   5   6
HETATM    6  C   UNL     1     -10.417  14.945  65.912  1.00  0.00    -0.315 C  
BRANCH   6   7
HETATM    7  C   UNL     1      -9.628  13.902  66.696  1.00  0.00    -0.297 A  
HETATM    8  C   UNL     1      -8.273  11.940  68.185  1.00  0.00    -0.158 A  
HETATM    9  C   UNL     1      -8.737  14.267  67.716  1.00  0.00    -0.179 A  
HETATM   10  C   UNL     1      -9.836  12.534  66.444  1.00  0.00    -0.260 A  
HETATM   11  C   UNL     1      -8.060  13.292  68.451  1.00  0.00    -0.134 A  
HETATM   12  C   UNL     1      -9.161  11.561  67.182  1.00  0.00    -0.167 A  
ENDBRANCH   6   7
BRANCH   6  13
HETATM   13  O   UNL     1     -11.640  15.315  66.581  1.00  0.00    -0.205 OA 
BRANCH  13  14
HETATM   14  C   UNL     1     -11.636  15.204  67.951  1.00  0.00    -0.311 A  
HETATM   15  C   UNL     1     -12.023  14.034  68.621  1.00  0.00    -0.389 A  
HETATM   16  C   UNL     1     -11.699  15.085  70.766  1.00  0.00    -0.371 A  
HETATM   17  C   UNL     1     -12.071  13.978  70.013  1.00  0.00    -0.412 A  
HETATM   18  C   UNL     1     -11.240  16.233  70.121  1.00  0.00    -0.340 A  
HETATM   19  C   UNL     1     -11.178  16.297  68.716  1.00  0.00    -0.343 A  
HETATM   20  C   UNL     1     -10.637  17.549  68.081  1.00  0.00    -0.366 C  
ENDBRANCH  13  14
ENDBRANCH   6  13
ENDBRANCH   5   6
ENDBRANCH   4   5
ENDBRANCH   2   4
TORSDOF 6
ENDMDL
MODEL      157
REMARK 921   NORMALIZED FREE ENERGY PREDICTED BY IDOCK:   -4.13 KCAL/MOL
REMARK 922        TOTAL FREE ENERGY PREDICTED BY IDOCK:   -6.36 KCAL/MOL
REMARK 923 INTER-LIGAND FREE ENERGY PREDICTED BY IDOCK:   -5.39 KCAL/MOL
REMARK 924 INTRA-LIGAND FREE ENERGY PREDICTED BY IDOCK:   -0.97 KCAL/MOL
REMARK 927      BINDING AFFINITY PREDICTED BY RF-SCORE:    0.00 PKD
ROOT
HETATM    1  C   UNL     1      -8.000  16.294  66.589  1.00  0.00    -0.289 C  
HETATM    2  N   UNL     1      -7.836  16.160  68.029  1.00  0.00    -0.142 NA 
HETATM    3  H   UNL     1      -8.146  17.001  68.516  1.00  0.00     0.000 HD 
ENDROOT
BRANCH   2   4
HETATM    4  C   UNL     1      -8.509  14.965  68.551  1.00  0.00    -0.163 C  
BRANCH   4   5
HETATM    5  C   UNL     1      -9.999  15.060  68.209  1.00  0.00    -0.225 C  
BRANCH   5   6
HETATM    6  C   UNL     1     -10.761  13.736  68.411  1.00  0.00    -0.254 C  
BRANCH   6   7
HETATM    7  C   UNL     1     -11.694  13.878  69.609  1.00  0.00    -0.370 A  
HETATM    8  C   UNL     1     -13.331  14.195  71.872  1.00  0.00    -0.476 A  
HETATM    9  C   UNL     1     -12.117  12.762  70.348  1.00  0.00    -0.382 A  
HETATM   10  C   UNL     1     -12.097  15.156  70.033  1.00  0.00    -0.384 A  
HETATM   11  C   UNL     1     -12.934  12.921  71.469  1.00  0.00    -0.388 A  
HETATM   12  C   UNL     1     -12.912  15.313  71.154  1.00  0.00    -0.521 A  
ENDBRANCH   6   7
BRANCH   6  13
HETATM   13  O   UNL     1      -9.841  12.635  68.568  1.00  0.00    -0.216 OA 
BRANCH  13  14
HETATM   14  C   UNL     1      -9.919  11.644  67.620  1.00  0.00    -0.188 A  
HETATM   15  C   UNL     1     -10.078  11.911  66.252  1.00  0.00    -0.249 A  
HETATM   16  C   UNL     1     -10.173   9.556  65.745  1.00  0.00    -0.107 A  
HETATM   17  C   UNL     1     -10.220  10.880  65.325  1.00  0.00    -0.351 A  
HETATM   18  C   UNL     1      -9.941   9.268  67.089  1.00  0.00    -0.276 A  
HETATM   19  C   UNL     1      -9.785  10.302  68.033  1.00  0.00    -0.167 A  
HETATM   20  C   UNL     1      -9.497   9.927  69.461  1.00  0.00    -0.239 C  
ENDBRANCH  13  14
ENDBRANCH   6  13
ENDBRANCH   5   6
ENDBRANCH   4   5
ENDBRANCH   2   4
TORSDOF 6
ENDMDL
MODEL      158
REMARK 921   NORMALIZED FREE ENERGY PREDICTED BY IDOCK:   -4.12 KCAL/MOL
REMARK 922        TOTAL FREE ENERGY PREDICTED BY IDOCK:   -6.34 KCAL/MOL
REMARK 923 INTER-LIGAND FREE ENERGY PREDICTED BY IDOCK:   -5.56 KCAL/MOL
REMARK 924 INTRA-LIGAND FREE ENERGY PREDICTED BY IDOCK:   -0.77 KCAL/MOL
REMARK 927      BINDING AFFINITY PREDICTED BY RF-SCORE:    0.00 PKD
ROOT
HETATM    1  C   UNL     1      -7.725   6.614  74.419  1.00  0.00    -0.105 C  
HETATM    2  N   UNL     1      -9.087   7.109  74.549  1.00  0.00    -0.382 NA 
HETATM    3  H   UNL     1      -9.099   8.112  74.737  1.00  0.00     0.000 HD 
ENDROOT
BRANCH   2   4
HETATM    4  C   UNL     1      -9.909   6.777  73.380  1.00  0.00    -0.205 C  
BRANCH   4   5
HETATM    5  C   UNL     1      -9.365   7.544  72.172  1.00  0.00    -0.176 C  
BRANCH   5   6
HETATM    6  C   UNL     1     -10.330   7.563  70.971  1.00  0.00    -0.199 C  
BRANCH   6   7
HETATM    7  C   UNL     1     -11.396   8.627  71.206  1.00  0.00    -0.341 A  
HETATM    8  C   UNL     1     -13.286  10.649  71.697  1.00  0.00    -0.495 A  
HETATM    9  C   UNL     1     -12.539   8.366  71.977  1.00  0.00    -0.400 A  
HETATM   10  C   UNL     1     -11.212   9.924  70.696  1.00  0.00    -0.416 A  
HETATM   11  C   UNL     1     -13.480   9.370  72.215  1.00  0.00    -0.539 A  
HETATM   12  C   UNL     1     -12.152  10.927  70.938  1.00  0.00    -0.455 A  
ENDBRANCH   6   7
BRANCH   6  13
HETATM   13  O   UNL     1     -10.906   6.257  70.758  1.00  0.00    -0.249 OA 
BRANCH  13  14
HETATM   14  C   UNL     1     -10.607   5.653  69.560  1.00  0.00    -0.314 A  
HETATM   15  C   UNL     1     -10.901   6.239  68.319  1.00  0.00    -0.397 A  
HETATM   16  C   UNL     1     -10.057   4.311  67.145  1.00  0.00    -0.060 A  
HETATM   17  C   UNL     1     -10.644   5.569  67.124  1.00  0.00    -0.313 A  
HETATM   18  C   UNL     1      -9.690   3.742  68.364  1.00  0.00    -0.094 A  
HETATM   19  C   UNL     1      -9.935   4.415  69.577  1.00  0.00    -0.187 A  
HETATM   20  C   UNL     1      -9.479   3.767  70.856  1.00  0.00    -0.236 C  
ENDBRANCH  13  14
ENDBRANCH   6  13
ENDBRANCH   5   6
ENDBRANCH   4   5
ENDBRANCH   2   4
TORSDOF 6
ENDMDL
MODEL      159
REMARK 921   NORMALIZED FREE ENERGY PREDICTED BY IDOCK:   -4.10 KCAL/MOL
REMARK 922        TOTAL FREE ENERGY PREDICTED BY IDOCK:   -6.31 KCAL/MOL
REMARK 923 INTER-LIGAND FREE ENERGY PREDICTED BY IDOCK:   -6.02 KCAL/MOL
REMARK 924 INTRA-LIGAND FREE ENERGY PREDICTED BY IDOCK:   -0.29 KCAL/MOL
REMARK 927      BINDING AFFINITY PREDICTED BY RF-SCORE:    0.00 PKD
ROOT
HETATM    1  C   UNL     1     -10.857  19.105  67.291  1.00  0.00    -0.431 C  
HETATM    2  N   UNL     1     -10.099  17.874  67.461  1.00  0.00    -0.327 NA 
HETATM    3  H   UNL     1      -9.246  18.037  67.996  1.00  0.00     0.000 HD 
ENDROOT
BRANCH   2   4
HETATM    4  C   UNL     1     -10.908  16.807  68.062  1.00  0.00    -0.341 C  
BRANCH   4   5
HETATM    5  C   UNL     1     -11.321  15.833  66.957  1.00  0.00     0.016 C  
BRANCH   5   6
HETATM    6  C   UNL     1     -10.230  14.802  66.608  1.00  0.00    -0.269 C  
BRANCH   6   7
HETATM    7  C   UNL     1     -10.793  13.802  65.604  1.00  0.00    -0.287 A  
HETATM    8  C   UNL     1     -11.811  12.034  63.670  1.00  0.00    -0.602 A  
HETATM    9  C   UNL     1     -12.138  13.404  65.636  1.00  0.00    -0.476 A  
HETATM   10  C   UNL     1      -9.971  13.306  64.577  1.00  0.00    -0.117 A  
HETATM   11  C   UNL     1     -12.641  12.522  64.678  1.00  0.00    -0.507 A  
HETATM   12  C   UNL     1     -10.476  12.426  63.619  1.00  0.00    -0.460 A  
ENDBRANCH   6   7
BRANCH   6  13
HETATM   13  O   UNL     1      -9.739  14.153  67.800  1.00  0.00    -0.215 OA 
BRANCH  13  14
HETATM   14  C   UNL     1     -10.084  12.832  67.954  1.00  0.00    -0.231 A  
HETATM   15  C   UNL     1      -9.382  11.786  67.338  1.00  0.00    -0.174 A  
HETATM   16  C   UNL     1     -10.911  10.153  68.235  1.00  0.00    -0.299 A  
HETATM   17  C   UNL     1      -9.799  10.462  67.462  1.00  0.00    -0.202 A  
HETATM   18  C   UNL     1     -11.580  11.170  68.916  1.00  0.00    -0.385 A  
HETATM   19  C   UNL     1     -11.160  12.510  68.806  1.00  0.00    -0.314 A  
HETATM   20  C   UNL     1     -11.898  13.556  69.598  1.00  0.00    -0.398 C  
ENDBRANCH  13  14
ENDBRANCH   6  13
ENDBRANCH   5   6
ENDBRANCH   4   5
ENDBRANCH   2   4
TORSDOF 6
ENDMDL
MODEL      160
REMARK 921   NORMALIZED FREE ENERGY PREDICTED BY IDOCK:   -4.08 KCAL/MOL
REMARK 922        TOTAL FREE ENERGY PREDICTED BY IDOCK:   -6.29 KCAL/MOL
REMARK 923 INTER-LIGAND FREE ENERGY PREDICTED BY IDOCK:   -5.82 KCAL/MOL
REMARK 924 INTRA-LIGAND FREE ENERGY PREDICTED BY IDOCK:   -0.47 KCAL/MOL
REMARK 927      BINDING AFFINITY PREDICTED BY RF-SCORE:    0.00 PKD
ROOT
HETATM    1  C   UNL     1      -7.950   6.492  74.497  1.00  0.00    -0.116 C  
HETATM    2  N   UNL     1      -8.760   7.695  74.381  1.00  0.00    -0.396 NA 
HETATM    3  H   UNL     1      -8.178   8.518  74.220  1.00  0.00     0.000 HD 
ENDROOT
BRANCH   2   4
HETATM    4  C   UNL     1      -9.794   7.566  73.348  1.00  0.00    -0.310 C  
BRANCH   4   5
HETATM    5  C   UNL     1      -9.227   8.093  72.027  1.00  0.00    -0.253 C  
BRANCH   5   6
HETATM    6  C   UNL     1     -10.205   7.959  70.843  1.00  0.00    -0.198 C  
BRANCH   6   7
HETATM    7  C   UNL     1     -11.096   9.196  70.792  1.00  0.00    -0.336 A  
HETATM    8  C   UNL     1     -12.647  11.539  70.721  1.00  0.00    -0.390 A  
HETATM    9  C   UNL     1     -12.136   9.393  71.712  1.00  0.00    -0.454 A  
HETATM   10  C   UNL     1     -10.839  10.201  69.843  1.00  0.00    -0.347 A  
HETATM   11  C   UNL     1     -12.909  10.555  71.673  1.00  0.00    -0.581 A  
HETATM   12  C   UNL     1     -11.612  11.363  69.807  1.00  0.00    -0.407 A  
ENDBRANCH   6   7
BRANCH   6  13
HETATM   13  O   UNL     1     -10.974   6.743  70.950  1.00  0.00    -0.239 OA 
BRANCH  13  14
HETATM   14  C   UNL     1     -10.414   5.623  70.384  1.00  0.00    -0.285 A  
HETATM   15  C   UNL     1      -9.888   4.568  71.145  1.00  0.00    -0.263 A  
HETATM   16  C   UNL     1      -9.188   3.404  69.154  1.00  0.00    -0.227 A  
HETATM   17  C   UNL     1      -9.267   3.478  70.539  1.00  0.00    -0.213 A  
HETATM   18  C   UNL     1      -9.770   4.405  68.377  1.00  0.00    -0.172 A  
HETATM   19  C   UNL     1     -10.410   5.506  68.979  1.00  0.00    -0.304 A  
HETATM   20  C   UNL     1     -11.053   6.532  68.086  1.00  0.00    -0.332 C  
ENDBRANCH  13  14
ENDBRANCH   6  13
ENDBRANCH   5   6
ENDBRANCH   4   5
ENDBRANCH   2   4
TORSDOF 6
ENDMDL
MODEL      161
REMARK 921   NORMALIZED FREE ENERGY PREDICTED BY IDOCK:   -4.08 KCAL/MOL
REMARK 922        TOTAL FREE ENERGY PREDICTED BY IDOCK:   -6.28 KCAL/MOL
REMARK 923 INTER-LIGAND FREE ENERGY PREDICTED BY IDOCK:   -5.09 KCAL/MOL
REMARK 924 INTRA-LIGAND FREE ENERGY PREDICTED BY IDOCK:   -1.19 KCAL/MOL
REMARK 927      BINDING AFFINITY PREDICTED BY RF-SCORE:    0.00 PKD
ROOT
HETATM    1  C   UNL     1      -7.904   7.367  73.929  1.00  0.00    -0.119 C  
HETATM    2  N   UNL     1      -7.860   8.274  72.792  1.00  0.00    -0.219 NA 
HETATM    3  H   UNL     1      -7.176   9.017  72.939  1.00  0.00     0.000 HD 
ENDROOT
BRANCH   2   4
HETATM    4  C   UNL     1      -7.614   7.566  71.531  1.00  0.00    -0.084 C  
BRANCH   4   5
HETATM    5  C   UNL     1      -8.694   6.495  71.359  1.00  0.00    -0.130 C  
BRANCH   5   6
HETATM    6  C   UNL     1      -9.985   7.024  70.705  1.00  0.00    -0.190 C  
BRANCH   6   7
HETATM    7  C   UNL     1     -10.122   6.417  69.313  1.00  0.00    -0.203 A  
HETATM    8  C   UNL     1     -10.487   5.314  66.753  1.00  0.00    -0.330 A  
HETATM    9  C   UNL     1      -9.807   5.073  69.062  1.00  0.00    -0.252 A  
HETATM   10  C   UNL     1     -10.634   7.195  68.260  1.00  0.00    -0.230 A  
HETATM   11  C   UNL     1      -9.984   4.528  67.788  1.00  0.00    -0.126 A  
HETATM   12  C   UNL     1     -10.813   6.647  66.989  1.00  0.00    -0.467 A  
ENDBRANCH   6   7
BRANCH   6  13
HETATM   13  O   UNL     1      -9.986   8.466  70.669  1.00  0.00    -0.181 OA 
BRANCH  13  14
HETATM   14  C   UNL     1     -11.137   9.080  71.101  1.00  0.00    -0.301 A  
HETATM   15  C   UNL     1     -11.943   8.554  72.122  1.00  0.00    -0.451 A  
HETATM   16  C   UNL     1     -13.539  10.341  71.864  1.00  0.00    -0.292 A  
HETATM   17  C   UNL     1     -13.139   9.167  72.490  1.00  0.00    -0.445 A  
HETATM   18  C   UNL     1     -12.717  10.921  70.899  1.00  0.00    -0.464 A  
HETATM   19  C   UNL     1     -11.501  10.315  70.527  1.00  0.00    -0.427 A  
HETATM   20  C   UNL     1     -10.639  11.011  69.508  1.00  0.00    -0.182 C  
ENDBRANCH  13  14
ENDBRANCH   6  13
ENDBRANCH   5   6
ENDBRANCH   4   5
ENDBRANCH   2   4
TORSDOF 6
ENDMDL
MODEL      162
REMARK 921   NORMALIZED FREE ENERGY PREDICTED BY IDOCK:   -4.07 KCAL/MOL
REMARK 922        TOTAL FREE ENERGY PREDICTED BY IDOCK:   -6.28 KCAL/MOL
REMARK 923 INTER-LIGAND FREE ENERGY PREDICTED BY IDOCK:   -4.77 KCAL/MOL
REMARK 924 INTRA-LIGAND FREE ENERGY PREDICTED BY IDOCK:   -1.51 KCAL/MOL
REMARK 927      BINDING AFFINITY PREDICTED BY RF-SCORE:    0.00 PKD
ROOT
HETATM    1  C   UNL     1     -10.232  12.146  67.468  1.00  0.00    -0.199 C  
HETATM    2  N   UNL     1      -9.318  11.747  68.528  1.00  0.00    -0.299 NA 
HETATM    3  H   UNL     1      -9.797  11.693  69.428  1.00  0.00     0.000 HD 
ENDROOT
BRANCH   2   4
HETATM    4  C   UNL     1      -8.628  10.490  68.217  1.00  0.00    -0.127 C  
BRANCH   4   5
HETATM    5  C   UNL     1      -7.953   9.980  69.493  1.00  0.00    -0.161 C  
BRANCH   5   6
HETATM    6  C   UNL     1      -8.944   9.414  70.528  1.00  0.00    -0.253 C  
BRANCH   6   7
HETATM    7  C   UNL     1      -8.311   8.210  71.217  1.00  0.00    -0.140 A  
HETATM    8  C   UNL     1      -7.211   5.923  72.425  1.00  0.00    -0.089 A  
HETATM    9  C   UNL     1      -8.469   7.982  72.592  1.00  0.00    -0.231 A  
HETATM   10  C   UNL     1      -7.600   7.265  70.457  1.00  0.00    -0.088 A  
HETATM   11  C   UNL     1      -7.918   6.847  73.192  1.00  0.00    -0.110 A  
HETATM   12  C   UNL     1      -7.053   6.131  71.058  1.00  0.00    -0.070 A  
ENDBRANCH   6   7
BRANCH   6  13
HETATM   13  O   UNL     1     -10.202   9.081  69.904  1.00  0.00    -0.188 OA 
BRANCH  13  14
HETATM   14  C   UNL     1     -11.317   9.186  70.699  1.00  0.00    -0.273 A  
HETATM   15  C   UNL     1     -11.876  10.421  71.066  1.00  0.00    -0.458 A  
HETATM   16  C   UNL     1     -13.546   9.328  72.417  1.00  0.00    -0.527 A  
HETATM   17  C   UNL     1     -12.968  10.493  71.929  1.00  0.00    -0.553 A  
HETATM   18  C   UNL     1     -13.053   8.090  72.006  1.00  0.00    -0.289 A  
HETATM   19  C   UNL     1     -11.957   8.005  71.126  1.00  0.00    -0.297 A  
HETATM   20  C   UNL     1     -11.497   6.641  70.689  1.00  0.00    -0.420 C  
ENDBRANCH  13  14
ENDBRANCH   6  13
ENDBRANCH   5   6
ENDBRANCH   4   5
ENDBRANCH   2   4
TORSDOF 6
ENDMDL
MODEL      163
REMARK 921   NORMALIZED FREE ENERGY PREDICTED BY IDOCK:   -4.07 KCAL/MOL
REMARK 922        TOTAL FREE ENERGY PREDICTED BY IDOCK:   -6.28 KCAL/MOL
REMARK 923 INTER-LIGAND FREE ENERGY PREDICTED BY IDOCK:   -5.42 KCAL/MOL
REMARK 924 INTRA-LIGAND FREE ENERGY PREDICTED BY IDOCK:   -0.85 KCAL/MOL
REMARK 927      BINDING AFFINITY PREDICTED BY RF-SCORE:    0.00 PKD
ROOT
HETATM    1  C   UNL     1     -13.261  12.378  71.966  1.00  0.00    -0.409 C  
HETATM    2  N   UNL     1     -13.138  10.928  71.926  1.00  0.00    -0.487 NA 
HETATM    3  H   UNL     1     -13.998  10.476  72.233  1.00  0.00     0.000 HD 
ENDROOT
BRANCH   2   4
HETATM    4  C   UNL     1     -12.727  10.446  70.602  1.00  0.00    -0.333 C  
BRANCH   4   5
HETATM    5  C   UNL     1     -11.837  11.510  69.955  1.00  0.00    -0.430 C  
BRANCH   5   6
HETATM    6  C   UNL     1     -10.972  10.967  68.800  1.00  0.00    -0.237 C  
BRANCH   6   7
HETATM    7  C   UNL     1     -11.338  11.704  67.516  1.00  0.00    -0.364 A  
HETATM    8  C   UNL     1     -11.901  13.087  65.135  1.00  0.00    -0.404 A  
HETATM    9  C   UNL     1     -12.121  12.868  67.533  1.00  0.00    -0.251 A  
HETATM   10  C   UNL     1     -10.832  11.253  66.284  1.00  0.00    -0.296 A  
HETATM   11  C   UNL     1     -12.405  13.551  66.349  1.00  0.00    -0.413 A  
HETATM   12  C   UNL     1     -11.114  11.939  65.102  1.00  0.00    -0.360 A  
ENDBRANCH   6   7
BRANCH   6  13
HETATM   13  O   UNL     1     -11.133   9.539  68.668  1.00  0.00    -0.121 OA 
BRANCH  13  14
HETATM   14  C   UNL     1     -10.032   8.777  68.975  1.00  0.00    -0.191 A  
HETATM   15  C   UNL     1      -9.121   9.127  69.984  1.00  0.00    -0.207 A  
HETATM   16  C   UNL     1      -7.739   7.218  69.479  1.00  0.00    -0.113 A  
HETATM   17  C   UNL     1      -7.978   8.366  70.223  1.00  0.00    -0.102 A  
HETATM   18  C   UNL     1      -8.669   6.811  68.522  1.00  0.00    -0.124 A  
HETATM   19  C   UNL     1      -9.832   7.567  68.279  1.00  0.00    -0.177 A  
HETATM   20  C   UNL     1     -10.816   7.054  67.263  1.00  0.00    -0.403 C  
ENDBRANCH  13  14
ENDBRANCH   6  13
ENDBRANCH   5   6
ENDBRANCH   4   5
ENDBRANCH   2   4
TORSDOF 6
ENDMDL
MODEL      164
REMARK 921   NORMALIZED FREE ENERGY PREDICTED BY IDOCK:   -4.07 KCAL/MOL
REMARK 922        TOTAL FREE ENERGY PREDICTED BY IDOCK:   -6.27 KCAL/MOL
REMARK 923 INTER-LIGAND FREE ENERGY PREDICTED BY IDOCK:   -5.70 KCAL/MOL
REMARK 924 INTRA-LIGAND FREE ENERGY PREDICTED BY IDOCK:   -0.57 KCAL/MOL
REMARK 927      BINDING AFFINITY PREDICTED BY RF-SCORE:    0.00 PKD
ROOT
HETATM    1  C   UNL     1      -8.771   6.196  68.931  1.00  0.00    -0.123 C  
HETATM    2  N   UNL     1     -10.080   6.651  69.374  1.00  0.00    -0.169 NA 
HETATM    3  H   UNL     1     -10.110   6.758  70.388  1.00  0.00     0.000 HD 
ENDROOT
BRANCH   2   4
HETATM    4  C   UNL     1     -10.494   7.885  68.697  1.00  0.00    -0.167 C  
BRANCH   4   5
HETATM    5  C   UNL     1     -10.291   9.057  69.661  1.00  0.00    -0.217 C  
BRANCH   5   6
HETATM    6  C   UNL     1     -11.609   9.626  70.221  1.00  0.00    -0.198 C  
BRANCH   6   7
HETATM    7  C   UNL     1     -11.769  11.067  69.750  1.00  0.00    -0.410 A  
HETATM    8  C   UNL     1     -11.952  13.728  68.863  1.00  0.00    -0.394 A  
HETATM    9  C   UNL     1     -12.173  12.087  70.625  1.00  0.00    -0.409 A  
HETATM   10  C   UNL     1     -11.447  11.409  68.425  1.00  0.00    -0.367 A  
HETATM   11  C   UNL     1     -12.268  13.408  70.182  1.00  0.00    -0.385 A  
HETATM   12  C   UNL     1     -11.540  12.729  67.984  1.00  0.00    -0.388 A  
ENDBRANCH   6   7
BRANCH   6  13
HETATM   13  O   UNL     1     -11.641   9.520  71.660  1.00  0.00    -0.377 OA 
BRANCH  13  14
HETATM   14  C   UNL     1     -11.376   8.276  72.180  1.00  0.00    -0.352 A  
HETATM   15  C   UNL     1     -10.194   7.978  72.875  1.00  0.00    -0.384 A  
HETATM   16  C   UNL     1     -10.856   5.675  73.130  1.00  0.00    -0.321 A  
HETATM   17  C   UNL     1      -9.928   6.688  73.331  1.00  0.00    -0.231 A  
HETATM   18  C   UNL     1     -12.069   5.966  72.507  1.00  0.00    -0.100 A  
HETATM   19  C   UNL     1     -12.353   7.268  72.052  1.00  0.00    -0.298 A  
HETATM   20  C   UNL     1     -13.696   7.527  71.424  1.00  0.00    -0.414 C  
ENDBRANCH  13  14
ENDBRANCH   6  13
ENDBRANCH   5   6
ENDBRANCH   4   5
ENDBRANCH   2   4
TORSDOF 6
ENDMDL
MODEL      165
REMARK 921   NORMALIZED FREE ENERGY PREDICTED BY IDOCK:   -4.06 KCAL/MOL
REMARK 922        TOTAL FREE ENERGY PREDICTED BY IDOCK:   -6.26 KCAL/MOL
REMARK 923 INTER-LIGAND FREE ENERGY PREDICTED BY IDOCK:   -5.80 KCAL/MOL
REMARK 924 INTRA-LIGAND FREE ENERGY PREDICTED BY IDOCK:   -0.45 KCAL/MOL
REMARK 927      BINDING AFFINITY PREDICTED BY RF-SCORE:    0.00 PKD
ROOT
HETATM    1  C   UNL     1     -11.256   9.168  71.309  1.00  0.00    -0.337 C  
HETATM    2  N   UNL     1     -11.035  10.522  70.824  1.00  0.00    -0.338 NA 
HETATM    3  H   UNL     1     -10.114  10.615  70.395  1.00  0.00     0.000 HD 
ENDROOT
BRANCH   2   4
HETATM    4  C   UNL     1     -12.095  10.960  69.908  1.00  0.00    -0.354 C  
BRANCH   4   5
HETATM    5  C   UNL     1     -11.496  11.965  68.921  1.00  0.00    -0.358 C  
BRANCH   5   6
HETATM    6  C   UNL     1     -11.737  11.594  67.445  1.00  0.00    -0.201 C  
BRANCH   6   7
HETATM    7  C   UNL     1     -10.410  11.192  66.810  1.00  0.00    -0.284 A  
HETATM    8  C   UNL     1      -7.942  10.562  65.622  1.00  0.00    -0.158 A  
HETATM    9  C   UNL     1     -10.358  10.465  65.611  1.00  0.00    -0.260 A  
HETATM   10  C   UNL     1      -9.201  11.607  67.396  1.00  0.00    -0.168 A  
HETATM   11  C   UNL     1      -9.131  10.148  65.025  1.00  0.00    -0.245 A  
HETATM   12  C   UNL     1      -7.976  11.291  66.807  1.00  0.00    -0.159 A  
ENDBRANCH   6   7
BRANCH   6  13
HETATM   13  O   UNL     1     -12.367  12.684  66.739  1.00  0.00    -0.450 OA 
BRANCH  13  14
HETATM   14  C   UNL     1     -11.729  13.899  66.812  1.00  0.00    -0.399 A  
HETATM   15  C   UNL     1     -11.621  14.630  68.005  1.00  0.00    -0.366 A  
HETATM   16  C   UNL     1     -10.497  16.432  66.866  1.00  0.00    -0.289 A  
HETATM   17  C   UNL     1     -11.026  15.890  68.030  1.00  0.00    -0.336 A  
HETATM   18  C   UNL     1     -10.528  15.691  65.686  1.00  0.00    -0.402 A  
HETATM   19  C   UNL     1     -11.117  14.412  65.651  1.00  0.00    -0.321 A  
HETATM   20  C   UNL     1     -11.083  13.646  64.356  1.00  0.00    -0.378 C  
ENDBRANCH  13  14
ENDBRANCH   6  13
ENDBRANCH   5   6
ENDBRANCH   4   5
ENDBRANCH   2   4
TORSDOF 6
ENDMDL
MODEL      166
REMARK 921   NORMALIZED FREE ENERGY PREDICTED BY IDOCK:   -4.05 KCAL/MOL
REMARK 922        TOTAL FREE ENERGY PREDICTED BY IDOCK:   -6.25 KCAL/MOL
REMARK 923 INTER-LIGAND FREE ENERGY PREDICTED BY IDOCK:   -5.37 KCAL/MOL
REMARK 924 INTRA-LIGAND FREE ENERGY PREDICTED BY IDOCK:   -0.87 KCAL/MOL
REMARK 927      BINDING AFFINITY PREDICTED BY RF-SCORE:    0.00 PKD
ROOT
HETATM    1  C   UNL     1     -13.472  11.299  72.003  1.00  0.00    -0.184 C  
HETATM    2  N   UNL     1     -14.200  10.140  72.498  1.00  0.00    -0.218 NA 
HETATM    3  H   UNL     1     -15.172  10.156  72.190  1.00  0.00     0.000 HD 
ENDROOT
BRANCH   2   4
HETATM    4  C   UNL     1     -13.546   8.879  72.131  1.00  0.00    -0.453 C  
BRANCH   4   5
HETATM    5  C   UNL     1     -12.068   9.165  71.851  1.00  0.00    -0.448 C  
BRANCH   5   6
HETATM    6  C   UNL     1     -11.321   7.974  71.220  1.00  0.00    -0.264 C  
BRANCH   6   7
HETATM    7  C   UNL     1     -11.024   6.943  72.304  1.00  0.00    -0.275 A  
HETATM    8  C   UNL     1     -10.366   5.058  74.283  1.00  0.00    -0.317 A  
HETATM    9  C   UNL     1     -11.393   5.597  72.161  1.00  0.00    -0.277 A  
HETATM   10  C   UNL     1     -10.309   7.324  73.453  1.00  0.00    -0.410 A  
HETATM   11  C   UNL     1     -11.070   4.663  73.147  1.00  0.00    -0.371 A  
HETATM   12  C   UNL     1      -9.985   6.389  74.436  1.00  0.00    -0.362 A  
ENDBRANCH   6   7
BRANCH   6  13
HETATM   13  O   UNL     1     -10.122   8.417  70.552  1.00  0.00    -0.186 OA 
BRANCH  13  14
HETATM   14  C   UNL     1     -10.100   8.265  69.187  1.00  0.00    -0.202 A  
HETATM   15  C   UNL     1      -9.923   7.021  68.562  1.00  0.00    -0.158 A  
HETATM   16  C   UNL     1      -9.964   8.045  66.380  1.00  0.00    -0.215 A  
HETATM   17  C   UNL     1      -9.839   6.913  67.175  1.00  0.00    -0.214 A  
HETATM   18  C   UNL     1     -10.215   9.280  66.977  1.00  0.00    -0.331 A  
HETATM   19  C   UNL     1     -10.312   9.400  68.377  1.00  0.00    -0.238 A  
HETATM   20  C   UNL     1     -10.624  10.753  68.957  1.00  0.00    -0.250 C  
ENDBRANCH  13  14
ENDBRANCH   6  13
ENDBRANCH   5   6
ENDBRANCH   4   5
ENDBRANCH   2   4
TORSDOF 6
ENDMDL
MODEL      167
REMARK 921   NORMALIZED FREE ENERGY PREDICTED BY IDOCK:   -4.05 KCAL/MOL
REMARK 922        TOTAL FREE ENERGY PREDICTED BY IDOCK:   -6.25 KCAL/MOL
REMARK 923 INTER-LIGAND FREE ENERGY PREDICTED BY IDOCK:   -5.14 KCAL/MOL
REMARK 924 INTRA-LIGAND FREE ENERGY PREDICTED BY IDOCK:   -1.11 KCAL/MOL
REMARK 927      BINDING AFFINITY PREDICTED BY RF-SCORE:    0.00 PKD
ROOT
HETATM    1  C   UNL     1     -10.297  19.276  66.532  1.00  0.00    -0.450 C  
HETATM    2  N   UNL     1      -9.398  18.170  66.829  1.00  0.00    -0.278 NA 
HETATM    3  H   UNL     1      -9.094  18.192  67.802  1.00  0.00     0.000 HD 
ENDROOT
BRANCH   2   4
HETATM    4  C   UNL     1      -9.989  16.872  66.485  1.00  0.00    -0.301 C  
BRANCH   4   5
HETATM    5  C   UNL     1     -10.871  16.418  67.651  1.00  0.00    -0.280 C  
BRANCH   5   6
HETATM    6  C   UNL     1     -10.134  15.524  68.667  1.00  0.00    -0.210 C  
BRANCH   6   7
HETATM    7  C   UNL     1     -11.060  15.241  69.845  1.00  0.00    -0.303 A  
HETATM    8  C   UNL     1     -12.677  14.727  72.086  1.00  0.00    -0.401 A  
HETATM    9  C   UNL     1     -11.713  14.008  69.987  1.00  0.00    -0.349 A  
HETATM   10  C   UNL     1     -11.222  16.208  70.853  1.00  0.00    -0.329 A  
HETATM   11  C   UNL     1     -12.521  13.756  71.099  1.00  0.00    -0.450 A  
HETATM   12  C   UNL     1     -12.028  15.953  71.964  1.00  0.00    -0.602 A  
ENDBRANCH   6   7
BRANCH   6  13
HETATM   13  O   UNL     1      -8.897  16.138  69.086  1.00  0.00    -0.246 OA 
BRANCH  13  14
HETATM   14  C   UNL     1      -7.779  15.341  69.032  1.00  0.00    -0.183 A  
HETATM   15  C   UNL     1      -7.824  13.991  68.650  1.00  0.00    -0.130 A  
HETATM   16  C   UNL     1      -5.460  13.739  69.044  1.00  0.00    -0.076 A  
HETATM   17  C   UNL     1      -6.682  13.194  68.671  1.00  0.00    -0.096 A  
HETATM   18  C   UNL     1      -5.379  15.096  69.357  1.00  0.00    -0.092 A  
HETATM   19  C   UNL     1      -6.526  15.913  69.329  1.00  0.00    -0.159 A  
HETATM   20  C   UNL     1      -6.365  17.378  69.637  1.00  0.00    -0.201 C  
ENDBRANCH  13  14
ENDBRANCH   6  13
ENDBRANCH   5   6
ENDBRANCH   4   5
ENDBRANCH   2   4
TORSDOF 6
ENDMDL
MODEL      168
REMARK 921   NORMALIZED FREE ENERGY PREDICTED BY IDOCK:   -4.03 KCAL/MOL
REMARK 922        TOTAL FREE ENERGY PREDICTED BY IDOCK:   -6.22 KCAL/MOL
REMARK 923 INTER-LIGAND FREE ENERGY PREDICTED BY IDOCK:   -5.29 KCAL/MOL
REMARK 924 INTRA-LIGAND FREE ENERGY PREDICTED BY IDOCK:   -0.94 KCAL/MOL
REMARK 927      BINDING AFFINITY PREDICTED BY RF-SCORE:    0.00 PKD
ROOT
HETATM    1  C   UNL     1      -7.759   9.763  69.385  1.00  0.00    -0.109 C  
HETATM    2  N   UNL     1      -8.348  11.094  69.423  1.00  0.00    -0.375 NA 
HETATM    3  H   UNL     1      -8.319  11.484  70.365  1.00  0.00     0.000 HD 
ENDROOT
BRANCH   2   4
HETATM    4  C   UNL     1      -7.724  12.000  68.452  1.00  0.00    -0.138 C  
BRANCH   4   5
HETATM    5  C   UNL     1      -8.490  13.326  68.468  1.00  0.00    -0.067 C  
BRANCH   5   6
HETATM    6  C   UNL     1      -8.852  13.842  67.062  1.00  0.00    -0.218 C  
BRANCH   6   7
HETATM    7  C   UNL     1      -8.444  15.307  66.949  1.00  0.00    -0.286 A  
HETATM    8  C   UNL     1      -7.666  18.006  66.851  1.00  0.00    -0.245 A  
HETATM    9  C   UNL     1      -9.379  16.310  66.650  1.00  0.00    -0.272 A  
HETATM   10  C   UNL     1      -7.115  15.683  67.209  1.00  0.00    -0.242 A  
HETATM   11  C   UNL     1      -8.989  17.650  66.597  1.00  0.00    -0.283 A  
HETATM   12  C   UNL     1      -6.729  17.023  67.157  1.00  0.00    -0.214 A  
ENDBRANCH   6   7
BRANCH   6  13
HETATM   13  O   UNL     1     -10.257  13.649  66.793  1.00  0.00    -0.260 OA 
BRANCH  13  14
HETATM   14  C   UNL     1     -10.563  12.960  65.644  1.00  0.00    -0.277 A  
HETATM   15  C   UNL     1      -9.728  11.966  65.109  1.00  0.00    -0.197 A  
HETATM   16  C   UNL     1     -11.205  11.658  63.229  1.00  0.00    -0.305 A  
HETATM   17  C   UNL     1     -10.036  11.333  63.906  1.00  0.00    -0.392 A  
HETATM   18  C   UNL     1     -12.085  12.588  63.781  1.00  0.00    -0.615 A  
HETATM   19  C   UNL     1     -11.789  13.226  65.001  1.00  0.00    -0.384 A  
HETATM   20  C   UNL     1     -12.797  14.191  65.565  1.00  0.00    -0.404 C  
ENDBRANCH  13  14
ENDBRANCH   6  13
ENDBRANCH   5   6
ENDBRANCH   4   5
ENDBRANCH   2   4
TORSDOF 6
ENDMDL
MODEL      169
REMARK 921   NORMALIZED FREE ENERGY PREDICTED BY IDOCK:   -4.02 KCAL/MOL
REMARK 922        TOTAL FREE ENERGY PREDICTED BY IDOCK:   -6.21 KCAL/MOL
REMARK 923 INTER-LIGAND FREE ENERGY PREDICTED BY IDOCK:   -5.00 KCAL/MOL
REMARK 924 INTRA-LIGAND FREE ENERGY PREDICTED BY IDOCK:   -1.21 KCAL/MOL
REMARK 927      BINDING AFFINITY PREDICTED BY RF-SCORE:    0.00 PKD
ROOT
HETATM    1  C   UNL     1      -7.608   5.503  70.985  1.00  0.00    -0.091 C  
HETATM    2  N   UNL     1      -8.242   5.418  69.678  1.00  0.00    -0.098 NA 
HETATM    3  H   UNL     1      -7.771   4.737  69.082  1.00  0.00     0.000 HD 
ENDROOT
BRANCH   2   4
HETATM    4  C   UNL     1      -9.678   5.133  69.779  1.00  0.00    -0.193 C  
BRANCH   4   5
HETATM    5  C   UNL     1     -10.390   5.812  68.606  1.00  0.00    -0.283 C  
BRANCH   5   6
HETATM    6  C   UNL     1     -10.648   7.314  68.830  1.00  0.00    -0.191 C  
BRANCH   6   7
HETATM    7  C   UNL     1      -9.767   8.118  67.879  1.00  0.00    -0.191 A  
HETATM    8  C   UNL     1      -8.155   9.688  66.195  1.00  0.00    -0.108 A  
HETATM    9  C   UNL     1     -10.177   8.414  66.571  1.00  0.00    -0.277 A  
HETATM   10  C   UNL     1      -8.539   8.632  68.332  1.00  0.00    -0.135 A  
HETATM   11  C   UNL     1      -9.372   9.190  65.733  1.00  0.00    -0.309 A  
HETATM   12  C   UNL     1      -7.739   9.409  67.494  1.00  0.00    -0.091 A  
ENDBRANCH   6   7
BRANCH   6  13
HETATM   13  O   UNL     1     -10.421   7.672  70.210  1.00  0.00    -0.214 OA 
BRANCH  13  14
HETATM   14  C   UNL     1     -11.339   8.526  70.771  1.00  0.00    -0.266 A  
HETATM   15  C   UNL     1     -11.384   9.897  70.473  1.00  0.00    -0.399 A  
HETATM   16  C   UNL     1     -13.186  10.237  72.037  1.00  0.00    -0.516 A  
HETATM   17  C   UNL     1     -12.286  10.747  71.111  1.00  0.00    -0.457 A  
HETATM   18  C   UNL     1     -13.208   8.866  72.293  1.00  0.00    -0.498 A  
HETATM   19  C   UNL     1     -12.309   7.996  71.646  1.00  0.00    -0.344 A  
HETATM   20  C   UNL     1     -12.410   6.523  71.934  1.00  0.00    -0.339 C  
ENDBRANCH  13  14
ENDBRANCH   6  13
ENDBRANCH   5   6
ENDBRANCH   4   5
ENDBRANCH   2   4
TORSDOF 6
ENDMDL
MODEL      170
REMARK 921   NORMALIZED FREE ENERGY PREDICTED BY IDOCK:   -4.02 KCAL/MOL
REMARK 922        TOTAL FREE ENERGY PREDICTED BY IDOCK:   -6.21 KCAL/MOL
REMARK 923 INTER-LIGAND FREE ENERGY PREDICTED BY IDOCK:   -5.27 KCAL/MOL
REMARK 924 INTRA-LIGAND FREE ENERGY PREDICTED BY IDOCK:   -0.95 KCAL/MOL
REMARK 927      BINDING AFFINITY PREDICTED BY RF-SCORE:    0.00 PKD
ROOT
HETATM    1  C   UNL     1      -6.701  10.621  69.654  1.00  0.00    -0.116 C  
HETATM    2  N   UNL     1      -8.006  11.249  69.506  1.00  0.00    -0.348 NA 
HETATM    3  H   UNL     1      -8.163  11.949  70.231  1.00  0.00     0.000 HD 
ENDROOT
BRANCH   2   4
HETATM    4  C   UNL     1      -8.194  11.819  68.167  1.00  0.00    -0.153 C  
BRANCH   4   5
HETATM    5  C   UNL     1      -9.412  11.152  67.524  1.00  0.00    -0.178 C  
BRANCH   5   6
HETATM    6  C   UNL     1     -10.362  10.496  68.544  1.00  0.00    -0.179 C  
BRANCH   6   7
HETATM    7  C   UNL     1     -10.337   8.984  68.346  1.00  0.00    -0.242 A  
HETATM    8  C   UNL     1     -10.178   6.200  67.988  1.00  0.00    -0.210 A  
HETATM    9  C   UNL     1     -10.766   8.391  67.149  1.00  0.00    -0.222 A  
HETATM   10  C   UNL     1      -9.817   8.156  69.357  1.00  0.00    -0.182 A  
HETATM   11  C   UNL     1     -10.691   7.008  66.975  1.00  0.00    -0.423 A  
HETATM   12  C   UNL     1      -9.741   6.774  69.179  1.00  0.00    -0.147 A  
ENDBRANCH   6   7
BRANCH   6  13
HETATM   13  O   UNL     1     -11.695  11.035  68.423  1.00  0.00    -0.423 OA 
BRANCH  13  14
HETATM   14  C   UNL     1     -12.056  11.969  69.365  1.00  0.00    -0.202 A  
HETATM   15  C   UNL     1     -11.910  13.350  69.162  1.00  0.00    -0.383 A  
HETATM   16  C   UNL     1     -12.724  13.820  71.381  1.00  0.00    -0.450 A  
HETATM   17  C   UNL     1     -12.225  14.266  70.164  1.00  0.00    -0.407 A  
HETATM   18  C   UNL     1     -12.947  12.458  71.577  1.00  0.00    -0.385 A  
HETATM   19  C   UNL     1     -12.643  11.524  70.567  1.00  0.00    -0.286 A  
HETATM   20  C   UNL     1     -12.944  10.072  70.824  1.00  0.00    -0.330 C  
ENDBRANCH  13  14
ENDBRANCH   6  13
ENDBRANCH   5   6
ENDBRANCH   4   5
ENDBRANCH   2   4
TORSDOF 6
ENDMDL
MODEL      171
REMARK 921   NORMALIZED FREE ENERGY PREDICTED BY IDOCK:   -4.02 KCAL/MOL
REMARK 922        TOTAL FREE ENERGY PREDICTED BY IDOCK:   -6.21 KCAL/MOL
REMARK 923 INTER-LIGAND FREE ENERGY PREDICTED BY IDOCK:   -5.68 KCAL/MOL
REMARK 924 INTRA-LIGAND FREE ENERGY PREDICTED BY IDOCK:   -0.52 KCAL/MOL
REMARK 927      BINDING AFFINITY PREDICTED BY RF-SCORE:    0.00 PKD
ROOT
HETATM    1  C   UNL     1     -13.579  13.211  72.274  1.00  0.00    -0.581 C  
HETATM    2  N   UNL     1     -13.485  14.121  71.142  1.00  0.00    -0.281 NA 
HETATM    3  H   UNL     1     -13.883  15.032  71.367  1.00  0.00     0.000 HD 
ENDROOT
BRANCH   2   4
HETATM    4  C   UNL     1     -12.108  14.249  70.651  1.00  0.00    -0.346 C  
BRANCH   4   5
HETATM    5  C   UNL     1     -12.143  14.951  69.291  1.00  0.00    -0.286 C  
BRANCH   5   6
HETATM    6  C   UNL     1     -12.347  13.986  68.107  1.00  0.00     0.022 C  
BRANCH   6   7
HETATM    7  C   UNL     1     -11.451  12.766  68.299  1.00  0.00    -0.354 A  
HETATM    8  C   UNL     1      -9.840  10.510  68.759  1.00  0.00    -0.191 A  
HETATM    9  C   UNL     1     -10.052  12.871  68.282  1.00  0.00    -0.242 A  
HETATM   10  C   UNL     1     -12.028  11.512  68.563  1.00  0.00    -0.293 A  
HETATM   11  C   UNL     1      -9.253  11.748  68.505  1.00  0.00    -0.152 A  
HETATM   12  C   UNL     1     -11.227  10.391  68.789  1.00  0.00    -0.295 A  
ENDBRANCH   6   7
BRANCH   6  13
HETATM   13  O   UNL     1     -12.091  14.653  66.853  1.00  0.00    -0.361 OA 
BRANCH  13  14
HETATM   14  C   UNL     1     -11.956  13.840  65.753  1.00  0.00    -0.399 A  
HETATM   15  C   UNL     1     -13.016  13.083  65.232  1.00  0.00    -0.092 A  
HETATM   16  C   UNL     1     -11.578  12.116  63.557  1.00  0.00    -0.562 A  
HETATM   17  C   UNL     1     -12.827  12.217  64.156  1.00  0.00    -0.371 A  
HETATM   18  C   UNL     1     -10.529  12.914  64.012  1.00  0.00    -0.395 A  
HETATM   19  C   UNL     1     -10.712  13.800  65.091  1.00  0.00    -0.365 A  
HETATM   20  C   UNL     1      -9.553  14.663  65.509  1.00  0.00    -0.139 C  
ENDBRANCH  13  14
ENDBRANCH   6  13
ENDBRANCH   5   6
ENDBRANCH   4   5
ENDBRANCH   2   4
TORSDOF 6
ENDMDL
MODEL      172
REMARK 921   NORMALIZED FREE ENERGY PREDICTED BY IDOCK:   -4.01 KCAL/MOL
REMARK 922        TOTAL FREE ENERGY PREDICTED BY IDOCK:   -6.19 KCAL/MOL
REMARK 923 INTER-LIGAND FREE ENERGY PREDICTED BY IDOCK:   -6.01 KCAL/MOL
REMARK 924 INTRA-LIGAND FREE ENERGY PREDICTED BY IDOCK:   -0.18 KCAL/MOL
REMARK 927      BINDING AFFINITY PREDICTED BY RF-SCORE:    0.00 PKD
ROOT
HETATM    1  C   UNL     1     -14.273   8.550  72.013  1.00  0.00    -0.453 C  
HETATM    2  N   UNL     1     -13.534   9.356  71.053  1.00  0.00    -0.577 NA 
HETATM    3  H   UNL     1     -13.976   9.336  70.135  1.00  0.00     0.000 HD 
ENDROOT
BRANCH   2   4
HETATM    4  C   UNL     1     -13.344  10.734  71.522  1.00  0.00    -0.226 C  
BRANCH   4   5
HETATM    5  C   UNL     1     -11.959  11.210  71.077  1.00  0.00    -0.268 C  
BRANCH   5   6
HETATM    6  C   UNL     1     -11.421  10.464  69.841  1.00  0.00    -0.297 C  
BRANCH   6   7
HETATM    7  C   UNL     1     -10.764   9.163  70.291  1.00  0.00    -0.268 A  
HETATM    8  C   UNL     1      -9.455   6.823  71.133  1.00  0.00    -0.164 A  
HETATM    9  C   UNL     1     -10.621   8.072  69.421  1.00  0.00    -0.210 A  
HETATM   10  C   UNL     1     -10.229   9.064  71.587  1.00  0.00    -0.418 A  
HETATM   11  C   UNL     1      -9.975   6.908  69.842  1.00  0.00    -0.185 A  
HETATM   12  C   UNL     1      -9.581   7.901  72.005  1.00  0.00    -0.242 A  
ENDBRANCH   6   7
BRANCH   6  13
HETATM   13  O   UNL     1     -10.512  11.299  69.094  1.00  0.00    -0.212 OA 
BRANCH  13  14
HETATM   14  C   UNL     1     -11.070  12.051  68.088  1.00  0.00    -0.245 A  
HETATM   15  C   UNL     1     -11.621  13.323  68.305  1.00  0.00    -0.369 A  
HETATM   16  C   UNL     1     -12.290  13.491  65.995  1.00  0.00    -0.486 A  
HETATM   17  C   UNL     1     -12.239  14.029  67.275  1.00  0.00    -0.325 A  
HETATM   18  C   UNL     1     -11.683  12.261  65.742  1.00  0.00    -0.445 A  
HETATM   19  C   UNL     1     -11.047  11.544  66.773  1.00  0.00    -0.361 A  
HETATM   20  C   UNL     1     -10.376  10.242  66.427  1.00  0.00    -0.262 C  
ENDBRANCH  13  14
ENDBRANCH   6  13
ENDBRANCH   5   6
ENDBRANCH   4   5
ENDBRANCH   2   4
TORSDOF 6
ENDMDL
MODEL      173
REMARK 921   NORMALIZED FREE ENERGY PREDICTED BY IDOCK:   -3.98 KCAL/MOL
REMARK 922        TOTAL FREE ENERGY PREDICTED BY IDOCK:   -6.15 KCAL/MOL
REMARK 923 INTER-LIGAND FREE ENERGY PREDICTED BY IDOCK:   -5.28 KCAL/MOL
REMARK 924 INTRA-LIGAND FREE ENERGY PREDICTED BY IDOCK:   -0.87 KCAL/MOL
REMARK 927      BINDING AFFINITY PREDICTED BY RF-SCORE:    0.00 PKD
ROOT
HETATM    1  C   UNL     1      -8.596   8.718  65.304  1.00  0.00    -0.187 C  
HETATM    2  N   UNL     1      -9.127   8.032  66.473  1.00  0.00    -0.164 NA 
HETATM    3  H   UNL     1      -8.410   7.913  67.188  1.00  0.00     0.000 HD 
ENDROOT
BRANCH   2   4
HETATM    4  C   UNL     1     -10.313   8.704  67.015  1.00  0.00    -0.298 C  
BRANCH   4   5
HETATM    5  C   UNL     1     -10.041  10.210  67.054  1.00  0.00    -0.277 C  
BRANCH   5   6
HETATM    6  C   UNL     1     -10.155  10.818  68.465  1.00  0.00    -0.176 C  
BRANCH   6   7
HETATM    7  C   UNL     1      -9.076  10.213  69.357  1.00  0.00    -0.217 A  
HETATM    8  C   UNL     1      -7.028   9.073  70.907  1.00  0.00    -0.093 A  
HETATM    9  C   UNL     1      -9.319   9.070  70.133  1.00  0.00    -0.213 A  
HETATM   10  C   UNL     1      -7.784  10.767  69.363  1.00  0.00    -0.107 A  
HETATM   11  C   UNL     1      -8.302   8.507  70.907  1.00  0.00    -0.166 A  
HETATM   12  C   UNL     1      -6.769  10.202  70.136  1.00  0.00    -0.138 A  
ENDBRANCH   6   7
BRANCH   6  13
HETATM   13  O   UNL     1     -11.479  10.616  69.004  1.00  0.00    -0.261 OA 
BRANCH  13  14
HETATM   14  C   UNL     1     -11.979  11.636  69.776  1.00  0.00    -0.332 A  
HETATM   15  C   UNL     1     -11.871  12.988  69.413  1.00  0.00    -0.380 A  
HETATM   16  C   UNL     1     -12.939  13.682  71.459  1.00  0.00    -0.443 A  
HETATM   17  C   UNL     1     -12.331  14.001  70.252  1.00  0.00    -0.425 A  
HETATM   18  C   UNL     1     -13.123  12.343  71.804  1.00  0.00    -0.446 A  
HETATM   19  C   UNL     1     -12.672  11.311  70.959  1.00  0.00    -0.457 A  
HETATM   20  C   UNL     1     -12.937   9.887  71.369  1.00  0.00    -0.504 C  
ENDBRANCH  13  14
ENDBRANCH   6  13
ENDBRANCH   5   6
ENDBRANCH   4   5
ENDBRANCH   2   4
TORSDOF 6
ENDMDL
MODEL      174
REMARK 921   NORMALIZED FREE ENERGY PREDICTED BY IDOCK:   -3.95 KCAL/MOL
REMARK 922        TOTAL FREE ENERGY PREDICTED BY IDOCK:   -6.11 KCAL/MOL
REMARK 923 INTER-LIGAND FREE ENERGY PREDICTED BY IDOCK:   -4.72 KCAL/MOL
REMARK 924 INTRA-LIGAND FREE ENERGY PREDICTED BY IDOCK:   -1.39 KCAL/MOL
REMARK 927      BINDING AFFINITY PREDICTED BY RF-SCORE:    0.00 PKD
ROOT
HETATM    1  C   UNL     1      -7.500  12.987  68.081  1.00  0.00    -0.130 C  
HETATM    2  N   UNL     1      -8.833  12.857  68.651  1.00  0.00    -0.375 NA 
HETATM    3  H   UNL     1      -9.226  13.770  68.883  1.00  0.00     0.000 HD 
ENDROOT
BRANCH   2   4
HETATM    4  C   UNL     1      -9.735  12.098  67.776  1.00  0.00    -0.197 C  
BRANCH   4   5
HETATM    5  C   UNL     1     -10.888  11.555  68.625  1.00  0.00    -0.253 C  
BRANCH   5   6
HETATM    6  C   UNL     1     -10.572  10.205  69.298  1.00  0.00    -0.230 C  
BRANCH   6   7
HETATM    7  C   UNL     1     -11.622   9.926  70.368  1.00  0.00    -0.356 A  
HETATM    8  C   UNL     1     -13.496   9.471  72.413  1.00  0.00    -0.475 A  
HETATM    9  C   UNL     1     -11.848   8.630  70.856  1.00  0.00    -0.257 A  
HETATM   10  C   UNL     1     -12.345  10.991  70.933  1.00  0.00    -0.503 A  
HETATM   11  C   UNL     1     -12.783   8.405  71.868  1.00  0.00    -0.390 A  
HETATM   12  C   UNL     1     -13.277  10.765  71.946  1.00  0.00    -0.524 A  
ENDBRANCH   6   7
BRANCH   6  13
HETATM   13  O   UNL     1      -9.234  10.204  69.839  1.00  0.00    -0.192 OA 
BRANCH  13  14
HETATM   14  C   UNL     1      -8.476   9.090  69.570  1.00  0.00    -0.125 A  
HETATM   15  C   UNL     1      -8.031   8.766  68.279  1.00  0.00    -0.106 A  
HETATM   16  C   UNL     1      -7.010   6.734  69.078  1.00  0.00    -0.082 A  
HETATM   17  C   UNL     1      -7.320   7.593  68.032  1.00  0.00    -0.099 A  
HETATM   18  C   UNL     1      -7.378   7.074  70.380  1.00  0.00    -0.083 A  
HETATM   19  C   UNL     1      -8.087   8.262  70.643  1.00  0.00    -0.110 A  
HETATM   20  C   UNL     1      -8.421   8.592  72.073  1.00  0.00    -0.231 C  
ENDBRANCH  13  14
ENDBRANCH   6  13
ENDBRANCH   5   6
ENDBRANCH   4   5
ENDBRANCH   2   4
TORSDOF 6
ENDMDL
MODEL      175
REMARK 921   NORMALIZED FREE ENERGY PREDICTED BY IDOCK:   -3.95 KCAL/MOL
REMARK 922        TOTAL FREE ENERGY PREDICTED BY IDOCK:   -6.11 KCAL/MOL
REMARK 923 INTER-LIGAND FREE ENERGY PREDICTED BY IDOCK:   -5.24 KCAL/MOL
REMARK 924 INTRA-LIGAND FREE ENERGY PREDICTED BY IDOCK:   -0.87 KCAL/MOL
REMARK 927      BINDING AFFINITY PREDICTED BY RF-SCORE:    0.00 PKD
ROOT
HETATM    1  C   UNL     1      -5.785  10.750  70.611  1.00  0.00    -0.116 C  
HETATM    2  N   UNL     1      -7.226  10.612  70.458  1.00  0.00    -0.417 NA 
HETATM    3  H   UNL     1      -7.706  11.482  70.689  1.00  0.00     0.000 HD 
ENDROOT
BRANCH   2   4
HETATM    4  C   UNL     1      -7.596  10.141  69.118  1.00  0.00    -0.103 C  
BRANCH   4   5
HETATM    5  C   UNL     1      -8.785   9.186  69.253  1.00  0.00    -0.139 C  
BRANCH   5   6
HETATM    6  C   UNL     1      -9.939   9.759  70.097  1.00  0.00    -0.263 C  
BRANCH   6   7
HETATM    7  C   UNL     1     -10.259   8.787  71.228  1.00  0.00    -0.332 A  
HETATM    8  C   UNL     1     -10.796   6.913  73.253  1.00  0.00    -0.321 A  
HETATM    9  C   UNL     1     -11.580   8.429  71.539  1.00  0.00    -0.338 A  
HETATM   10  C   UNL     1      -9.212   8.179  71.943  1.00  0.00    -0.243 A  
HETATM   11  C   UNL     1     -11.845   7.502  72.549  1.00  0.00    -0.266 A  
HETATM   12  C   UNL     1      -9.480   7.251  72.950  1.00  0.00    -0.200 A  
ENDBRANCH   6   7
BRANCH   6  13
HETATM   13  O   UNL     1     -11.093  10.028  69.272  1.00  0.00    -0.228 OA 
BRANCH  13  14
HETATM   14  C   UNL     1     -11.182  11.298  68.756  1.00  0.00    -0.250 A  
HETATM   15  C   UNL     1     -10.734  11.629  67.468  1.00  0.00    -0.257 A  
HETATM   16  C   UNL     1     -11.306  13.946  67.801  1.00  0.00    -0.335 A  
HETATM   17  C   UNL     1     -10.779  12.941  67.000  1.00  0.00    -0.273 A  
HETATM   18  C   UNL     1     -11.825  13.627  69.055  1.00  0.00    -0.393 A  
HETATM   19  C   UNL     1     -11.794  12.302  69.533  1.00  0.00    -0.380 A  
HETATM   20  C   UNL     1     -12.407  12.015  70.877  1.00  0.00    -0.384 C  
ENDBRANCH  13  14
ENDBRANCH   6  13
ENDBRANCH   5   6
ENDBRANCH   4   5
ENDBRANCH   2   4
TORSDOF 6
ENDMDL
MODEL      176
REMARK 921   NORMALIZED FREE ENERGY PREDICTED BY IDOCK:   -3.94 KCAL/MOL
REMARK 922        TOTAL FREE ENERGY PREDICTED BY IDOCK:   -6.09 KCAL/MOL
REMARK 923 INTER-LIGAND FREE ENERGY PREDICTED BY IDOCK:   -5.81 KCAL/MOL
REMARK 924 INTRA-LIGAND FREE ENERGY PREDICTED BY IDOCK:   -0.28 KCAL/MOL
REMARK 927      BINDING AFFINITY PREDICTED BY RF-SCORE:    0.00 PKD
ROOT
HETATM    1  C   UNL     1      -6.657  15.607  67.736  1.00  0.00    -0.161 C  
HETATM    2  N   UNL     1      -6.808  14.215  67.340  1.00  0.00    -0.355 NA 
HETATM    3  H   UNL     1      -5.901  13.764  67.220  1.00  0.00     0.000 HD 
ENDROOT
BRANCH   2   4
HETATM    4  C   UNL     1      -7.655  13.465  68.276  1.00  0.00    -0.135 C  
BRANCH   4   5
HETATM    5  C   UNL     1      -8.720  12.717  67.470  1.00  0.00    -0.184 C  
BRANCH   5   6
HETATM    6  C   UNL     1     -10.161  13.039  67.911  1.00  0.00    -0.234 C  
BRANCH   6   7
HETATM    7  C   UNL     1     -10.962  13.498  66.698  1.00  0.00    -0.293 A  
HETATM    8  C   UNL     1     -12.401  14.255  64.405  1.00  0.00    -0.417 A  
HETATM    9  C   UNL     1     -10.649  14.684  66.016  1.00  0.00    -0.314 A  
HETATM   10  C   UNL     1     -12.002  12.693  66.202  1.00  0.00    -0.458 A  
HETATM   11  C   UNL     1     -11.368  15.061  64.880  1.00  0.00    -0.419 A  
HETATM   12  C   UNL     1     -12.718  13.071  65.065  1.00  0.00    -0.475 A  
ENDBRANCH   6   7
BRANCH   6  13
HETATM   13  O   UNL     1     -10.166  14.023  68.967  1.00  0.00    -0.195 OA 
BRANCH  13  14
HETATM   14  C   UNL     1     -11.305  14.081  69.733  1.00  0.00    -0.179 A  
HETATM   15  C   UNL     1     -11.983  15.280  69.998  1.00  0.00    -0.375 A  
HETATM   16  C   UNL     1     -13.577  14.138  71.399  1.00  0.00    -0.363 A  
HETATM   17  C   UNL     1     -13.098  15.313  70.834  1.00  0.00    -0.523 A  
HETATM   18  C   UNL     1     -12.963  12.925  71.090  1.00  0.00    -0.259 A  
HETATM   19  C   UNL     1     -11.843  12.879  70.237  1.00  0.00    -0.291 A  
HETATM   20  C   UNL     1     -11.249  11.535  69.911  1.00  0.00    -0.183 C  
ENDBRANCH  13  14
ENDBRANCH   6  13
ENDBRANCH   5   6
ENDBRANCH   4   5
ENDBRANCH   2   4
TORSDOF 6
ENDMDL
MODEL      177
REMARK 921   NORMALIZED FREE ENERGY PREDICTED BY IDOCK:   -3.92 KCAL/MOL
REMARK 922        TOTAL FREE ENERGY PREDICTED BY IDOCK:   -6.08 KCAL/MOL
REMARK 923 INTER-LIGAND FREE ENERGY PREDICTED BY IDOCK:   -5.15 KCAL/MOL
REMARK 924 INTRA-LIGAND FREE ENERGY PREDICTED BY IDOCK:   -0.93 KCAL/MOL
REMARK 927      BINDING AFFINITY PREDICTED BY RF-SCORE:    0.00 PKD
ROOT
HETATM    1  C   UNL     1      -9.590   8.765  66.458  1.00  0.00    -0.237 C  
HETATM    2  N   UNL     1      -8.739   8.048  67.396  1.00  0.00    -0.124 NA 
HETATM    3  H   UNL     1      -8.055   8.671  67.824  1.00  0.00     0.000 HD 
ENDROOT
BRANCH   2   4
HETATM    4  C   UNL     1      -9.519   7.334  68.413  1.00  0.00    -0.142 C  
BRANCH   4   5
HETATM    5  C   UNL     1      -8.899   7.617  69.784  1.00  0.00    -0.140 C  
BRANCH   5   6
HETATM    6  C   UNL     1      -9.911   8.148  70.818  1.00  0.00    -0.188 C  
BRANCH   6   7
HETATM    7  C   UNL     1     -10.136   7.083  71.886  1.00  0.00    -0.198 A  
HETATM    8  C   UNL     1     -10.438   5.115  73.870  1.00  0.00    -0.316 A  
HETATM    9  C   UNL     1     -10.681   5.829  71.572  1.00  0.00    -0.319 A  
HETATM   10  C   UNL     1      -9.734   7.328  73.211  1.00  0.00    -0.277 A  
HETATM   11  C   UNL     1     -10.835   4.854  72.560  1.00  0.00    -0.234 A  
HETATM   12  C   UNL     1      -9.887   6.352  74.196  1.00  0.00    -0.296 A  
ENDBRANCH   6   7
BRANCH   6  13
HETATM   13  O   UNL     1     -11.143   8.537  70.175  1.00  0.00    -0.248 OA 
BRANCH  13  14
HETATM   14  C   UNL     1     -11.765   9.651  70.686  1.00  0.00    -0.280 A  
HETATM   15  C   UNL     1     -12.711   9.587  71.720  1.00  0.00    -0.492 A  
HETATM   16  C   UNL     1     -13.075  11.967  71.613  1.00  0.00    -0.422 A  
HETATM   17  C   UNL     1     -13.372  10.729  72.168  1.00  0.00    -0.314 A  
HETATM   18  C   UNL     1     -12.084  12.064  70.636  1.00  0.00    -0.369 A  
HETATM   19  C   UNL     1     -11.403  10.918  70.183  1.00  0.00    -0.367 A  
HETATM   20  C   UNL     1     -10.317  11.093  69.156  1.00  0.00    -0.186 C  
ENDBRANCH  13  14
ENDBRANCH   6  13
ENDBRANCH   5   6
ENDBRANCH   4   5
ENDBRANCH   2   4
TORSDOF 6
ENDMDL
MODEL      178
REMARK 921   NORMALIZED FREE ENERGY PREDICTED BY IDOCK:   -3.92 KCAL/MOL
REMARK 922        TOTAL FREE ENERGY PREDICTED BY IDOCK:   -6.08 KCAL/MOL
REMARK 923 INTER-LIGAND FREE ENERGY PREDICTED BY IDOCK:   -5.50 KCAL/MOL
REMARK 924 INTRA-LIGAND FREE ENERGY PREDICTED BY IDOCK:   -0.58 KCAL/MOL
REMARK 927      BINDING AFFINITY PREDICTED BY RF-SCORE:    0.00 PKD
ROOT
HETATM    1  C   UNL     1      -7.309  10.124  69.713  1.00  0.00    -0.158 C  
HETATM    2  N   UNL     1      -8.321  11.028  69.186  1.00  0.00    -0.346 NA 
HETATM    3  H   UNL     1      -8.452  11.833  69.798  1.00  0.00     0.000 HD 
ENDROOT
BRANCH   2   4
HETATM    4  C   UNL     1      -8.023  11.447  67.812  1.00  0.00    -0.119 C  
BRANCH   4   5
HETATM    5  C   UNL     1      -9.054  10.810  66.877  1.00  0.00    -0.160 C  
BRANCH   5   6
HETATM    6  C   UNL     1     -10.092   9.939  67.611  1.00  0.00    -0.197 C  
BRANCH   6   7
HETATM    7  C   UNL     1      -9.923   8.488  67.172  1.00  0.00    -0.304 A  
HETATM    8  C   UNL     1      -9.629   5.847  66.256  1.00  0.00    -0.148 A  
HETATM    9  C   UNL     1     -10.841   7.495  67.547  1.00  0.00    -0.232 A  
HETATM   10  C   UNL     1      -8.862   8.135  66.320  1.00  0.00    -0.193 A  
HETATM   11  C   UNL     1     -10.690   6.182  67.095  1.00  0.00    -0.422 A  
HETATM   12  C   UNL     1      -8.715   6.823  65.868  1.00  0.00    -0.147 A  
ENDBRANCH   6   7
BRANCH   6  13
HETATM   13  O   UNL     1     -11.429  10.425  67.371  1.00  0.00    -0.354 OA 
BRANCH  13  14
HETATM   14  C   UNL     1     -11.607  11.783  67.485  1.00  0.00    -0.291 A  
HETATM   15  C   UNL     1     -11.621  12.643  66.377  1.00  0.00    -0.441 A  
HETATM   16  C   UNL     1     -11.877  14.570  67.803  1.00  0.00    -0.390 A  
HETATM   17  C   UNL     1     -11.738  14.023  66.533  1.00  0.00    -0.412 A  
HETATM   18  C   UNL     1     -11.940  13.727  68.912  1.00  0.00    -0.394 A  
HETATM   19  C   UNL     1     -11.834  12.330  68.764  1.00  0.00    -0.356 A  
HETATM   20  C   UNL     1     -11.950  11.472  69.995  1.00  0.00    -0.435 C  
ENDBRANCH  13  14
ENDBRANCH   6  13
ENDBRANCH   5   6
ENDBRANCH   4   5
ENDBRANCH   2   4
TORSDOF 6
ENDMDL
MODEL      179
REMARK 921   NORMALIZED FREE ENERGY PREDICTED BY IDOCK:   -3.92 KCAL/MOL
REMARK 922        TOTAL FREE ENERGY PREDICTED BY IDOCK:   -6.07 KCAL/MOL
REMARK 923 INTER-LIGAND FREE ENERGY PREDICTED BY IDOCK:   -5.22 KCAL/MOL
REMARK 924 INTRA-LIGAND FREE ENERGY PREDICTED BY IDOCK:   -0.85 KCAL/MOL
REMARK 927      BINDING AFFINITY PREDICTED BY RF-SCORE:    0.00 PKD
ROOT
HETATM    1  C   UNL     1      -9.260   9.778  66.186  1.00  0.00    -0.176 C  
HETATM    2  N   UNL     1      -9.523   8.980  67.374  1.00  0.00    -0.141 NA 
HETATM    3  H   UNL     1      -9.460   7.982  67.171  1.00  0.00     0.000 HD 
ENDROOT
BRANCH   2   4
HETATM    4  C   UNL     1      -8.649   9.352  68.493  1.00  0.00    -0.123 C  
BRANCH   4   5
HETATM    5  C   UNL     1      -9.302   8.879  69.794  1.00  0.00    -0.169 C  
BRANCH   5   6
HETATM    6  C   UNL     1     -10.770   8.444  69.622  1.00  0.00    -0.198 C  
BRANCH   6   7
HETATM    7  C   UNL     1     -11.669   9.408  70.389  1.00  0.00    -0.195 A  
HETATM    8  C   UNL     1     -13.233  11.236  71.842  1.00  0.00    -0.491 A  
HETATM    9  C   UNL     1     -12.504   8.967  71.426  1.00  0.00    -0.378 A  
HETATM   10  C   UNL     1     -11.623  10.783  70.101  1.00  0.00    -0.424 A  
HETATM   11  C   UNL     1     -13.285   9.876  72.144  1.00  0.00    -0.511 A  
HETATM   12  C   UNL     1     -12.402  11.690  70.822  1.00  0.00    -0.454 A  
ENDBRANCH   6   7
BRANCH   6  13
HETATM   13  O   UNL     1     -10.952   7.078  70.050  1.00  0.00    -0.250 OA 
BRANCH  13  14
HETATM   14  C   UNL     1     -10.589   6.108  69.146  1.00  0.00    -0.282 A  
HETATM   15  C   UNL     1     -10.982   6.139  67.799  1.00  0.00    -0.400 A  
HETATM   16  C   UNL     1      -9.892   4.031  67.374  1.00  0.00    -0.124 A  
HETATM   17  C   UNL     1     -10.651   5.104  66.925  1.00  0.00    -0.234 A  
HETATM   18  C   UNL     1      -9.429   4.018  68.689  1.00  0.00    -0.220 A  
HETATM   19  C   UNL     1      -9.748   5.063  69.578  1.00  0.00    -0.259 A  
HETATM   20  C   UNL     1      -9.185   5.010  70.972  1.00  0.00    -0.191 C  
ENDBRANCH  13  14
ENDBRANCH   6  13
ENDBRANCH   5   6
ENDBRANCH   4   5
ENDBRANCH   2   4
TORSDOF 6
ENDMDL
MODEL      180
REMARK 921   NORMALIZED FREE ENERGY PREDICTED BY IDOCK:   -3.92 KCAL/MOL
REMARK 922        TOTAL FREE ENERGY PREDICTED BY IDOCK:   -6.07 KCAL/MOL
REMARK 923 INTER-LIGAND FREE ENERGY PREDICTED BY IDOCK:   -5.46 KCAL/MOL
REMARK 924 INTRA-LIGAND FREE ENERGY PREDICTED BY IDOCK:   -0.61 KCAL/MOL
REMARK 927      BINDING AFFINITY PREDICTED BY RF-SCORE:    0.00 PKD
ROOT
HETATM    1  C   UNL     1     -12.839  13.164  71.502  1.00  0.00    -0.307 C  
HETATM    2  N   UNL     1     -11.997  14.244  71.995  1.00  0.00    -0.189 NA 
HETATM    3  H   UNL     1     -11.008  14.010  71.911  1.00  0.00     0.000 HD 
ENDROOT
BRANCH   2   4
HETATM    4  C   UNL     1     -12.298  15.522  71.338  1.00  0.00    -0.400 C  
BRANCH   4   5
HETATM    5  C   UNL     1     -11.281  15.739  70.215  1.00  0.00    -0.377 C  
BRANCH   5   6
HETATM    6  C   UNL     1     -11.866  15.522  68.806  1.00  0.00    -0.317 C  
BRANCH   6   7
HETATM    7  C   UNL     1     -11.347  14.201  68.249  1.00  0.00    -0.319 A  
HETATM    8  C   UNL     1     -10.489  11.716  67.254  1.00  0.00    -0.247 A  
HETATM    9  C   UNL     1     -10.244  13.546  68.817  1.00  0.00    -0.139 A  
HETATM   10  C   UNL     1     -12.020  13.581  67.181  1.00  0.00    -0.426 A  
HETATM   11  C   UNL     1      -9.815  12.314  68.318  1.00  0.00    -0.217 A  
HETATM   12  C   UNL     1     -11.591  12.349  66.686  1.00  0.00    -0.447 A  
ENDBRANCH   6   7
BRANCH   6  13
HETATM   13  O   UNL     1     -11.549  16.635  67.943  1.00  0.00    -0.008 OA 
BRANCH  13  14
HETATM   14  C   UNL     1     -10.214  16.843  67.693  1.00  0.00    -0.306 A  
HETATM   15  C   UNL     1      -9.309  17.248  68.686  1.00  0.00    -0.267 A  
HETATM   16  C   UNL     1      -7.510  17.351  67.085  1.00  0.00    -0.219 A  
HETATM   17  C   UNL     1      -7.975  17.515  68.384  1.00  0.00    -0.261 A  
HETATM   18  C   UNL     1      -8.375  16.879  66.099  1.00  0.00    -0.286 A  
HETATM   19  C   UNL     1      -9.722  16.596  66.396  1.00  0.00    -0.306 A  
HETATM   20  C   UNL     1     -10.595  16.052  65.297  1.00  0.00    -0.424 C  
ENDBRANCH  13  14
ENDBRANCH   6  13
ENDBRANCH   5   6
ENDBRANCH   4   5
ENDBRANCH   2   4
TORSDOF 6
ENDMDL
MODEL      181
REMARK 921   NORMALIZED FREE ENERGY PREDICTED BY IDOCK:   -3.90 KCAL/MOL
REMARK 922        TOTAL FREE ENERGY PREDICTED BY IDOCK:   -6.05 KCAL/MOL
REMARK 923 INTER-LIGAND FREE ENERGY PREDICTED BY IDOCK:   -5.61 KCAL/MOL
REMARK 924 INTRA-LIGAND FREE ENERGY PREDICTED BY IDOCK:   -0.44 KCAL/MOL
REMARK 927      BINDING AFFINITY PREDICTED BY RF-SCORE:    0.00 PKD
ROOT
HETATM    1  C   UNL     1      -9.882  10.656  63.207  1.00  0.00    -0.312 C  
HETATM    2  N   UNL     1      -9.411  10.026  64.432  1.00  0.00    -0.297 NA 
HETATM    3  H   UNL     1      -8.767   9.261  64.230  1.00  0.00     0.000 HD 
ENDROOT
BRANCH   2   4
HETATM    4  C   UNL     1      -8.812  10.996  65.355  1.00  0.00    -0.147 C  
BRANCH   4   5
HETATM    5  C   UNL     1      -8.853  10.408  66.768  1.00  0.00    -0.139 C  
BRANCH   5   6
HETATM    6  C   UNL     1     -10.253  10.451  67.410  1.00  0.00    -0.214 C  
BRANCH   6   7
HETATM    7  C   UNL     1     -10.835  11.851  67.242  1.00  0.00    -0.294 A  
HETATM    8  C   UNL     1     -11.862  14.434  66.828  1.00  0.00    -0.431 A  
HETATM    9  C   UNL     1     -10.407  12.926  68.036  1.00  0.00    -0.230 A  
HETATM   10  C   UNL     1     -11.779  12.097  66.230  1.00  0.00    -0.389 A  
HETATM   11  C   UNL     1     -10.922  14.208  67.832  1.00  0.00    -0.264 A  
HETATM   12  C   UNL     1     -12.290  13.380  66.027  1.00  0.00    -0.471 A  
ENDBRANCH   6   7
BRANCH   6  13
HETATM   13  O   UNL     1     -10.193  10.053  68.796  1.00  0.00    -0.170 OA 
BRANCH  13  14
HETATM   14  C   UNL     1     -10.489   8.738  69.060  1.00  0.00    -0.203 A  
HETATM   15  C   UNL     1     -10.347   7.720  68.105  1.00  0.00    -0.248 A  
HETATM   16  C   UNL     1     -11.214   6.077  69.641  1.00  0.00    -0.428 A  
HETATM   17  C   UNL     1     -10.721   6.406  68.385  1.00  0.00    -0.349 A  
HETATM   18  C   UNL     1     -11.294   7.059  70.628  1.00  0.00    -0.349 A  
HETATM   19  C   UNL     1     -10.909   8.387  70.359  1.00  0.00    -0.246 A  
HETATM   20  C   UNL     1     -10.981   9.391  71.478  1.00  0.00    -0.429 C  
ENDBRANCH  13  14
ENDBRANCH   6  13
ENDBRANCH   5   6
ENDBRANCH   4   5
ENDBRANCH   2   4
TORSDOF 6
ENDMDL
MODEL      182
REMARK 921   NORMALIZED FREE ENERGY PREDICTED BY IDOCK:   -3.88 KCAL/MOL
REMARK 922        TOTAL FREE ENERGY PREDICTED BY IDOCK:   -6.02 KCAL/MOL
REMARK 923 INTER-LIGAND FREE ENERGY PREDICTED BY IDOCK:   -4.77 KCAL/MOL
REMARK 924 INTRA-LIGAND FREE ENERGY PREDICTED BY IDOCK:   -1.25 KCAL/MOL
REMARK 927      BINDING AFFINITY PREDICTED BY RF-SCORE:    0.00 PKD
ROOT
HETATM    1  C   UNL     1     -11.722  14.083  69.371  1.00  0.00    -0.315 C  
HETATM    2  N   UNL     1     -10.736  13.013  69.333  1.00  0.00    -0.431 NA 
HETATM    3  H   UNL     1     -10.709  12.503  70.216  1.00  0.00     0.000 HD 
ENDROOT
BRANCH   2   4
HETATM    4  C   UNL     1     -10.950  12.105  68.200  1.00  0.00    -0.230 C  
BRANCH   4   5
HETATM    5  C   UNL     1     -11.619  10.831  68.722  1.00  0.00    -0.350 C  
BRANCH   5   6
HETATM    6  C   UNL     1     -10.656   9.904  69.490  1.00  0.00    -0.242 C  
BRANCH   6   7
HETATM    7  C   UNL     1      -9.778   9.160  68.489  1.00  0.00    -0.166 A  
HETATM    8  C   UNL     1      -8.210   7.694  66.674  1.00  0.00    -0.124 A  
HETATM    9  C   UNL     1      -8.389   9.062  68.660  1.00  0.00    -0.123 A  
HETATM   10  C   UNL     1     -10.368   8.500  67.397  1.00  0.00    -0.356 A  
HETATM   11  C   UNL     1      -7.611   8.338  67.755  1.00  0.00    -0.102 A  
HETATM   12  C   UNL     1      -9.589   7.774  66.495  1.00  0.00    -0.270 A  
ENDBRANCH   6   7
BRANCH   6  13
HETATM   13  O   UNL     1     -11.389   8.999  70.343  1.00  0.00    -0.255 OA 
BRANCH  13  14
HETATM   14  C   UNL     1     -10.633   8.195  71.161  1.00  0.00    -0.204 A  
HETATM   15  C   UNL     1      -9.892   8.693  72.244  1.00  0.00    -0.360 A  
HETATM   16  C   UNL     1      -9.023   6.499  72.734  1.00  0.00    -0.127 A  
HETATM   17  C   UNL     1      -9.083   7.858  73.013  1.00  0.00    -0.300 A  
HETATM   18  C   UNL     1      -9.807   5.971  71.709  1.00  0.00    -0.189 A  
HETATM   19  C   UNL     1     -10.637   6.804  70.933  1.00  0.00    -0.252 A  
HETATM   20  C   UNL     1     -11.489   6.168  69.868  1.00  0.00    -0.371 C  
ENDBRANCH  13  14
ENDBRANCH   6  13
ENDBRANCH   5   6
ENDBRANCH   4   5
ENDBRANCH   2   4
TORSDOF 6
ENDMDL
MODEL      183
REMARK 921   NORMALIZED FREE ENERGY PREDICTED BY IDOCK:   -3.88 KCAL/MOL
REMARK 922        TOTAL FREE ENERGY PREDICTED BY IDOCK:   -6.01 KCAL/MOL
REMARK 923 INTER-LIGAND FREE ENERGY PREDICTED BY IDOCK:   -5.14 KCAL/MOL
REMARK 924 INTRA-LIGAND FREE ENERGY PREDICTED BY IDOCK:   -0.88 KCAL/MOL
REMARK 927      BINDING AFFINITY PREDICTED BY RF-SCORE:    0.00 PKD
ROOT
HETATM    1  C   UNL     1      -5.641   7.034  70.774  1.00  0.00    -0.027 C  
HETATM    2  N   UNL     1      -6.649   7.344  71.777  1.00  0.00    -0.043 NA 
HETATM    3  H   UNL     1      -6.219   7.605  72.664  1.00  0.00     0.000 HD 
ENDROOT
BRANCH   2   4
HETATM    4  C   UNL     1      -7.587   8.374  71.316  1.00  0.00    -0.092 C  
BRANCH   4   5
HETATM    5  C   UNL     1      -9.009   7.916  71.650  1.00  0.00    -0.173 C  
BRANCH   5   6
HETATM    6  C   UNL     1      -9.980   8.014  70.457  1.00  0.00    -0.190 C  
BRANCH   6   7
HETATM    7  C   UNL     1     -10.910   9.204  70.668  1.00  0.00    -0.321 A  
HETATM    8  C   UNL     1     -12.711  11.329  71.044  1.00  0.00    -0.457 A  
HETATM    9  C   UNL     1     -10.959  10.270  69.757  1.00  0.00    -0.338 A  
HETATM   10  C   UNL     1     -11.788   9.218  71.766  1.00  0.00    -0.454 A  
HETATM   11  C   UNL     1     -11.851  11.327  69.948  1.00  0.00    -0.436 A  
HETATM   12  C   UNL     1     -12.680  10.275  71.953  1.00  0.00    -0.478 A  
ENDBRANCH   6   7
BRANCH   6  13
HETATM   13  O   UNL     1     -10.711   6.780  70.290  1.00  0.00    -0.222 OA 
BRANCH  13  14
HETATM   14  C   UNL     1     -10.423   6.057  69.158  1.00  0.00    -0.257 A  
HETATM   15  C   UNL     1     -10.826   6.460  67.875  1.00  0.00    -0.404 A  
HETATM   16  C   UNL     1      -9.885   4.470  66.892  1.00  0.00    -0.238 A  
HETATM   17  C   UNL     1     -10.575   5.668  66.756  1.00  0.00    -0.372 A  
HETATM   18  C   UNL     1      -9.411   4.088  68.146  1.00  0.00    -0.218 A  
HETATM   19  C   UNL     1      -9.649   4.886  69.282  1.00  0.00    -0.241 A  
HETATM   20  C   UNL     1      -9.077   4.439  70.600  1.00  0.00    -0.176 C  
ENDBRANCH  13  14
ENDBRANCH   6  13
ENDBRANCH   5   6
ENDBRANCH   4   5
ENDBRANCH   2   4
TORSDOF 6
ENDMDL
MODEL      184
REMARK 921   NORMALIZED FREE ENERGY PREDICTED BY IDOCK:   -3.87 KCAL/MOL
REMARK 922        TOTAL FREE ENERGY PREDICTED BY IDOCK:   -6.00 KCAL/MOL
REMARK 923 INTER-LIGAND FREE ENERGY PREDICTED BY IDOCK:   -4.95 KCAL/MOL
REMARK 924 INTRA-LIGAND FREE ENERGY PREDICTED BY IDOCK:   -1.05 KCAL/MOL
REMARK 927      BINDING AFFINITY PREDICTED BY RF-SCORE:    0.00 PKD
ROOT
HETATM    1  C   UNL     1      -8.440   5.337  71.212  1.00  0.00    -0.124 C  
HETATM    2  N   UNL     1      -8.887   5.436  69.830  1.00  0.00    -0.123 NA 
HETATM    3  H   UNL     1      -8.465   4.710  69.252  1.00  0.00     0.000 HD 
ENDROOT
BRANCH   2   4
HETATM    4  C   UNL     1     -10.351   5.417  69.722  1.00  0.00    -0.305 C  
BRANCH   4   5
HETATM    5  C   UNL     1     -10.748   6.116  68.419  1.00  0.00    -0.361 C  
BRANCH   5   6
HETATM    6  C   UNL     1     -10.777   7.653  68.531  1.00  0.00    -0.051 C  
BRANCH   6   7
HETATM    7  C   UNL     1      -9.894   8.248  67.439  1.00  0.00    -0.246 A  
HETATM    8  C   UNL     1      -8.217   9.408  65.505  1.00  0.00    -0.127 A  
HETATM    9  C   UNL     1     -10.428   9.047  66.416  1.00  0.00    -0.110 A  
HETATM   10  C   UNL     1      -8.503   8.051  67.480  1.00  0.00    -0.127 A  
HETATM   11  C   UNL     1      -9.594   9.618  65.453  1.00  0.00    -0.361 A  
HETATM   12  C   UNL     1      -7.671   8.625  66.518  1.00  0.00    -0.095 A  
ENDBRANCH   6   7
BRANCH   6  13
HETATM   13  O   UNL     1     -10.368   8.078  69.848  1.00  0.00    -0.210 OA 
BRANCH  13  14
HETATM   14  C   UNL     1     -11.289   8.806  70.561  1.00  0.00    -0.227 A  
HETATM   15  C   UNL     1     -12.127   8.232  71.530  1.00  0.00    -0.335 A  
HETATM   16  C   UNL     1     -13.228  10.342  71.912  1.00  0.00    -0.550 A  
HETATM   17  C   UNL     1     -13.097   8.987  72.188  1.00  0.00    -0.496 A  
HETATM   18  C   UNL     1     -12.357  10.947  71.007  1.00  0.00    -0.498 A  
HETATM   19  C   UNL     1     -11.366  10.196  70.345  1.00  0.00    -0.401 A  
HETATM   20  C   UNL     1     -10.431  10.916  69.410  1.00  0.00    -0.205 C  
ENDBRANCH  13  14
ENDBRANCH   6  13
ENDBRANCH   5   6
ENDBRANCH   4   5
ENDBRANCH   2   4
TORSDOF 6
ENDMDL
MODEL      185
REMARK 921   NORMALIZED FREE ENERGY PREDICTED BY IDOCK:   -3.86 KCAL/MOL
REMARK 922        TOTAL FREE ENERGY PREDICTED BY IDOCK:   -6.00 KCAL/MOL
REMARK 923 INTER-LIGAND FREE ENERGY PREDICTED BY IDOCK:   -5.17 KCAL/MOL
REMARK 924 INTRA-LIGAND FREE ENERGY PREDICTED BY IDOCK:   -0.83 KCAL/MOL
REMARK 927      BINDING AFFINITY PREDICTED BY RF-SCORE:    0.00 PKD
ROOT
HETATM    1  C   UNL     1     -11.987  10.538  70.424  1.00  0.00    -0.335 C  
HETATM    2  N   UNL     1     -11.660  11.954  70.491  1.00  0.00    -0.437 NA 
HETATM    3  H   UNL     1     -10.710  12.099  70.833  1.00  0.00     0.000 HD 
ENDROOT
BRANCH   2   4
HETATM    4  C   UNL     1     -11.869  12.630  69.205  1.00  0.00    -0.302 C  
BRANCH   4   5
HETATM    5  C   UNL     1     -10.833  12.105  68.208  1.00  0.00    -0.256 C  
BRANCH   5   6
HETATM    6  C   UNL     1     -10.432  13.138  67.138  1.00  0.00    -0.247 C  
BRANCH   6   7
HETATM    7  C   UNL     1     -11.187  12.837  65.848  1.00  0.00    -0.334 A  
HETATM    8  C   UNL     1     -12.494  12.330  63.411  1.00  0.00    -0.592 A  
HETATM    9  C   UNL     1     -12.413  13.453  65.552  1.00  0.00    -0.534 A  
HETATM   10  C   UNL     1     -10.623  11.972  64.894  1.00  0.00    -0.334 A  
HETATM   11  C   UNL     1     -13.063  13.196  64.343  1.00  0.00     0.240 A  
HETATM   12  C   UNL     1     -11.273  11.718  63.686  1.00  0.00    -0.519 A  
ENDBRANCH   6   7
BRANCH   6  13
HETATM   13  O   UNL     1      -9.002  13.142  66.940  1.00  0.00    -0.224 OA 
BRANCH  13  14
HETATM   14  C   UNL     1      -8.357  14.322  67.220  1.00  0.00    -0.204 A  
HETATM   15  C   UNL     1      -9.017  15.559  67.259  1.00  0.00    -0.216 A  
HETATM   16  C   UNL     1      -6.948  16.714  67.702  1.00  0.00    -0.160 A  
HETATM   17  C   UNL     1      -8.319  16.745  67.480  1.00  0.00    -0.200 A  
HETATM   18  C   UNL     1      -6.285  15.489  67.741  1.00  0.00    -0.178 A  
HETATM   19  C   UNL     1      -6.982  14.283  67.529  1.00  0.00    -0.177 A  
HETATM   20  C   UNL     1      -6.217  12.991  67.624  1.00  0.00    -0.158 C  
ENDBRANCH  13  14
ENDBRANCH   6  13
ENDBRANCH   5   6
ENDBRANCH   4   5
ENDBRANCH   2   4
TORSDOF 6
ENDMDL
MODEL      186
REMARK 921   NORMALIZED FREE ENERGY PREDICTED BY IDOCK:   -3.85 KCAL/MOL
REMARK 922        TOTAL FREE ENERGY PREDICTED BY IDOCK:   -5.98 KCAL/MOL
REMARK 923 INTER-LIGAND FREE ENERGY PREDICTED BY IDOCK:   -5.79 KCAL/MOL
REMARK 924 INTRA-LIGAND FREE ENERGY PREDICTED BY IDOCK:   -0.19 KCAL/MOL
REMARK 927      BINDING AFFINITY PREDICTED BY RF-SCORE:    0.00 PKD
ROOT
HETATM    1  C   UNL     1     -12.407  12.759  63.450  1.00  0.00    -0.437 C  
HETATM    2  N   UNL     1     -12.368  14.202  63.259  1.00  0.00    -1.133 NA 
HETATM    3  H   UNL     1     -13.161  14.522  62.703  1.00  0.00     0.000 HD 
ENDROOT
BRANCH   2   4
HETATM    4  C   UNL     1     -12.284  14.924  64.533  1.00  0.00    -0.382 C  
BRANCH   4   5
HETATM    5  C   UNL     1     -10.902  15.575  64.630  1.00  0.00    -0.277 C  
BRANCH   5   6
HETATM    6  C   UNL     1     -10.413  15.764  66.079  1.00  0.00    -0.338 C  
BRANCH   6   7
HETATM    7  C   UNL     1     -10.277  14.397  66.741  1.00  0.00    -0.270 A  
HETATM    8  C   UNL     1     -10.089  11.915  68.047  1.00  0.00    -0.199 A  
HETATM    9  C   UNL     1      -9.036  13.915  67.184  1.00  0.00    -0.245 A  
HETATM   10  C   UNL     1     -11.423  13.618  66.975  1.00  0.00    -0.368 A  
HETATM   11  C   UNL     1      -8.943  12.679  67.828  1.00  0.00    -0.189 A  
HETATM   12  C   UNL     1     -11.329  12.384  67.621  1.00  0.00    -0.371 A  
ENDBRANCH   6   7
BRANCH   6  13
HETATM   13  O   UNL     1     -11.304  16.633  66.811  1.00  0.00     0.262 OA 
BRANCH  13  14
HETATM   14  C   UNL     1     -10.708  17.641  67.529  1.00  0.00    -0.290 A  
HETATM   15  C   UNL     1     -10.250  17.470  68.845  1.00  0.00    -0.353 A  
HETATM   16  C   UNL     1      -9.589  19.784  68.978  1.00  0.00    -0.315 A  
HETATM   17  C   UNL     1      -9.711  18.533  69.568  1.00  0.00     0.250 A  
HETATM   18  C   UNL     1      -9.971  19.958  67.648  1.00  0.00    -0.553 A  
HETATM   19  C   UNL     1     -10.506  18.889  66.904  1.00  0.00    -0.496 A  
HETATM   20  C   UNL     1     -10.861  19.130  65.462  1.00  0.00    -0.084 C  
ENDBRANCH  13  14
ENDBRANCH   6  13
ENDBRANCH   5   6
ENDBRANCH   4   5
ENDBRANCH   2   4
TORSDOF 6
ENDMDL
MODEL      187
REMARK 921   NORMALIZED FREE ENERGY PREDICTED BY IDOCK:   -3.85 KCAL/MOL
REMARK 922        TOTAL FREE ENERGY PREDICTED BY IDOCK:   -5.98 KCAL/MOL
REMARK 923 INTER-LIGAND FREE ENERGY PREDICTED BY IDOCK:   -5.55 KCAL/MOL
REMARK 924 INTRA-LIGAND FREE ENERGY PREDICTED BY IDOCK:   -0.42 KCAL/MOL
REMARK 927      BINDING AFFINITY PREDICTED BY RF-SCORE:    0.00 PKD
ROOT
HETATM    1  C   UNL     1      -8.360  12.267  68.323  1.00  0.00    -0.174 C  
HETATM    2  N   UNL     1      -7.702  13.463  68.827  1.00  0.00    -0.286 NA 
HETATM    3  H   UNL     1      -6.788  13.242  69.223  1.00  0.00     0.000 HD 
ENDROOT
BRANCH   2   4
HETATM    4  C   UNL     1      -7.600  14.509  67.803  1.00  0.00    -0.159 C  
BRANCH   4   5
HETATM    5  C   UNL     1      -8.304  15.765  68.323  1.00  0.00    -0.163 C  
BRANCH   5   6
HETATM    6  C   UNL     1      -8.764  16.718  67.204  1.00  0.00    -0.200 C  
BRANCH   6   7
HETATM    7  C   UNL     1      -8.167  18.100  67.450  1.00  0.00    -0.236 A  
HETATM    8  C   UNL     1      -7.008  20.636  67.807  1.00  0.00    -0.351 A  
HETATM    9  C   UNL     1      -7.308  18.348  68.531  1.00  0.00    -0.302 A  
HETATM   10  C   UNL     1      -8.426  19.144  66.544  1.00  0.00    -0.324 A  
HETATM   11  C   UNL     1      -6.737  19.609  68.710  1.00  0.00    -0.344 A  
HETATM   12  C   UNL     1      -7.852  20.403  66.724  1.00  0.00    -0.310 A  
ENDBRANCH   6   7
BRANCH   6  13
HETATM   13  O   UNL     1     -10.205  16.758  67.125  1.00  0.00    -0.283 OA 
BRANCH  13  14
HETATM   14  C   UNL     1     -10.872  15.728  67.743  1.00  0.00    -0.316 A  
HETATM   15  C   UNL     1     -11.265  15.776  69.089  1.00  0.00    -0.322 A  
HETATM   16  C   UNL     1     -12.148  13.537  68.972  1.00  0.00    -0.330 A  
HETATM   17  C   UNL     1     -11.881  14.687  69.703  1.00  0.00    -0.367 A  
HETATM   18  C   UNL     1     -11.833  13.496  67.614  1.00  0.00    -0.399 A  
HETATM   19  C   UNL     1     -11.220  14.594  66.981  1.00  0.00    -0.348 A  
HETATM   20  C   UNL     1     -10.942  14.503  65.505  1.00  0.00    -0.337 C  
ENDBRANCH  13  14
ENDBRANCH   6  13
ENDBRANCH   5   6
ENDBRANCH   4   5
ENDBRANCH   2   4
TORSDOF 6
ENDMDL
MODEL      188
REMARK 921   NORMALIZED FREE ENERGY PREDICTED BY IDOCK:   -3.84 KCAL/MOL
REMARK 922        TOTAL FREE ENERGY PREDICTED BY IDOCK:   -5.96 KCAL/MOL
REMARK 923 INTER-LIGAND FREE ENERGY PREDICTED BY IDOCK:   -5.56 KCAL/MOL
REMARK 924 INTRA-LIGAND FREE ENERGY PREDICTED BY IDOCK:   -0.40 KCAL/MOL
REMARK 927      BINDING AFFINITY PREDICTED BY RF-SCORE:    0.00 PKD
ROOT
HETATM    1  C   UNL     1      -6.954  11.831  69.186  1.00  0.00    -0.091 C  
HETATM    2  N   UNL     1      -6.941  13.223  69.609  1.00  0.00    -0.329 NA 
HETATM    3  H   UNL     1      -6.003  13.517  69.882  1.00  0.00     0.000 HD 
ENDROOT
BRANCH   2   4
HETATM    4  C   UNL     1      -7.501  14.115  68.588  1.00  0.00    -0.125 C  
BRANCH   4   5
HETATM    5  C   UNL     1      -9.026  14.115  68.729  1.00  0.00    -0.065 C  
BRANCH   5   6
HETATM    6  C   UNL     1      -9.754  14.751  67.530  1.00  0.00    -0.213 C  
BRANCH   6   7
HETATM    7  C   UNL     1      -9.719  16.269  67.674  1.00  0.00    -0.234 A  
HETATM    8  C   UNL     1      -9.542  19.062  67.930  1.00  0.00    -0.373 A  
HETATM    9  C   UNL     1     -10.104  16.904  68.865  1.00  0.00    -0.297 A  
HETATM   10  C   UNL     1      -9.233  17.060  66.618  1.00  0.00    -0.277 A  
HETATM   11  C   UNL     1     -10.020  18.292  68.989  1.00  0.00    -0.293 A  
HETATM   12  C   UNL     1      -9.148  18.447  66.745  1.00  0.00    -0.293 A  
ENDBRANCH   6   7
BRANCH   6  13
HETATM   13  O   UNL     1     -11.102  14.249  67.424  1.00  0.00    -0.288 OA 
BRANCH  13  14
HETATM   14  C   UNL     1     -11.484  13.338  68.380  1.00  0.00    -0.314 A  
HETATM   15  C   UNL     1     -11.867  13.713  69.677  1.00  0.00    -0.396 A  
HETATM   16  C   UNL     1     -12.157  11.408  70.319  1.00  0.00    -0.459 A  
HETATM   17  C   UNL     1     -12.184  12.758  70.642  1.00  0.00    -0.374 A  
HETATM   18  C   UNL     1     -11.852  11.018  69.015  1.00  0.00    -0.399 A  
HETATM   19  C   UNL     1     -11.540  11.974  68.030  1.00  0.00    -0.407 A  
HETATM   20  C   UNL     1     -11.258  11.492  66.632  1.00  0.00    -0.336 C  
ENDBRANCH  13  14
ENDBRANCH   6  13
ENDBRANCH   5   6
ENDBRANCH   4   5
ENDBRANCH   2   4
TORSDOF 6
ENDMDL
MODEL      189
REMARK 921   NORMALIZED FREE ENERGY PREDICTED BY IDOCK:   -3.83 KCAL/MOL
REMARK 922        TOTAL FREE ENERGY PREDICTED BY IDOCK:   -5.94 KCAL/MOL
REMARK 923 INTER-LIGAND FREE ENERGY PREDICTED BY IDOCK:   -4.93 KCAL/MOL
REMARK 924 INTRA-LIGAND FREE ENERGY PREDICTED BY IDOCK:   -1.02 KCAL/MOL
REMARK 927      BINDING AFFINITY PREDICTED BY RF-SCORE:    0.00 PKD
ROOT
HETATM    1  C   UNL     1      -7.300   8.016  71.547  1.00  0.00    -0.073 C  
HETATM    2  N   UNL     1      -7.657   9.354  71.098  1.00  0.00    -0.329 NA 
HETATM    3  H   UNL     1      -7.039  10.057  71.502  1.00  0.00     0.000 HD 
ENDROOT
BRANCH   2   4
HETATM    4  C   UNL     1      -7.690   9.453  69.634  1.00  0.00    -0.098 C  
BRANCH   4   5
HETATM    5  C   UNL     1      -9.000  10.130  69.224  1.00  0.00    -0.193 C  
BRANCH   5   6
HETATM    6  C   UNL     1      -9.865   9.273  68.281  1.00  0.00    -0.158 C  
BRANCH   6   7
HETATM    7  C   UNL     1     -10.110  10.046  66.989  1.00  0.00    -0.274 A  
HETATM    8  C   UNL     1     -10.668  11.435  64.610  1.00  0.00    -0.378 A  
HETATM    9  C   UNL     1      -9.464   9.701  65.792  1.00  0.00    -0.308 A  
HETATM   10  C   UNL     1     -11.048  11.092  66.969  1.00  0.00    -0.339 A  
HETATM   11  C   UNL     1      -9.739  10.396  64.612  1.00  0.00    -0.392 A  
HETATM   12  C   UNL     1     -11.323  11.783  65.788  1.00  0.00    -0.309 A  
ENDBRANCH   6   7
BRANCH   6  13
HETATM   13  O   UNL     1     -11.099   8.890  68.924  1.00  0.00     0.003 OA 
BRANCH  13  14
HETATM   14  C   UNL     1     -11.022   7.834  69.799  1.00  0.00    -0.158 A  
HETATM   15  C   UNL     1     -10.389   6.623  69.476  1.00  0.00    -0.232 A  
HETATM   16  C   UNL     1     -10.990   5.674  71.609  1.00  0.00    -0.277 A  
HETATM   17  C   UNL     1     -10.387   5.549  70.364  1.00  0.00    -0.346 A  
HETATM   18  C   UNL     1     -11.559   6.892  71.979  1.00  0.00    -0.322 A  
HETATM   19  C   UNL     1     -11.558   7.988  71.094  1.00  0.00    -0.307 A  
HETATM   20  C   UNL     1     -12.152   9.287  71.567  1.00  0.00    -0.435 C  
ENDBRANCH  13  14
ENDBRANCH   6  13
ENDBRANCH   5   6
ENDBRANCH   4   5
ENDBRANCH   2   4
TORSDOF 6
ENDMDL
MODEL      190
REMARK 921   NORMALIZED FREE ENERGY PREDICTED BY IDOCK:   -3.81 KCAL/MOL
REMARK 922        TOTAL FREE ENERGY PREDICTED BY IDOCK:   -5.93 KCAL/MOL
REMARK 923 INTER-LIGAND FREE ENERGY PREDICTED BY IDOCK:   -5.38 KCAL/MOL
REMARK 924 INTRA-LIGAND FREE ENERGY PREDICTED BY IDOCK:   -0.55 KCAL/MOL
REMARK 927      BINDING AFFINITY PREDICTED BY RF-SCORE:    0.00 PKD
ROOT
HETATM    1  C   UNL     1     -10.311  19.321  66.414  1.00  0.00    -0.471 C  
HETATM    2  N   UNL     1      -8.950  18.874  66.669  1.00  0.00    -0.313 NA 
HETATM    3  H   UNL     1      -8.476  19.489  67.330  1.00  0.00     0.000 HD 
ENDROOT
BRANCH   2   4
HETATM    4  C   UNL     1      -8.904  17.477  67.116  1.00  0.00    -0.238 C  
BRANCH   4   5
HETATM    5  C   UNL     1      -9.587  16.607  66.058  1.00  0.00    -0.298 C  
BRANCH   5   6
HETATM    6  C   UNL     1      -9.422  15.095  66.307  1.00  0.00    -0.309 C  
BRANCH   6   7
HETATM    7  C   UNL     1     -10.447  14.338  65.469  1.00  0.00    -0.361 A  
HETATM    8  C   UNL     1     -12.374  12.893  64.020  1.00  0.00    -0.457 A  
HETATM    9  C   UNL     1     -10.059  13.400  64.501  1.00  0.00    -0.220 A  
HETATM   10  C   UNL     1     -11.820  14.530  65.705  1.00  0.00    -0.327 A  
HETATM   11  C   UNL     1     -11.017  12.687  63.778  1.00  0.00    -0.481 A  
HETATM   12  C   UNL     1     -12.776  13.814  64.984  1.00  0.00    -0.379 A  
ENDBRANCH   6   7
BRANCH   6  13
HETATM   13  O   UNL     1      -9.541  14.791  67.712  1.00  0.00    -0.205 OA 
BRANCH  13  14
HETATM   14  C   UNL     1      -9.450  13.463  68.053  1.00  0.00    -0.218 A  
HETATM   15  C   UNL     1     -10.576  12.645  68.236  1.00  0.00    -0.250 A  
HETATM   16  C   UNL     1      -9.188  10.773  68.850  1.00  0.00    -0.180 A  
HETATM   17  C   UNL     1     -10.448  11.320  68.647  1.00  0.00    -0.226 A  
HETATM   18  C   UNL     1      -8.054  11.546  68.602  1.00  0.00    -0.132 A  
HETATM   19  C   UNL     1      -8.171  12.884  68.177  1.00  0.00    -0.163 A  
HETATM   20  C   UNL     1      -6.910  13.653  67.887  1.00  0.00    -0.155 C  
ENDBRANCH  13  14
ENDBRANCH   6  13
ENDBRANCH   5   6
ENDBRANCH   4   5
ENDBRANCH   2   4
TORSDOF 6
ENDMDL
MODEL      191
REMARK 921   NORMALIZED FREE ENERGY PREDICTED BY IDOCK:   -3.81 KCAL/MOL
REMARK 922        TOTAL FREE ENERGY PREDICTED BY IDOCK:   -5.93 KCAL/MOL
REMARK 923 INTER-LIGAND FREE ENERGY PREDICTED BY IDOCK:   -5.27 KCAL/MOL
REMARK 924 INTRA-LIGAND FREE ENERGY PREDICTED BY IDOCK:   -0.65 KCAL/MOL
REMARK 927      BINDING AFFINITY PREDICTED BY RF-SCORE:    0.00 PKD
ROOT
HETATM    1  C   UNL     1      -9.516   7.110  73.931  1.00  0.00    -0.257 C  
HETATM    2  N   UNL     1     -10.945   7.383  73.880  1.00  0.00    -0.489 NA 
HETATM    3  H   UNL     1     -11.271   7.808  74.748  1.00  0.00     0.000 HD 
ENDROOT
BRANCH   2   4
HETATM    4  C   UNL     1     -11.309   8.202  72.718  1.00  0.00    -0.336 C  
BRANCH   4   5
HETATM    5  C   UNL     1     -11.993   7.302  71.687  1.00  0.00    -0.341 C  
BRANCH   5   6
HETATM    6  C   UNL     1     -11.458   7.494  70.254  1.00  0.00    -0.152 C  
BRANCH   6   7
HETATM    7  C   UNL     1     -10.727   6.227  69.823  1.00  0.00    -0.358 A  
HETATM    8  C   UNL     1      -9.300   3.913  69.108  1.00  0.00    -0.240 A  
HETATM    9  C   UNL     1     -10.131   6.116  68.557  1.00  0.00    -0.193 A  
HETATM   10  C   UNL     1     -10.584   5.161  70.728  1.00  0.00    -0.205 A  
HETATM   11  C   UNL     1      -9.428   4.964  68.201  1.00  0.00    -0.178 A  
HETATM   12  C   UNL     1      -9.878   4.011  70.371  1.00  0.00    -0.209 A  
ENDBRANCH   6   7
BRANCH   6  13
HETATM   13  O   UNL     1     -10.613   8.661  70.175  1.00  0.00    -0.215 OA 
BRANCH  13  14
HETATM   14  C   UNL     1     -10.958   9.593  69.227  1.00  0.00    -0.168 A  
HETATM   15  C   UNL     1     -10.609   9.465  67.873  1.00  0.00    -0.293 A  
HETATM   16  C   UNL     1     -11.611  11.595  67.355  1.00  0.00    -0.330 A  
HETATM   17  C   UNL     1     -10.917  10.462  66.949  1.00  0.00    -0.167 A  
HETATM   18  C   UNL     1     -12.031  11.708  68.680  1.00  0.00    -0.311 A  
HETATM   19  C   UNL     1     -11.735  10.701  69.619  1.00  0.00    -0.368 A  
HETATM   20  C   UNL     1     -12.251  10.862  71.023  1.00  0.00    -0.464 C  
ENDBRANCH  13  14
ENDBRANCH   6  13
ENDBRANCH   5   6
ENDBRANCH   4   5
ENDBRANCH   2   4
TORSDOF 6
ENDMDL
MODEL      192
REMARK 921   NORMALIZED FREE ENERGY PREDICTED BY IDOCK:   -3.81 KCAL/MOL
REMARK 922        TOTAL FREE ENERGY PREDICTED BY IDOCK:   -5.92 KCAL/MOL
REMARK 923 INTER-LIGAND FREE ENERGY PREDICTED BY IDOCK:   -5.29 KCAL/MOL
REMARK 924 INTRA-LIGAND FREE ENERGY PREDICTED BY IDOCK:   -0.63 KCAL/MOL
REMARK 927      BINDING AFFINITY PREDICTED BY RF-SCORE:    0.00 PKD
ROOT
HETATM    1  C   UNL     1     -11.021   5.848  69.484  1.00  0.00    -0.368 C  
HETATM    2  N   UNL     1     -11.484   6.920  68.616  1.00  0.00    -0.481 NA 
HETATM    3  H   UNL     1     -11.593   7.793  69.133  1.00  0.00     0.000 HD 
ENDROOT
BRANCH   2   4
HETATM    4  C   UNL     1     -10.614   7.099  67.448  1.00  0.00    -0.302 C  
BRANCH   4   5
HETATM    5  C   UNL     1      -9.910   8.453  67.572  1.00  0.00    -0.235 C  
BRANCH   5   6
HETATM    6  C   UNL     1     -10.879   9.630  67.800  1.00  0.00    -0.217 C  
BRANCH   6   7
HETATM    7  C   UNL     1     -10.703  10.644  66.675  1.00  0.00    -0.246 A  
HETATM    8  C   UNL     1     -10.269  12.518  64.626  1.00  0.00    -0.315 A  
HETATM    9  C   UNL     1     -11.290  11.917  66.734  1.00  0.00    -0.393 A  
HETATM   10  C   UNL     1      -9.886  10.332  65.575  1.00  0.00    -0.347 A  
HETATM   11  C   UNL     1     -11.078  12.845  65.713  1.00  0.00    -0.312 A  
HETATM   12  C   UNL     1      -9.673  11.262  64.557  1.00  0.00    -0.293 A  
ENDBRANCH   6   7
BRANCH   6  13
HETATM   13  O   UNL     1     -10.669  10.221  69.100  1.00  0.00    -0.201 OA 
BRANCH  13  14
HETATM   14  C   UNL     1      -9.536   9.824  69.768  1.00  0.00    -0.230 A  
HETATM   15  C   UNL     1      -8.242  10.133  69.322  1.00  0.00    -0.156 A  
HETATM   16  C   UNL     1      -7.257   8.888  71.136  1.00  0.00    -0.111 A  
HETATM   17  C   UNL     1      -7.114   9.657  69.988  1.00  0.00    -0.104 A  
HETATM   18  C   UNL     1      -8.532   8.632  71.638  1.00  0.00    -0.230 A  
HETATM   19  C   UNL     1      -9.679   9.117  70.979  1.00  0.00    -0.359 A  
HETATM   20  C   UNL     1     -11.025   8.841  71.593  1.00  0.00    -0.391 C  
ENDBRANCH  13  14
ENDBRANCH   6  13
ENDBRANCH   5   6
ENDBRANCH   4   5
ENDBRANCH   2   4
TORSDOF 6
ENDMDL
MODEL      193
REMARK 921   NORMALIZED FREE ENERGY PREDICTED BY IDOCK:   -3.81 KCAL/MOL
REMARK 922        TOTAL FREE ENERGY PREDICTED BY IDOCK:   -5.92 KCAL/MOL
REMARK 923 INTER-LIGAND FREE ENERGY PREDICTED BY IDOCK:   -5.19 KCAL/MOL
REMARK 924 INTRA-LIGAND FREE ENERGY PREDICTED BY IDOCK:   -0.73 KCAL/MOL
REMARK 927      BINDING AFFINITY PREDICTED BY RF-SCORE:    0.00 PKD
ROOT
HETATM    1  C   UNL     1      -7.197  15.233  67.924  1.00  0.00    -0.143 C  
HETATM    2  N   UNL     1      -7.376  14.048  67.098  1.00  0.00    -0.330 NA 
HETATM    3  H   UNL     1      -6.624  13.955  66.416  1.00  0.00     0.000 HD 
ENDROOT
BRANCH   2   4
HETATM    4  C   UNL     1      -7.517  12.830  67.905  1.00  0.00    -0.127 C  
BRANCH   4   5
HETATM    5  C   UNL     1      -8.236  11.773  67.063  1.00  0.00    -0.172 C  
BRANCH   5   6
HETATM    6  C   UNL     1      -9.692  11.525  67.501  1.00  0.00    -0.179 C  
BRANCH   6   7
HETATM    7  C   UNL     1      -9.701  10.549  68.672  1.00  0.00    -0.175 A  
HETATM    8  C   UNL     1      -9.726   8.838  70.902  1.00  0.00    -0.277 A  
HETATM    9  C   UNL     1      -8.580   9.766  68.985  1.00  0.00    -0.146 A  
HETATM   10  C   UNL     1     -10.831  10.468  69.505  1.00  0.00    -0.298 A  
HETATM   11  C   UNL     1      -8.596   8.912  70.090  1.00  0.00    -0.161 A  
HETATM   12  C   UNL     1     -10.843   9.616  70.610  1.00  0.00    -0.386 A  
ENDBRANCH   6   7
BRANCH   6  13
HETATM   13  O   UNL     1     -10.486  11.049  66.394  1.00  0.00    -0.246 OA 
BRANCH  13  14
HETATM   14  C   UNL     1     -11.241  11.993  65.741  1.00  0.00    -0.334 A  
HETATM   15  C   UNL     1     -11.985  12.972  66.417  1.00  0.00    -0.466 A  
HETATM   16  C   UNL     1     -12.847  13.835  64.338  1.00  0.00     0.103 A  
HETATM   17  C   UNL     1     -12.792  13.873  65.725  1.00  0.00    -0.437 A  
HETATM   18  C   UNL     1     -12.058  12.918  63.643  1.00  0.00    -0.611 A  
HETATM   19  C   UNL     1     -11.230  12.010  64.331  1.00  0.00    -0.406 A  
HETATM   20  C   UNL     1     -10.373  11.073  63.524  1.00  0.00    -0.402 C  
ENDBRANCH  13  14
ENDBRANCH   6  13
ENDBRANCH   5   6
ENDBRANCH   4   5
ENDBRANCH   2   4
TORSDOF 6
ENDMDL
MODEL      194
REMARK 921   NORMALIZED FREE ENERGY PREDICTED BY IDOCK:   -3.81 KCAL/MOL
REMARK 922        TOTAL FREE ENERGY PREDICTED BY IDOCK:   -5.92 KCAL/MOL
REMARK 923 INTER-LIGAND FREE ENERGY PREDICTED BY IDOCK:   -4.65 KCAL/MOL
REMARK 924 INTRA-LIGAND FREE ENERGY PREDICTED BY IDOCK:   -1.27 KCAL/MOL
REMARK 927      BINDING AFFINITY PREDICTED BY RF-SCORE:    0.00 PKD
ROOT
HETATM    1  C   UNL     1     -11.157   6.111  70.264  1.00  0.00    -0.366 C  
HETATM    2  N   UNL     1     -11.532   6.943  69.130  1.00  0.00    -0.560 NA 
HETATM    3  H   UNL     1     -11.306   7.923  69.300  1.00  0.00     0.000 HD 
ENDROOT
BRANCH   2   4
HETATM    4  C   UNL     1     -10.932   6.469  67.877  1.00  0.00    -0.294 C  
BRANCH   4   5
HETATM    5  C   UNL     1     -10.660   7.681  66.982  1.00  0.00    -0.406 C  
BRANCH   5   6
HETATM    6  C   UNL     1      -9.989   8.853  67.724  1.00  0.00    -0.192 C  
BRANCH   6   7
HETATM    7  C   UNL     1     -10.532  10.167  67.173  1.00  0.00    -0.305 A  
HETATM    8  C   UNL     1     -11.427  12.624  66.141  1.00  0.00    -0.413 A  
HETATM    9  C   UNL     1     -11.242  11.067  67.983  1.00  0.00    -0.372 A  
HETATM   10  C   UNL     1     -10.269  10.527  65.840  1.00  0.00    -0.311 A  
HETATM   11  C   UNL     1     -11.691  12.284  67.467  1.00  0.00    -0.402 A  
HETATM   12  C   UNL     1     -10.716  11.746  65.327  1.00  0.00    -0.338 A  
ENDBRANCH   6   7
BRANCH   6  13
HETATM   13  O   UNL     1      -8.552   8.773  67.614  1.00  0.00    -0.126 OA 
BRANCH  13  14
HETATM   14  C   UNL     1      -7.844   9.018  68.765  1.00  0.00    -0.096 A  
HETATM   15  C   UNL     1      -7.743   8.085  69.809  1.00  0.00    -0.101 A  
HETATM   16  C   UNL     1      -6.457   9.629  71.141  1.00  0.00    -0.003 A  
HETATM   17  C   UNL     1      -7.072   8.392  70.991  1.00  0.00    -0.061 A  
HETATM   18  C   UNL     1      -6.482  10.542  70.088  1.00  0.00    -0.144 A  
HETATM   19  C   UNL     1      -7.148  10.238  68.884  1.00  0.00    -0.075 A  
HETATM   20  C   UNL     1      -7.104  11.249  67.770  1.00  0.00    -0.087 C  
ENDBRANCH  13  14
ENDBRANCH   6  13
ENDBRANCH   5   6
ENDBRANCH   4   5
ENDBRANCH   2   4
TORSDOF 6
ENDMDL
MODEL      195
REMARK 921   NORMALIZED FREE ENERGY PREDICTED BY IDOCK:   -3.80 KCAL/MOL
REMARK 922        TOTAL FREE ENERGY PREDICTED BY IDOCK:   -5.91 KCAL/MOL
REMARK 923 INTER-LIGAND FREE ENERGY PREDICTED BY IDOCK:   -5.10 KCAL/MOL
REMARK 924 INTRA-LIGAND FREE ENERGY PREDICTED BY IDOCK:   -0.82 KCAL/MOL
REMARK 927      BINDING AFFINITY PREDICTED BY RF-SCORE:    0.00 PKD
ROOT
HETATM    1  C   UNL     1      -7.856  18.624  67.177  1.00  0.00    -0.234 C  
HETATM    2  N   UNL     1      -9.099  17.866  67.180  1.00  0.00    -0.247 NA 
HETATM    3  H   UNL     1      -9.905  18.480  67.300  1.00  0.00     0.000 HD 
ENDROOT
BRANCH   2   4
HETATM    4  C   UNL     1      -9.239  17.032  65.981  1.00  0.00    -0.142 C  
BRANCH   4   5
HETATM    5  C   UNL     1     -10.377  16.035  66.216  1.00  0.00    -0.330 C  
BRANCH   5   6
HETATM    6  C   UNL     1      -9.904  14.571  66.295  1.00  0.00    -0.304 C  
BRANCH   6   7
HETATM    7  C   UNL     1     -10.733  13.728  65.332  1.00  0.00    -0.320 A  
HETATM    8  C   UNL     1     -12.290  12.106  63.644  1.00  0.00    -0.673 A  
HETATM    9  C   UNL     1     -10.136  12.993  64.297  1.00  0.00    -0.216 A  
HETATM   10  C   UNL     1     -12.123  13.625  65.513  1.00  0.00    -0.440 A  
HETATM   11  C   UNL     1     -10.911  12.192  63.455  1.00  0.00    -0.521 A  
HETATM   12  C   UNL     1     -12.896  12.822  64.673  1.00  0.00    -0.355 A  
ENDBRANCH   6   7
BRANCH   6  13
HETATM   13  O   UNL     1      -9.983  14.080  67.650  1.00  0.00    -0.231 OA 
BRANCH  13  14
HETATM   14  C   UNL     1      -8.818  14.125  68.377  1.00  0.00    -0.187 A  
HETATM   15  C   UNL     1      -8.440  15.240  69.140  1.00  0.00    -0.234 A  
HETATM   16  C   UNL     1      -6.365  14.184  69.762  1.00  0.00    -0.141 A  
HETATM   17  C   UNL     1      -7.219  15.278  69.812  1.00  0.00    -0.146 A  
HETATM   18  C   UNL     1      -6.754  13.037  69.071  1.00  0.00    -0.099 A  
HETATM   19  C   UNL     1      -7.990  12.984  68.397  1.00  0.00    -0.135 A  
HETATM   20  C   UNL     1      -8.370  11.704  67.703  1.00  0.00    -0.142 C  
ENDBRANCH  13  14
ENDBRANCH   6  13
ENDBRANCH   5   6
ENDBRANCH   4   5
ENDBRANCH   2   4
TORSDOF 6
ENDMDL
MODEL      196
REMARK 921   NORMALIZED FREE ENERGY PREDICTED BY IDOCK:   -3.80 KCAL/MOL
REMARK 922        TOTAL FREE ENERGY PREDICTED BY IDOCK:   -5.91 KCAL/MOL
REMARK 923 INTER-LIGAND FREE ENERGY PREDICTED BY IDOCK:   -4.91 KCAL/MOL
REMARK 924 INTRA-LIGAND FREE ENERGY PREDICTED BY IDOCK:   -1.00 KCAL/MOL
REMARK 927      BINDING AFFINITY PREDICTED BY RF-SCORE:    0.00 PKD
ROOT
HETATM    1  C   UNL     1      -9.937   7.597  66.663  1.00  0.00    -0.214 C  
HETATM    2  N   UNL     1      -8.873   7.784  65.687  1.00  0.00    -0.334 NA 
HETATM    3  H   UNL     1      -8.891   7.052  64.977  1.00  0.00     0.000 HD 
ENDROOT
BRANCH   2   4
HETATM    4  C   UNL     1      -8.913   9.118  65.078  1.00  0.00    -0.171 C  
BRANCH   4   5
HETATM    5  C   UNL     1     -10.065   9.904  65.710  1.00  0.00    -0.317 C  
BRANCH   5   6
HETATM    6  C   UNL     1      -9.669  11.329  66.145  1.00  0.00    -0.220 C  
BRANCH   6   7
HETATM    7  C   UNL     1      -8.702  11.239  67.320  1.00  0.00    -0.145 A  
HETATM    8  C   UNL     1      -6.849  11.011  69.422  1.00  0.00    -0.119 A  
HETATM    9  C   UNL     1      -9.045  10.574  68.507  1.00  0.00    -0.154 A  
HETATM   10  C   UNL     1      -7.408  11.777  67.202  1.00  0.00    -0.146 A  
HETATM   11  C   UNL     1      -8.126  10.467  69.553  1.00  0.00    -0.145 A  
HETATM   12  C   UNL     1      -6.490  11.666  68.247  1.00  0.00    -0.051 A  
ENDBRANCH   6   7
BRANCH   6  13
HETATM   13  O   UNL     1     -10.840  12.109  66.466  1.00  0.00    -0.249 OA 
BRANCH  13  14
HETATM   14  C   UNL     1     -10.930  13.340  65.861  1.00  0.00    -0.274 A  
HETATM   15  C   UNL     1     -10.130  14.431  66.235  1.00  0.00    -0.308 A  
HETATM   16  C   UNL     1     -11.240  15.862  64.644  1.00  0.00    -0.361 A  
HETATM   17  C   UNL     1     -10.294  15.683  65.645  1.00  0.00    -0.408 A  
HETATM   18  C   UNL     1     -11.993  14.773  64.206  1.00  0.00    -0.387 A  
HETATM   19  C   UNL     1     -11.829  13.501  64.787  1.00  0.00    -0.412 A  
HETATM   20  C   UNL     1     -12.642  12.358  64.244  1.00  0.00    -0.494 C  
ENDBRANCH  13  14
ENDBRANCH   6  13
ENDBRANCH   5   6
ENDBRANCH   4   5
ENDBRANCH   2   4
TORSDOF 6
ENDMDL
MODEL      197
REMARK 921   NORMALIZED FREE ENERGY PREDICTED BY IDOCK:   -3.79 KCAL/MOL
REMARK 922        TOTAL FREE ENERGY PREDICTED BY IDOCK:   -5.89 KCAL/MOL
REMARK 923 INTER-LIGAND FREE ENERGY PREDICTED BY IDOCK:   -5.05 KCAL/MOL
REMARK 924 INTRA-LIGAND FREE ENERGY PREDICTED BY IDOCK:   -0.84 KCAL/MOL
REMARK 927      BINDING AFFINITY PREDICTED BY RF-SCORE:    0.00 PKD
ROOT
HETATM    1  C   UNL     1     -11.899  10.552  70.465  1.00  0.00    -0.347 C  
HETATM    2  N   UNL     1     -11.557  11.902  70.045  1.00  0.00    -0.501 NA 
HETATM    3  H   UNL     1     -10.588  12.126  70.274  1.00  0.00     0.000 HD 
ENDROOT
BRANCH   2   4
HETATM    4  C   UNL     1     -11.830  12.123  68.620  1.00  0.00    -0.306 C  
BRANCH   4   5
HETATM    5  C   UNL     1     -10.871  11.254  67.803  1.00  0.00    -0.284 C  
BRANCH   5   6
HETATM    6  C   UNL     1     -10.411  11.916  66.490  1.00  0.00    -0.216 C  
BRANCH   6   7
HETATM    7  C   UNL     1      -9.445  10.978  65.773  1.00  0.00    -0.242 A  
HETATM    8  C   UNL     1      -7.601   9.341  64.424  1.00  0.00    -0.115 A  
HETATM    9  C   UNL     1      -9.825  10.270  64.623  1.00  0.00    -0.396 A  
HETATM   10  C   UNL     1      -8.120  10.859  66.227  1.00  0.00    -0.165 A  
HETATM   11  C   UNL     1      -8.909   9.453  63.957  1.00  0.00    -0.210 A  
HETATM   12  C   UNL     1      -7.206  10.044  65.559  1.00  0.00    -0.133 A  
ENDBRANCH   6   7
BRANCH   6  13
HETATM   13  O   UNL     1      -9.820  13.207  66.747  1.00  0.00    -0.238 OA 
BRANCH  13  14
HETATM   14  C   UNL     1     -10.350  14.264  66.047  1.00  0.00    -0.309 A  
HETATM   15  C   UNL     1     -11.326  14.103  65.051  1.00  0.00    -0.350 A  
HETATM   16  C   UNL     1     -11.318  16.467  64.580  1.00  0.00    -0.166 A  
HETATM   17  C   UNL     1     -11.794  15.189  64.314  1.00  0.00    -0.263 A  
HETATM   18  C   UNL     1     -10.403  16.659  65.615  1.00  0.00    -0.310 A  
HETATM   19  C   UNL     1      -9.932  15.569  66.374  1.00  0.00    -0.300 A  
HETATM   20  C   UNL     1      -8.977  15.847  67.503  1.00  0.00    -0.201 C  
ENDBRANCH  13  14
ENDBRANCH   6  13
ENDBRANCH   5   6
ENDBRANCH   4   5
ENDBRANCH   2   4
TORSDOF 6
ENDMDL
MODEL      198
REMARK 921   NORMALIZED FREE ENERGY PREDICTED BY IDOCK:   -3.79 KCAL/MOL
REMARK 922        TOTAL FREE ENERGY PREDICTED BY IDOCK:   -5.89 KCAL/MOL
REMARK 923 INTER-LIGAND FREE ENERGY PREDICTED BY IDOCK:   -4.99 KCAL/MOL
REMARK 924 INTRA-LIGAND FREE ENERGY PREDICTED BY IDOCK:   -0.90 KCAL/MOL
REMARK 927      BINDING AFFINITY PREDICTED BY RF-SCORE:    0.00 PKD
ROOT
HETATM    1  C   UNL     1      -6.668   8.092  69.459  1.00  0.00    -0.038 C  
HETATM    2  N   UNL     1      -6.509   9.254  68.597  1.00  0.00    -0.052 NA 
HETATM    3  H   UNL     1      -5.697   9.154  67.988  1.00  0.00     0.000 HD 
ENDROOT
BRANCH   2   4
HETATM    4  C   UNL     1      -7.723   9.537  67.823  1.00  0.00    -0.088 C  
BRANCH   4   5
HETATM    5  C   UNL     1      -8.648  10.410  68.675  1.00  0.00    -0.133 C  
BRANCH   5   6
HETATM    6  C   UNL     1     -10.140  10.058  68.519  1.00  0.00    -0.169 C  
BRANCH   6   7
HETATM    7  C   UNL     1     -10.367   8.628  68.997  1.00  0.00    -0.226 A  
HETATM    8  C   UNL     1     -10.893   5.999  69.841  1.00  0.00    -0.434 A  
HETATM    9  C   UNL     1     -10.320   8.291  70.358  1.00  0.00    -0.214 A  
HETATM   10  C   UNL     1     -10.695   7.625  68.067  1.00  0.00    -0.152 A  
HETATM   11  C   UNL     1     -10.576   6.984  70.775  1.00  0.00    -0.240 A  
HETATM   12  C   UNL     1     -10.953   6.320  68.487  1.00  0.00    -0.421 A  
ENDBRANCH   6   7
BRANCH   6  13
HETATM   13  O   UNL     1     -10.569  10.247  67.154  1.00  0.00    -0.247 OA 
BRANCH  13  14
HETATM   14  C   UNL     1     -11.073  11.488  66.846  1.00  0.00    -0.307 A  
HETATM   15  C   UNL     1     -11.642  12.338  67.807  1.00  0.00    -0.416 A  
HETATM   16  C   UNL     1     -12.178  13.978  66.123  1.00  0.00    -0.494 A  
HETATM   17  C   UNL     1     -12.203  13.563  67.448  1.00  0.00    -0.278 A  
HETATM   18  C   UNL     1     -11.551  13.182  65.164  1.00  0.00    -0.347 A  
HETATM   19  C   UNL     1     -10.971  11.948  65.517  1.00  0.00    -0.347 A  
HETATM   20  C   UNL     1     -10.275  11.154  64.444  1.00  0.00    -0.390 C  
ENDBRANCH  13  14
ENDBRANCH   6  13
ENDBRANCH   5   6
ENDBRANCH   4   5
ENDBRANCH   2   4
TORSDOF 6
ENDMDL
MODEL      199
REMARK 921   NORMALIZED FREE ENERGY PREDICTED BY IDOCK:   -3.70 KCAL/MOL
REMARK 922        TOTAL FREE ENERGY PREDICTED BY IDOCK:   -5.78 KCAL/MOL
REMARK 923 INTER-LIGAND FREE ENERGY PREDICTED BY IDOCK:   -4.83 KCAL/MOL
REMARK 924 INTRA-LIGAND FREE ENERGY PREDICTED BY IDOCK:   -0.95 KCAL/MOL
REMARK 927      BINDING AFFINITY PREDICTED BY RF-SCORE:    0.00 PKD
ROOT
HETATM    1  C   UNL     1      -7.992   8.301  69.540  1.00  0.00    -0.112 C  
HETATM    2  N   UNL     1      -8.977   8.305  68.469  1.00  0.00    -0.137 NA 
HETATM    3  H   UNL     1      -9.407   7.387  68.359  1.00  0.00     0.000 HD 
ENDROOT
BRANCH   2   4
HETATM    4  C   UNL     1      -9.992   9.348  68.656  1.00  0.00    -0.173 C  
BRANCH   4   5
HETATM    5  C   UNL     1     -10.754   9.523  67.341  1.00  0.00    -0.297 C  
BRANCH   5   6
HETATM    6  C   UNL     1     -10.558  10.910  66.698  1.00  0.00    -0.249 C  
BRANCH   6   7
HETATM    7  C   UNL     1      -9.849  10.741  65.358  1.00  0.00    -0.317 A  
HETATM    8  C   UNL     1      -8.625  10.358  62.857  1.00  0.00    -0.197 A  
HETATM    9  C   UNL     1      -8.577  10.158  65.267  1.00  0.00    -0.169 A  
HETATM   10  C   UNL     1     -10.502  11.119  64.171  1.00  0.00    -0.442 A  
HETATM   11  C   UNL     1      -7.967   9.973  64.024  1.00  0.00    -0.151 A  
HETATM   12  C   UNL     1      -9.892  10.930  62.930  1.00  0.00    -0.313 A  
ENDBRANCH   6   7
BRANCH   6  13
HETATM   13  O   UNL     1      -9.834  11.788  67.586  1.00  0.00    -0.180 OA 
BRANCH  13  14
HETATM   14  C   UNL     1     -10.087  13.131  67.445  1.00  0.00    -0.229 A  
HETATM   15  C   UNL     1      -9.467  13.923  66.466  1.00  0.00    -0.288 A  
HETATM   16  C   UNL     1     -10.578  15.901  67.281  1.00  0.00    -0.314 A  
HETATM   17  C   UNL     1      -9.696  15.296  66.394  1.00  0.00    -0.308 A  
HETATM   18  C   UNL     1     -11.261  15.121  68.212  1.00  0.00    -0.315 A  
HETATM   19  C   UNL     1     -11.045  13.731  68.287  1.00  0.00    -0.279 A  
HETATM   20  C   UNL     1     -11.842  12.938  69.287  1.00  0.00    -0.363 C  
ENDBRANCH  13  14
ENDBRANCH   6  13
ENDBRANCH   5   6
ENDBRANCH   4   5
ENDBRANCH   2   4
TORSDOF 6
ENDMDL
MODEL      200
REMARK 921   NORMALIZED FREE ENERGY PREDICTED BY IDOCK:   -3.68 KCAL/MOL
REMARK 922        TOTAL FREE ENERGY PREDICTED BY IDOCK:   -5.75 KCAL/MOL
REMARK 923 INTER-LIGAND FREE ENERGY PREDICTED BY IDOCK:   -4.87 KCAL/MOL
REMARK 924 INTRA-LIGAND FREE ENERGY PREDICTED BY IDOCK:   -0.88 KCAL/MOL
REMARK 927      BINDING AFFINITY PREDICTED BY RF-SCORE:    0.00 PKD
ROOT
HETATM    1  C   UNL     1     -13.271  11.887  71.969  1.00  0.00    -0.356 C  
HETATM    2  N   UNL     1     -13.300  10.437  72.093  1.00  0.00    -0.567 NA 
HETATM    3  H   UNL     1     -14.251  10.098  72.237  1.00  0.00     0.000 HD 
ENDROOT
BRANCH   2   4
HETATM    4  C   UNL     1     -12.667   9.773  70.948  1.00  0.00    -0.247 C  
BRANCH   4   5
HETATM    5  C   UNL     1     -11.304  10.426  70.703  1.00  0.00    -0.411 C  
BRANCH   5   6
HETATM    6  C   UNL     1     -10.312   9.514  69.956  1.00  0.00    -0.247 C  
BRANCH   6   7
HETATM    7  C   UNL     1      -9.941  10.164  68.628  1.00  0.00    -0.181 A  
HETATM    8  C   UNL     1      -9.292  11.269  66.126  1.00  0.00    -0.230 A  
HETATM    9  C   UNL     1      -8.612  10.481  68.310  1.00  0.00    -0.127 A  
HETATM   10  C   UNL     1     -10.937  10.400  67.664  1.00  0.00    -0.374 A  
HETATM   11  C   UNL     1      -8.292  11.035  67.068  1.00  0.00    -0.137 A  
HETATM   12  C   UNL     1     -10.614  10.951  66.424  1.00  0.00    -0.289 A  
ENDBRANCH   6   7
BRANCH   6  13
HETATM   13  O   UNL     1     -10.867   8.193  69.776  1.00  0.00    -0.245 OA 
BRANCH  13  14
HETATM   14  C   UNL     1     -10.075   7.146  70.179  1.00  0.00    -0.188 A  
HETATM   15  C   UNL     1      -8.796   6.910  69.650  1.00  0.00    -0.141 A  
HETATM   16  C   UNL     1      -8.548   4.917  70.981  1.00  0.00    -0.131 A  
HETATM   17  C   UNL     1      -8.047   5.800  70.033  1.00  0.00    -0.108 A  
HETATM   18  C   UNL     1      -9.784   5.172  71.575  1.00  0.00    -0.221 A  
HETATM   19  C   UNL     1     -10.545   6.298  71.203  1.00  0.00    -0.289 A  
HETATM   20  C   UNL     1     -11.852   6.540  71.908  1.00  0.00    -0.381 C  
ENDBRANCH  13  14
ENDBRANCH   6  13
ENDBRANCH   5   6
ENDBRANCH   4   5
ENDBRANCH   2   4
TORSDOF 6
ENDMDL
MODEL      201
REMARK 921   NORMALIZED FREE ENERGY PREDICTED BY IDOCK:   -3.65 KCAL/MOL
REMARK 922        TOTAL FREE ENERGY PREDICTED BY IDOCK:   -5.71 KCAL/MOL
REMARK 923 INTER-LIGAND FREE ENERGY PREDICTED BY IDOCK:   -5.60 KCAL/MOL
REMARK 924 INTRA-LIGAND FREE ENERGY PREDICTED BY IDOCK:   -0.11 KCAL/MOL
REMARK 927      BINDING AFFINITY PREDICTED BY RF-SCORE:    0.00 PKD
ROOT
HETATM    1  C   UNL     1     -11.904  14.519  69.586  1.00  0.00    -0.318 C  
HETATM    2  N   UNL     1     -11.863  13.355  70.459  1.00  0.00    -0.536 NA 
HETATM    3  H   UNL     1     -12.554  13.429  71.206  1.00  0.00     0.000 HD 
ENDROOT
BRANCH   2   4
HETATM    4  C   UNL     1     -12.018  12.101  69.713  1.00  0.00    -0.302 C  
BRANCH   4   5
HETATM    5  C   UNL     1     -11.322  12.255  68.358  1.00  0.00    -0.340 C  
BRANCH   5   6
HETATM    6  C   UNL     1     -11.247  10.942  67.554  1.00  0.00    -0.293 C  
BRANCH   6   7
HETATM    7  C   UNL     1     -10.296   9.981  68.259  1.00  0.00    -0.224 A  
HETATM    8  C   UNL     1      -8.461   8.240  69.484  1.00  0.00    -0.125 A  
HETATM    9  C   UNL     1     -10.510   8.594  68.249  1.00  0.00    -0.234 A  
HETATM   10  C   UNL     1      -9.139  10.478  68.885  1.00  0.00    -0.180 A  
HETATM   11  C   UNL     1      -9.600   7.731  68.863  1.00  0.00    -0.154 A  
HETATM   12  C   UNL     1      -8.230   9.613  69.495  1.00  0.00    -0.136 A  
ENDBRANCH   6   7
BRANCH   6  13
HETATM   13  O   UNL     1     -10.846  11.199  66.192  1.00  0.00    -0.253 OA 
BRANCH  13  14
HETATM   14  C   UNL     1     -10.684  12.519  65.848  1.00  0.00    -0.264 A  
HETATM   15  C   UNL     1      -9.642  13.313  66.351  1.00  0.00    -0.260 A  
HETATM   16  C   UNL     1     -10.474  15.248  65.179  1.00  0.00    -0.438 A  
HETATM   17  C   UNL     1      -9.546  14.667  66.034  1.00  0.00    -0.322 A  
HETATM   18  C   UNL     1     -11.474  14.460  64.610  1.00  0.00    -0.390 A  
HETATM   19  C   UNL     1     -11.574  13.089  64.915  1.00  0.00    -0.362 A  
HETATM   20  C   UNL     1     -12.650  12.284  64.237  1.00  0.00    -0.470 C  
ENDBRANCH  13  14
ENDBRANCH   6  13
ENDBRANCH   5   6
ENDBRANCH   4   5
ENDBRANCH   2   4
TORSDOF 6
ENDMDL
MODEL      202
REMARK 921   NORMALIZED FREE ENERGY PREDICTED BY IDOCK:   -3.65 KCAL/MOL
REMARK 922        TOTAL FREE ENERGY PREDICTED BY IDOCK:   -5.71 KCAL/MOL
REMARK 923 INTER-LIGAND FREE ENERGY PREDICTED BY IDOCK:   -4.84 KCAL/MOL
REMARK 924 INTRA-LIGAND FREE ENERGY PREDICTED BY IDOCK:   -0.87 KCAL/MOL
REMARK 927      BINDING AFFINITY PREDICTED BY RF-SCORE:    0.00 PKD
ROOT
HETATM    1  C   UNL     1     -10.891   6.332  72.970  1.00  0.00    -0.259 C  
HETATM    2  N   UNL     1     -12.110   6.411  72.179  1.00  0.00    -0.462 NA 
HETATM    3  H   UNL     1     -12.907   6.681  72.754  1.00  0.00     0.000 HD 
ENDROOT
BRANCH   2   4
HETATM    4  C   UNL     1     -11.960   7.305  71.024  1.00  0.00    -0.327 C  
BRANCH   4   5
HETATM    5  C   UNL     1     -11.335   6.509  69.875  1.00  0.00    -0.469 C  
BRANCH   5   6
HETATM    6  C   UNL     1     -10.380   7.344  68.999  1.00  0.00    -0.210 C  
BRANCH   6   7
HETATM    7  C   UNL     1      -8.942   6.943  69.310  1.00  0.00    -0.137 A  
HETATM    8  C   UNL     1      -6.263   6.313  69.881  1.00  0.00    -0.031 A  
HETATM    9  C   UNL     1      -8.169   6.210  68.396  1.00  0.00    -0.115 A  
HETATM   10  C   UNL     1      -8.344   7.364  70.510  1.00  0.00    -0.132 A  
HETATM   11  C   UNL     1      -6.840   5.893  68.684  1.00  0.00    -0.066 A  
HETATM   12  C   UNL     1      -7.014   7.049  70.794  1.00  0.00    -0.065 A  
ENDBRANCH   6   7
BRANCH   6  13
HETATM   13  O   UNL     1     -10.604   8.755  69.200  1.00  0.00    -0.224 OA 
BRANCH  13  14
HETATM   14  C   UNL     1     -10.606   9.533  68.068  1.00  0.00    -0.230 A  
HETATM   15  C   UNL     1     -10.101   9.087  66.837  1.00  0.00    -0.338 A  
HETATM   16  C   UNL     1     -10.551  11.221  65.812  1.00  0.00    -0.306 A  
HETATM   17  C   UNL     1     -10.058   9.926  65.725  1.00  0.00    -0.317 A  
HETATM   18  C   UNL     1     -11.125  11.661  67.005  1.00  0.00    -0.359 A  
HETATM   19  C   UNL     1     -11.183  10.818  68.131  1.00  0.00    -0.365 A  
HETATM   20  C   UNL     1     -11.851  11.337  69.376  1.00  0.00    -0.424 C  
ENDBRANCH  13  14
ENDBRANCH   6  13
ENDBRANCH   5   6
ENDBRANCH   4   5
ENDBRANCH   2   4
TORSDOF 6
ENDMDL
MODEL      203
REMARK 921   NORMALIZED FREE ENERGY PREDICTED BY IDOCK:   -3.64 KCAL/MOL
REMARK 922        TOTAL FREE ENERGY PREDICTED BY IDOCK:   -5.70 KCAL/MOL
REMARK 923 INTER-LIGAND FREE ENERGY PREDICTED BY IDOCK:   -5.31 KCAL/MOL
REMARK 924 INTRA-LIGAND FREE ENERGY PREDICTED BY IDOCK:   -0.39 KCAL/MOL
REMARK 927      BINDING AFFINITY PREDICTED BY RF-SCORE:    0.00 PKD
ROOT
HETATM    1  C   UNL     1      -6.284  10.311  65.242  1.00  0.00    -0.127 C  
HETATM    2  N   UNL     1      -6.543  11.381  66.194  1.00  0.00    -0.367 NA 
HETATM    3  H   UNL     1      -6.274  12.287  65.813  1.00  0.00     0.000 HD 
ENDROOT
BRANCH   2   4
HETATM    4  C   UNL     1      -7.939  11.388  66.649  1.00  0.00    -0.148 C  
BRANCH   4   5
HETATM    5  C   UNL     1      -8.269  12.787  67.173  1.00  0.00    -0.146 C  
BRANCH   5   6
HETATM    6  C   UNL     1      -9.714  12.923  67.692  1.00  0.00    -0.212 C  
BRANCH   6   7
HETATM    7  C   UNL     1     -10.594  13.472  66.574  1.00  0.00    -0.281 A  
HETATM    8  C   UNL     1     -12.197  14.589  64.553  1.00  0.00    -0.483 A  
HETATM    9  C   UNL     1     -11.967  13.190  66.512  1.00  0.00    -0.459 A  
HETATM   10  C   UNL     1     -10.042  14.334  65.610  1.00  0.00    -0.364 A  
HETATM   11  C   UNL     1     -12.761  13.741  65.504  1.00  0.00    -0.530 A  
HETATM   12  C   UNL     1     -10.838  14.886  64.606  1.00  0.00    -0.296 A  
ENDBRANCH   6   7
BRANCH   6  13
HETATM   13  O   UNL     1      -9.759  13.752  68.872  1.00  0.00    -0.114 OA 
BRANCH  13  14
HETATM   14  C   UNL     1      -9.506  15.088  68.681  1.00  0.00    -0.212 A  
HETATM   15  C   UNL     1      -8.266  15.572  68.234  1.00  0.00    -0.142 A  
HETATM   16  C   UNL     1      -9.027  17.852  68.410  1.00  0.00    -0.285 A  
HETATM   17  C   UNL     1      -8.023  16.939  68.115  1.00  0.00    -0.195 A  
HETATM   18  C   UNL     1     -10.288  17.391  68.785  1.00  0.00    -0.357 A  
HETATM   19  C   UNL     1     -10.549  16.012  68.898  1.00  0.00    -0.257 A  
HETATM   20  C   UNL     1     -11.941  15.577  69.268  1.00  0.00    -0.338 C  
ENDBRANCH  13  14
ENDBRANCH   6  13
ENDBRANCH   5   6
ENDBRANCH   4   5
ENDBRANCH   2   4
TORSDOF 6
ENDMDL
MODEL      204
REMARK 921   NORMALIZED FREE ENERGY PREDICTED BY IDOCK:   -3.61 KCAL/MOL
REMARK 922        TOTAL FREE ENERGY PREDICTED BY IDOCK:   -5.65 KCAL/MOL
REMARK 923 INTER-LIGAND FREE ENERGY PREDICTED BY IDOCK:   -5.17 KCAL/MOL
REMARK 924 INTRA-LIGAND FREE ENERGY PREDICTED BY IDOCK:   -0.48 KCAL/MOL
REMARK 927      BINDING AFFINITY PREDICTED BY RF-SCORE:    0.00 PKD
ROOT
HETATM    1  C   UNL     1     -10.456  17.328  67.050  1.00  0.00    -0.287 C  
HETATM    2  N   UNL     1     -10.688  16.776  68.376  1.00  0.00    -0.348 NA 
HETATM    3  H   UNL     1     -11.675  16.562  68.520  1.00  0.00     0.000 HD 
ENDROOT
BRANCH   2   4
HETATM    4  C   UNL     1      -9.846  15.604  68.641  1.00  0.00    -0.210 C  
BRANCH   4   5
HETATM    5  C   UNL     1     -10.497  14.382  67.987  1.00  0.00    -0.237 C  
BRANCH   5   6
HETATM    6  C   UNL     1      -9.676  13.799  66.821  1.00  0.00    -0.275 C  
BRANCH   6   7
HETATM    7  C   UNL     1     -10.630  13.249  65.766  1.00  0.00    -0.291 A  
HETATM    8  C   UNL     1     -12.378  12.334  63.764  1.00  0.00    -0.637 A  
HETATM    9  C   UNL     1     -11.972  12.968  66.062  1.00  0.00    -0.498 A  
HETATM   10  C   UNL     1     -10.183  13.075  64.444  1.00  0.00    -0.335 A  
HETATM   11  C   UNL     1     -12.838  12.508  65.068  1.00  0.00    -0.127 A  
HETATM   12  C   UNL     1     -11.051  12.618  63.452  1.00  0.00    -0.354 A  
ENDBRANCH   6   7
BRANCH   6  13
HETATM   13  O   UNL     1      -8.757  12.793  67.296  1.00  0.00    -0.183 OA 
BRANCH  13  14
HETATM   14  C   UNL     1      -9.309  11.580  67.629  1.00  0.00    -0.171 A  
HETATM   15  C   UNL     1     -10.251  11.430  68.658  1.00  0.00    -0.217 A  
HETATM   16  C   UNL     1     -10.323   9.044  68.325  1.00  0.00    -0.252 A  
HETATM   17  C   UNL     1     -10.741  10.175  69.014  1.00  0.00    -0.249 A  
HETATM   18  C   UNL     1      -9.443   9.179  67.251  1.00  0.00    -0.187 A  
HETATM   19  C   UNL     1      -8.950  10.444  66.876  1.00  0.00    -0.151 A  
HETATM   20  C   UNL     1      -8.036  10.528  65.683  1.00  0.00    -0.161 C  
ENDBRANCH  13  14
ENDBRANCH   6  13
ENDBRANCH   5   6
ENDBRANCH   4   5
ENDBRANCH   2   4
TORSDOF 6
ENDMDL
MODEL      205
REMARK 921   NORMALIZED FREE ENERGY PREDICTED BY IDOCK:   -3.60 KCAL/MOL
REMARK 922        TOTAL FREE ENERGY PREDICTED BY IDOCK:   -5.64 KCAL/MOL
REMARK 923 INTER-LIGAND FREE ENERGY PREDICTED BY IDOCK:   -4.78 KCAL/MOL
REMARK 924 INTRA-LIGAND FREE ENERGY PREDICTED BY IDOCK:   -0.86 KCAL/MOL
REMARK 927      BINDING AFFINITY PREDICTED BY RF-SCORE:    0.00 PKD
ROOT
HETATM    1  C   UNL     1      -9.851   7.070  71.726  1.00  0.00    -0.162 C  
HETATM    2  N   UNL     1      -9.787   8.238  70.861  1.00  0.00    -0.179 NA 
HETATM    3  H   UNL     1      -9.982   7.991  69.891  1.00  0.00     0.000 HD 
ENDROOT
BRANCH   2   4
HETATM    4  C   UNL     1     -10.671   9.315  71.322  1.00  0.00    -0.352 C  
BRANCH   4   5
HETATM    5  C   UNL     1     -11.562   9.744  70.154  1.00  0.00    -0.239 C  
BRANCH   5   6
HETATM    6  C   UNL     1     -10.773  10.293  68.950  1.00  0.00    -0.227 C  
BRANCH   6   7
HETATM    7  C   UNL     1     -10.898  11.813  68.924  1.00  0.00    -0.265 A  
HETATM    8  C   UNL     1     -11.234  14.602  68.833  1.00  0.00    -0.285 A  
HETATM    9  C   UNL     1     -10.083  12.605  68.101  1.00  0.00    -0.231 A  
HETATM   10  C   UNL     1     -11.893  12.444  69.692  1.00  0.00    -0.380 A  
HETATM   11  C   UNL     1     -10.248  13.991  68.061  1.00  0.00    -0.238 A  
HETATM   12  C   UNL     1     -12.057  13.829  69.648  1.00  0.00    -0.392 A  
ENDBRANCH   6   7
BRANCH   6  13
HETATM   13  O   UNL     1     -11.230   9.692  67.720  1.00  0.00    -0.142 OA 
BRANCH  13  14
HETATM   14  C   UNL     1     -10.448   8.681  67.215  1.00  0.00    -0.289 A  
HETATM   15  C   UNL     1     -10.539   7.354  67.661  1.00  0.00    -0.309 A  
HETATM   16  C   UNL     1      -8.740   6.681  66.205  1.00  0.00    -0.154 A  
HETATM   17  C   UNL     1      -9.684   6.367  67.174  1.00  0.00    -0.170 A  
HETATM   18  C   UNL     1      -8.682   7.977  65.695  1.00  0.00    -0.156 A  
HETATM   19  C   UNL     1      -9.549   8.980  66.172  1.00  0.00    -0.341 A  
HETATM   20  C   UNL     1      -9.464  10.349  65.553  1.00  0.00    -0.267 C  
ENDBRANCH  13  14
ENDBRANCH   6  13
ENDBRANCH   5   6
ENDBRANCH   4   5
ENDBRANCH   2   4
TORSDOF 6
ENDMDL
MODEL      206
REMARK 921   NORMALIZED FREE ENERGY PREDICTED BY IDOCK:   -3.59 KCAL/MOL
REMARK 922        TOTAL FREE ENERGY PREDICTED BY IDOCK:   -5.63 KCAL/MOL
REMARK 923 INTER-LIGAND FREE ENERGY PREDICTED BY IDOCK:   -4.53 KCAL/MOL
REMARK 924 INTRA-LIGAND FREE ENERGY PREDICTED BY IDOCK:   -1.10 KCAL/MOL
REMARK 927      BINDING AFFINITY PREDICTED BY RF-SCORE:    0.00 PKD
ROOT
HETATM    1  C   UNL     1     -10.675  13.210  66.447  1.00  0.00    -0.284 C  
HETATM    2  N   UNL     1      -9.644  12.520  67.208  1.00  0.00    -0.200 NA 
HETATM    3  H   UNL     1      -9.749  12.686  68.209  1.00  0.00     0.000 HD 
ENDROOT
BRANCH   2   4
HETATM    4  C   UNL     1      -9.606  11.084  66.909  1.00  0.00    -0.182 C  
BRANCH   4   5
HETATM    5  C   UNL     1      -8.777  10.386  67.990  1.00  0.00    -0.123 C  
BRANCH   5   6
HETATM    6  C   UNL     1      -9.585  10.046  69.258  1.00  0.00    -0.216 C  
BRANCH   6   7
HETATM    7  C   UNL     1      -9.150   8.677  69.772  1.00  0.00    -0.150 A  
HETATM    8  C   UNL     1      -8.451   6.115  70.691  1.00  0.00    -0.134 A  
HETATM    9  C   UNL     1      -8.884   8.453  71.131  1.00  0.00    -0.201 A  
HETATM   10  C   UNL     1      -9.071   7.591  68.884  1.00  0.00    -0.140 A  
HETATM   11  C   UNL     1      -8.531   7.180  71.585  1.00  0.00    -0.114 A  
HETATM   12  C   UNL     1      -8.721   6.319  69.340  1.00  0.00    -0.128 A  
ENDBRANCH   6   7
BRANCH   6  13
HETATM   13  O   UNL     1     -11.002  10.098  68.991  1.00  0.00    -0.218 OA 
BRANCH  13  14
HETATM   14  C   UNL     1     -11.743  10.905  69.821  1.00  0.00    -0.338 A  
HETATM   15  C   UNL     1     -11.838  12.294  69.647  1.00  0.00    -0.393 A  
HETATM   16  C   UNL     1     -13.199  12.508  71.624  1.00  0.00    -0.381 A  
HETATM   17  C   UNL     1     -12.544  13.090  70.547  1.00  0.00    -0.220 A  
HETATM   18  C   UNL     1     -13.179  11.122  71.775  1.00  0.00    -0.486 A  
HETATM   19  C   UNL     1     -12.477  10.307  70.865  1.00  0.00    -0.466 A  
HETATM   20  C   UNL     1     -12.527   8.815  71.059  1.00  0.00    -0.152 C  
ENDBRANCH  13  14
ENDBRANCH   6  13
ENDBRANCH   5   6
ENDBRANCH   4   5
ENDBRANCH   2   4
TORSDOF 6
ENDMDL
MODEL      207
REMARK 921   NORMALIZED FREE ENERGY PREDICTED BY IDOCK:   -3.59 KCAL/MOL
REMARK 922        TOTAL FREE ENERGY PREDICTED BY IDOCK:   -5.63 KCAL/MOL
REMARK 923 INTER-LIGAND FREE ENERGY PREDICTED BY IDOCK:   -4.85 KCAL/MOL
REMARK 924 INTRA-LIGAND FREE ENERGY PREDICTED BY IDOCK:   -0.78 KCAL/MOL
REMARK 927      BINDING AFFINITY PREDICTED BY RF-SCORE:    0.00 PKD
ROOT
HETATM    1  C   UNL     1      -9.449  17.559  67.954  1.00  0.00    -0.277 C  
HETATM    2  N   UNL     1      -8.989  16.331  67.322  1.00  0.00    -0.193 NA 
HETATM    3  H   UNL     1      -8.004  16.395  67.064  1.00  0.00     0.000 HD 
ENDROOT
BRANCH   2   4
HETATM    4  C   UNL     1      -9.244  15.152  68.157  1.00  0.00    -0.184 C  
BRANCH   4   5
HETATM    5  C   UNL     1     -10.472  14.424  67.604  1.00  0.00    -0.245 C  
BRANCH   5   6
HETATM    6  C   UNL     1     -10.477  12.913  67.906  1.00  0.00    -0.224 C  
BRANCH   6   7
HETATM    7  C   UNL     1     -11.375  12.650  69.110  1.00  0.00    -0.339 A  
HETATM    8  C   UNL     1     -12.948  12.205  71.397  1.00  0.00    -0.357 A  
HETATM    9  C   UNL     1     -11.739  11.348  69.486  1.00  0.00    -0.417 A  
HETATM   10  C   UNL     1     -11.805  13.724  69.909  1.00  0.00    -0.394 A  
HETATM   11  C   UNL     1     -12.524  11.129  70.620  1.00  0.00    -0.448 A  
HETATM   12  C   UNL     1     -12.588  13.503  71.042  1.00  0.00    -0.438 A  
ENDBRANCH   6   7
BRANCH   6  13
HETATM   13  O   UNL     1      -9.135  12.428  68.116  1.00  0.00    -0.192 OA 
BRANCH  13  14
HETATM   14  C   UNL     1      -8.688  11.482  67.225  1.00  0.00    -0.151 A  
HETATM   15  C   UNL     1      -9.539  10.540  66.626  1.00  0.00    -0.210 A  
HETATM   16  C   UNL     1      -7.685   9.505  65.485  1.00  0.00    -0.105 A  
HETATM   17  C   UNL     1      -9.042   9.552  65.778  1.00  0.00    -0.243 A  
HETATM   18  C   UNL     1      -6.834  10.476  66.011  1.00  0.00    -0.134 A  
HETATM   19  C   UNL     1      -7.327  11.485  66.860  1.00  0.00    -0.140 A  
HETATM   20  C   UNL     1      -6.364  12.528  67.363  1.00  0.00    -0.157 C  
ENDBRANCH  13  14
ENDBRANCH   6  13
ENDBRANCH   5   6
ENDBRANCH   4   5
ENDBRANCH   2   4
TORSDOF 6
ENDMDL
MODEL      208
REMARK 921   NORMALIZED FREE ENERGY PREDICTED BY IDOCK:   -3.57 KCAL/MOL
REMARK 922        TOTAL FREE ENERGY PREDICTED BY IDOCK:   -5.60 KCAL/MOL
REMARK 923 INTER-LIGAND FREE ENERGY PREDICTED BY IDOCK:   -4.81 KCAL/MOL
REMARK 924 INTRA-LIGAND FREE ENERGY PREDICTED BY IDOCK:   -0.79 KCAL/MOL
REMARK 927      BINDING AFFINITY PREDICTED BY RF-SCORE:    0.00 PKD
ROOT
HETATM    1  C   UNL     1     -10.810   6.746  66.908  1.00  0.00    -0.331 C  
HETATM    2  N   UNL     1     -11.106   7.829  67.835  1.00  0.00    -0.438 NA 
HETATM    3  H   UNL     1     -11.046   7.513  68.803  1.00  0.00     0.000 HD 
ENDROOT
BRANCH   2   4
HETATM    4  C   UNL     1     -10.255   9.001  67.603  1.00  0.00    -0.242 C  
BRANCH   4   5
HETATM    5  C   UNL     1     -11.145  10.246  67.570  1.00  0.00    -0.302 C  
BRANCH   5   6
HETATM    6  C   UNL     1     -10.430  11.497  67.023  1.00  0.00    -0.228 C  
BRANCH   6   7
HETATM    7  C   UNL     1     -10.205  11.326  65.524  1.00  0.00    -0.312 A  
HETATM    8  C   UNL     1      -9.698  11.076  62.771  1.00  0.00    -0.303 A  
HETATM    9  C   UNL     1     -11.103  11.849  64.581  1.00  0.00    -0.373 A  
HETATM   10  C   UNL     1      -9.042  10.686  65.061  1.00  0.00    -0.229 A  
HETATM   11  C   UNL     1     -10.853  11.719  63.214  1.00  0.00    -0.400 A  
HETATM   12  C   UNL     1      -8.793  10.560  63.694  1.00  0.00    -0.210 A  
ENDBRANCH   6   7
BRANCH   6  13
HETATM   13  O   UNL     1      -9.195  11.732  67.732  1.00  0.00    -0.170 OA 
BRANCH  13  14
HETATM   14  C   UNL     1      -8.850  13.047  67.924  1.00  0.00    -0.193 A  
HETATM   15  C   UNL     1      -9.750  14.005  68.417  1.00  0.00    -0.223 A  
HETATM   16  C   UNL     1      -8.102  15.750  68.198  1.00  0.00    -0.140 A  
HETATM   17  C   UNL     1      -9.386  15.345  68.537  1.00  0.00    -0.198 A  
HETATM   18  C   UNL     1      -7.170  14.802  67.777  1.00  0.00    -0.192 A  
HETATM   19  C   UNL     1      -7.523  13.444  67.662  1.00  0.00    -0.182 A  
HETATM   20  C   UNL     1      -6.461  12.464  67.241  1.00  0.00    -0.140 C  
ENDBRANCH  13  14
ENDBRANCH   6  13
ENDBRANCH   5   6
ENDBRANCH   4   5
ENDBRANCH   2   4
TORSDOF 6
ENDMDL
MODEL      209
REMARK 921   NORMALIZED FREE ENERGY PREDICTED BY IDOCK:   -3.57 KCAL/MOL
REMARK 922        TOTAL FREE ENERGY PREDICTED BY IDOCK:   -5.59 KCAL/MOL
REMARK 923 INTER-LIGAND FREE ENERGY PREDICTED BY IDOCK:   -5.49 KCAL/MOL
REMARK 924 INTRA-LIGAND FREE ENERGY PREDICTED BY IDOCK:   -0.10 KCAL/MOL
REMARK 927      BINDING AFFINITY PREDICTED BY RF-SCORE:    0.00 PKD
ROOT
HETATM    1  C   UNL     1      -8.152  10.482  68.295  1.00  0.00    -0.115 C  
HETATM    2  N   UNL     1      -8.417  11.816  68.812  1.00  0.00    -0.345 NA 
HETATM    3  H   UNL     1      -8.003  11.943  69.736  1.00  0.00     0.000 HD 
ENDROOT
BRANCH   2   4
HETATM    4  C   UNL     1      -7.979  12.865  67.884  1.00  0.00    -0.156 C  
BRANCH   4   5
HETATM    5  C   UNL     1      -9.094  13.104  66.863  1.00  0.00    -0.231 C  
BRANCH   5   6
HETATM    6  C   UNL     1      -9.605  14.558  66.842  1.00  0.00    -0.250 C  
BRANCH   6   7
HETATM    7  C   UNL     1     -10.379  14.832  68.127  1.00  0.00    -0.239 A  
HETATM    8  C   UNL     1     -11.903  15.316  70.439  1.00  0.00    -0.361 A  
HETATM    9  C   UNL     1     -10.395  16.103  68.720  1.00  0.00    -0.248 A  
HETATM   10  C   UNL     1     -11.151  13.810  68.708  1.00  0.00    -0.295 A  
HETATM   11  C   UNL     1     -11.148  16.341  69.871  1.00  0.00    -0.347 A  
HETATM   12  C   UNL     1     -11.905  14.051  69.857  1.00  0.00    -0.393 A  
ENDBRANCH   6   7
BRANCH   6  13
HETATM   13  O   UNL     1     -10.404  14.802  65.666  1.00  0.00    -0.305 OA 
BRANCH  13  14
HETATM   14  C   UNL     1     -10.741  13.696  64.924  1.00  0.00    -0.391 A  
HETATM   15  C   UNL     1      -9.795  12.935  64.220  1.00  0.00     0.010 A  
HETATM   16  C   UNL     1     -11.520  11.498  63.341  1.00  0.00    -0.274 A  
HETATM   17  C   UNL     1     -10.180  11.858  63.424  1.00  0.00    -0.478 A  
HETATM   18  C   UNL     1     -12.467  12.195  64.090  1.00  0.00    -0.497 A  
HETATM   19  C   UNL     1     -12.088  13.278  64.906  1.00  0.00    -0.440 A  
HETATM   20  C   UNL     1     -13.151  13.964  65.721  1.00  0.00    -0.139 C  
ENDBRANCH  13  14
ENDBRANCH   6  13
ENDBRANCH   5   6
ENDBRANCH   4   5
ENDBRANCH   2   4
TORSDOF 6
ENDMDL
MODEL      210
REMARK 921   NORMALIZED FREE ENERGY PREDICTED BY IDOCK:   -3.57 KCAL/MOL
REMARK 922        TOTAL FREE ENERGY PREDICTED BY IDOCK:   -5.59 KCAL/MOL
REMARK 923 INTER-LIGAND FREE ENERGY PREDICTED BY IDOCK:   -5.09 KCAL/MOL
REMARK 924 INTRA-LIGAND FREE ENERGY PREDICTED BY IDOCK:   -0.50 KCAL/MOL
REMARK 927      BINDING AFFINITY PREDICTED BY RF-SCORE:    0.00 PKD
ROOT
HETATM    1  C   UNL     1      -8.161   7.952  66.140  1.00  0.00    -0.109 C  
HETATM    2  N   UNL     1      -8.911   8.518  67.251  1.00  0.00    -0.129 NA 
HETATM    3  H   UNL     1      -9.831   8.839  66.950  1.00  0.00     0.000 HD 
ENDROOT
BRANCH   2   4
HETATM    4  C   UNL     1      -9.016   7.584  68.378  1.00  0.00    -0.128 C  
BRANCH   4   5
HETATM    5  C   UNL     1      -9.981   8.176  69.408  1.00  0.00    -0.188 C  
BRANCH   5   6
HETATM    6  C   UNL     1     -10.914   7.129  70.047  1.00  0.00    -0.262 C  
BRANCH   6   7
HETATM    7  C   UNL     1     -11.980   7.847  70.867  1.00  0.00    -0.211 A  
HETATM    8  C   UNL     1     -14.014   9.168  72.288  1.00  0.00    -0.489 A  
HETATM    9  C   UNL     1     -11.794   9.159  71.328  1.00  0.00    -0.396 A  
HETATM   10  C   UNL     1     -13.210   7.214  71.122  1.00  0.00    -0.265 A  
HETATM   11  C   UNL     1     -12.804   9.812  72.039  1.00  0.00    -0.491 A  
HETATM   12  C   UNL     1     -14.218   7.870  71.829  1.00  0.00    -0.555 A  
ENDBRANCH   6   7
BRANCH   6  13
HETATM   13  O   UNL     1     -10.161   6.190  70.843  1.00  0.00    -0.185 OA 
BRANCH  13  14
HETATM   14  C   UNL     1      -9.628   6.680  72.011  1.00  0.00    -0.148 A  
HETATM   15  C   UNL     1      -8.638   7.675  72.037  1.00  0.00    -0.136 A  
HETATM   16  C   UNL     1      -8.508   7.563  74.441  1.00  0.00    -0.255 A  
HETATM   17  C   UNL     1      -8.072   8.101  73.237  1.00  0.00    -0.246 A  
HETATM   18  C   UNL     1      -9.542   6.628  74.443  1.00  0.00    -0.304 A  
HETATM   19  C   UNL     1     -10.128   6.198  73.237  1.00  0.00    -0.205 A  
HETATM   20  C   UNL     1     -11.267   5.216  73.309  1.00  0.00    -0.389 C  
ENDBRANCH  13  14
ENDBRANCH   6  13
ENDBRANCH   5   6
ENDBRANCH   4   5
ENDBRANCH   2   4
TORSDOF 6
ENDMDL
MODEL      211
REMARK 921   NORMALIZED FREE ENERGY PREDICTED BY IDOCK:   -3.54 KCAL/MOL
REMARK 922        TOTAL FREE ENERGY PREDICTED BY IDOCK:   -5.56 KCAL/MOL
REMARK 923 INTER-LIGAND FREE ENERGY PREDICTED BY IDOCK:   -4.42 KCAL/MOL
REMARK 924 INTRA-LIGAND FREE ENERGY PREDICTED BY IDOCK:   -1.14 KCAL/MOL
REMARK 927      BINDING AFFINITY PREDICTED BY RF-SCORE:    0.00 PKD
ROOT
HETATM    1  C   UNL     1      -8.263   8.170  64.098  1.00  0.00    -0.080 C  
HETATM    2  N   UNL     1      -9.067   8.554  65.250  1.00  0.00    -0.419 NA 
HETATM    3  H   UNL     1     -10.035   8.730  64.982  1.00  0.00     0.000 HD 
ENDROOT
BRANCH   2   4
HETATM    4  C   UNL     1      -8.985   7.566  66.332  1.00  0.00    -0.167 C  
BRANCH   4   5
HETATM    5  C   UNL     1     -10.199   7.749  67.246  1.00  0.00    -0.343 C  
BRANCH   5   6
HETATM    6  C   UNL     1     -10.242   6.749  68.418  1.00  0.00    -0.178 C  
BRANCH   6   7
HETATM    7  C   UNL     1     -10.815   7.447  69.647  1.00  0.00    -0.222 A  
HETATM    8  C   UNL     1     -11.974   8.723  71.867  1.00  0.00    -0.435 A  
HETATM    9  C   UNL     1     -10.505   8.782  69.947  1.00  0.00    -0.227 A  
HETATM   10  C   UNL     1     -11.726   6.767  70.474  1.00  0.00    -0.430 A  
HETATM   11  C   UNL     1     -11.077   9.413  71.053  1.00  0.00    -0.414 A  
HETATM   12  C   UNL     1     -12.299   7.400  71.578  1.00  0.00    -0.385 A  
ENDBRANCH   6   7
BRANCH   6  13
HETATM   13  O   UNL     1      -8.931   6.199  68.669  1.00  0.00    -0.126 OA 
BRANCH  13  14
HETATM   14  C   UNL     1      -8.862   5.216  69.627  1.00  0.00    -0.102 A  
HETATM   15  C   UNL     1      -9.454   3.954  69.465  1.00  0.00    -0.259 A  
HETATM   16  C   UNL     1      -8.767   3.284  71.676  1.00  0.00    -0.118 A  
HETATM   17  C   UNL     1      -9.422   3.004  70.484  1.00  0.00    -0.221 A  
HETATM   18  C   UNL     1      -8.109   4.504  71.829  1.00  0.00    -0.102 A  
HETATM   19  C   UNL     1      -8.126   5.468  70.802  1.00  0.00    -0.113 A  
HETATM   20  C   UNL     1      -7.364   6.748  71.013  1.00  0.00    -0.078 C  
ENDBRANCH  13  14
ENDBRANCH   6  13
ENDBRANCH   5   6
ENDBRANCH   4   5
ENDBRANCH   2   4
TORSDOF 6
ENDMDL
MODEL      212
REMARK 921   NORMALIZED FREE ENERGY PREDICTED BY IDOCK:   -3.54 KCAL/MOL
REMARK 922        TOTAL FREE ENERGY PREDICTED BY IDOCK:   -5.55 KCAL/MOL
REMARK 923 INTER-LIGAND FREE ENERGY PREDICTED BY IDOCK:   -5.03 KCAL/MOL
REMARK 924 INTRA-LIGAND FREE ENERGY PREDICTED BY IDOCK:   -0.52 KCAL/MOL
REMARK 927      BINDING AFFINITY PREDICTED BY RF-SCORE:    0.00 PKD
ROOT
HETATM    1  C   UNL     1     -10.348  19.344  65.962  1.00  0.00    -0.497 C  
HETATM    2  N   UNL     1      -9.269  18.368  65.916  1.00  0.00    -0.452 NA 
HETATM    3  H   UNL     1      -8.700  18.406  66.761  1.00  0.00     0.000 HD 
ENDROOT
BRANCH   2   4
HETATM    4  C   UNL     1      -9.766  17.009  65.670  1.00  0.00     0.073 C  
BRANCH   4   5
HETATM    5  C   UNL     1     -11.003  16.781  66.543  1.00  0.00     0.142 C  
BRANCH   5   6
HETATM    6  C   UNL     1     -11.187  15.313  66.974  1.00  0.00    -0.275 C  
BRANCH   6   7
HETATM    7  C   UNL     1     -11.547  15.271  68.455  1.00  0.00    -0.368 A  
HETATM    8  C   UNL     1     -12.100  15.170  71.209  1.00  0.00    -0.399 A  
HETATM    9  C   UNL     1     -12.403  14.289  68.977  1.00  0.00    -0.147 A  
HETATM   10  C   UNL     1     -10.963  16.193  69.341  1.00  0.00    -0.333 A  
HETATM   11  C   UNL     1     -12.681  14.244  70.344  1.00  0.00    -0.355 A  
HETATM   12  C   UNL     1     -11.241  16.144  70.708  1.00  0.00    -0.356 A  
ENDBRANCH   6   7
BRANCH   6  13
HETATM   13  O   UNL     1     -10.003  14.541  66.682  1.00  0.00    -0.255 OA 
BRANCH  13  14
HETATM   14  C   UNL     1     -10.041  13.217  67.046  1.00  0.00    -0.241 A  
HETATM   15  C   UNL     1      -9.349  12.713  68.158  1.00  0.00    -0.210 A  
HETATM   16  C   UNL     1     -10.083  10.469  67.672  1.00  0.00    -0.211 A  
HETATM   17  C   UNL     1      -9.355  11.352  68.459  1.00  0.00    -0.180 A  
HETATM   18  C   UNL     1     -10.838  10.959  66.607  1.00  0.00    -0.258 A  
HETATM   19  C   UNL     1     -10.847  12.333  66.299  1.00  0.00    -0.313 A  
HETATM   20  C   UNL     1     -11.714  12.804  65.162  1.00  0.00    -0.396 C  
ENDBRANCH  13  14
ENDBRANCH   6  13
ENDBRANCH   5   6
ENDBRANCH   4   5
ENDBRANCH   2   4
TORSDOF 6
ENDMDL
MODEL      213
REMARK 921   NORMALIZED FREE ENERGY PREDICTED BY IDOCK:   -3.53 KCAL/MOL
REMARK 922        TOTAL FREE ENERGY PREDICTED BY IDOCK:   -5.54 KCAL/MOL
REMARK 923 INTER-LIGAND FREE ENERGY PREDICTED BY IDOCK:   -4.67 KCAL/MOL
REMARK 924 INTRA-LIGAND FREE ENERGY PREDICTED BY IDOCK:   -0.87 KCAL/MOL
REMARK 927      BINDING AFFINITY PREDICTED BY RF-SCORE:    0.00 PKD
ROOT
HETATM    1  C   UNL     1     -12.897   8.451  72.775  1.00  0.00     0.008 C  
HETATM    2  N   UNL     1     -13.556   9.700  72.424  1.00  0.00    -0.648 NA 
HETATM    3  H   UNL     1     -13.024  10.504  72.756  1.00  0.00     0.000 HD 
ENDROOT
BRANCH   2   4
HETATM    4  C   UNL     1     -13.825   9.796  70.985  1.00  0.00     0.095 C  
BRANCH   4   5
HETATM    5  C   UNL     1     -12.508   9.591  70.232  1.00  0.00     0.240 C  
BRANCH   5   6
HETATM    6  C   UNL     1     -11.975  10.875  69.567  1.00  0.00    -0.330 C  
BRANCH   6   7
HETATM    7  C   UNL     1     -10.811  10.514  68.650  1.00  0.00    -0.276 A  
HETATM    8  C   UNL     1      -8.617   9.946  66.988  1.00  0.00    -0.130 A  
HETATM    9  C   UNL     1     -10.977  10.394  67.262  1.00  0.00    -0.306 A  
HETATM   10  C   UNL     1      -9.521  10.355  69.188  1.00  0.00    -0.220 A  
HETATM   11  C   UNL     1      -9.887  10.107  66.438  1.00  0.00    -0.279 A  
HETATM   12  C   UNL     1      -8.433  10.071  68.362  1.00  0.00    -0.112 A  
ENDBRANCH   6   7
BRANCH   6  13
HETATM   13  O   UNL     1     -11.597  11.848  70.563  1.00  0.00    -0.150 OA 
BRANCH  13  14
HETATM   14  C   UNL     1     -11.793  13.166  70.225  1.00  0.00    -0.224 A  
HETATM   15  C   UNL     1     -11.381  13.705  68.996  1.00  0.00    -0.333 A  
HETATM   16  C   UNL     1     -12.136  15.901  69.640  1.00  0.00    -0.216 A  
HETATM   17  C   UNL     1     -11.536  15.060  68.712  1.00  0.00    -0.357 A  
HETATM   18  C   UNL     1     -12.619  15.372  70.837  1.00  0.00    -0.496 A  
HETATM   19  C   UNL     1     -12.478  14.001  71.130  1.00  0.00    -0.447 A  
HETATM   20  C   UNL     1     -13.055  13.484  72.420  1.00  0.00    -0.494 C  
ENDBRANCH  13  14
ENDBRANCH   6  13
ENDBRANCH   5   6
ENDBRANCH   4   5
ENDBRANCH   2   4
TORSDOF 6
ENDMDL
MODEL      214
REMARK 921   NORMALIZED FREE ENERGY PREDICTED BY IDOCK:   -3.52 KCAL/MOL
REMARK 922        TOTAL FREE ENERGY PREDICTED BY IDOCK:   -5.53 KCAL/MOL
REMARK 923 INTER-LIGAND FREE ENERGY PREDICTED BY IDOCK:   -4.62 KCAL/MOL
REMARK 924 INTRA-LIGAND FREE ENERGY PREDICTED BY IDOCK:   -0.90 KCAL/MOL
REMARK 927      BINDING AFFINITY PREDICTED BY RF-SCORE:    0.00 PKD
ROOT
HETATM    1  C   UNL     1      -7.368  11.266  69.416  1.00  0.00    -0.025 C  
HETATM    2  N   UNL     1      -8.764  11.234  69.008  1.00  0.00    -0.369 NA 
HETATM    3  H   UNL     1      -8.902  11.722  68.124  1.00  0.00     0.000 HD 
ENDROOT
BRANCH   2   4
HETATM    4  C   UNL     1      -9.290   9.865  68.948  1.00  0.00    -0.170 C  
BRANCH   4   5
HETATM    5  C   UNL     1      -9.547   9.382  70.378  1.00  0.00    -0.319 C  
BRANCH   5   6
HETATM    6  C   UNL     1     -10.446   8.133  70.451  1.00  0.00    -0.215 C  
BRANCH   6   7
HETATM    7  C   UNL     1     -11.791   8.522  71.057  1.00  0.00    -0.290 A  
HETATM    8  C   UNL     1     -14.319   9.197  72.082  1.00  0.00    -0.272 A  
HETATM    9  C   UNL     1     -12.142   9.864  71.268  1.00  0.00    -0.485 A  
HETATM   10  C   UNL     1     -12.735   7.525  71.358  1.00  0.00    -0.382 A  
HETATM   11  C   UNL     1     -13.396  10.198  71.783  1.00  0.00    -0.485 A  
HETATM   12  C   UNL     1     -13.990   7.861  71.870  1.00  0.00    -0.433 A  
ENDBRANCH   6   7
BRANCH   6  13
HETATM   13  O   UNL     1      -9.801   7.081  71.198  1.00  0.00    -0.177 OA 
BRANCH  13  14
HETATM   14  C   UNL     1      -9.348   6.010  70.465  1.00  0.00    -0.160 A  
HETATM   15  C   UNL     1     -10.176   5.273  69.604  1.00  0.00    -0.348 A  
HETATM   16  C   UNL     1      -8.375   3.762  69.072  1.00  0.00    -0.089 A  
HETATM   17  C   UNL     1      -9.701   4.152  68.927  1.00  0.00    -0.176 A  
HETATM   18  C   UNL     1      -7.517   4.523  69.864  1.00  0.00    -0.050 A  
HETATM   19  C   UNL     1      -7.984   5.665  70.545  1.00  0.00    -0.104 A  
HETATM   20  C   UNL     1      -6.999   6.466  71.353  1.00  0.00    -0.076 C  
ENDBRANCH  13  14
ENDBRANCH   6  13
ENDBRANCH   5   6
ENDBRANCH   4   5
ENDBRANCH   2   4
TORSDOF 6
ENDMDL
MODEL      215
REMARK 921   NORMALIZED FREE ENERGY PREDICTED BY IDOCK:   -3.51 KCAL/MOL
REMARK 922        TOTAL FREE ENERGY PREDICTED BY IDOCK:   -5.52 KCAL/MOL
REMARK 923 INTER-LIGAND FREE ENERGY PREDICTED BY IDOCK:   -4.33 KCAL/MOL
REMARK 924 INTRA-LIGAND FREE ENERGY PREDICTED BY IDOCK:   -1.19 KCAL/MOL
REMARK 927      BINDING AFFINITY PREDICTED BY RF-SCORE:    0.00 PKD
ROOT
HETATM    1  C   UNL     1     -10.337  13.809  66.555  1.00  0.00    -0.286 C  
HETATM    2  N   UNL     1     -10.455  12.902  67.688  1.00  0.00    -0.222 NA 
HETATM    3  H   UNL     1     -10.544  13.416  68.564  1.00  0.00     0.000 HD 
ENDROOT
BRANCH   2   4
HETATM    4  C   UNL     1     -11.555  11.947  67.517  1.00  0.00    -0.304 C  
BRANCH   4   5
HETATM    5  C   UNL     1     -11.661  11.099  68.787  1.00  0.00    -0.389 C  
BRANCH   5   6
HETATM    6  C   UNL     1     -11.153   9.656  68.605  1.00  0.00    -0.038 C  
BRANCH   6   7
HETATM    7  C   UNL     1      -9.979   9.418  69.550  1.00  0.00    -0.200 A  
HETATM    8  C   UNL     1      -7.758   8.939  71.204  1.00  0.00    -0.158 A  
HETATM    9  C   UNL     1     -10.058   8.495  70.604  1.00  0.00    -0.225 A  
HETATM   10  C   UNL     1      -8.763  10.088  69.334  1.00  0.00    -0.195 A  
HETATM   11  C   UNL     1      -8.956   8.262  71.428  1.00  0.00    -0.211 A  
HETATM   12  C   UNL     1      -7.661   9.852  70.158  1.00  0.00    -0.188 A  
ENDBRANCH   6   7
BRANCH   6  13
HETATM   13  O   UNL     1     -10.797   9.408  67.229  1.00  0.00    -0.247 OA 
BRANCH  13  14
HETATM   14  C   UNL     1     -10.366   8.136  66.936  1.00  0.00    -0.331 A  
HETATM   15  C   UNL     1     -11.123   6.991  67.225  1.00  0.00    -0.302 A  
HETATM   16  C   UNL     1      -9.372   5.555  66.399  1.00  0.00    -0.161 A  
HETATM   17  C   UNL     1     -10.626   5.713  66.975  1.00  0.00    -0.358 A  
HETATM   18  C   UNL     1      -8.635   6.681  66.036  1.00  0.00    -0.152 A  
HETATM   19  C   UNL     1      -9.132   7.977  66.274  1.00  0.00    -0.232 A  
HETATM   20  C   UNL     1      -8.306   9.151  65.823  1.00  0.00    -0.131 C  
ENDBRANCH  13  14
ENDBRANCH   6  13
ENDBRANCH   5   6
ENDBRANCH   4   5
ENDBRANCH   2   4
TORSDOF 6
ENDMDL
MODEL      216
REMARK 921   NORMALIZED FREE ENERGY PREDICTED BY IDOCK:   -3.51 KCAL/MOL
REMARK 922        TOTAL FREE ENERGY PREDICTED BY IDOCK:   -5.52 KCAL/MOL
REMARK 923 INTER-LIGAND FREE ENERGY PREDICTED BY IDOCK:   -5.10 KCAL/MOL
REMARK 924 INTRA-LIGAND FREE ENERGY PREDICTED BY IDOCK:   -0.43 KCAL/MOL
REMARK 927      BINDING AFFINITY PREDICTED BY RF-SCORE:    0.00 PKD
ROOT
HETATM    1  C   UNL     1      -9.341   6.351  67.072  1.00  0.00    -0.131 C  
HETATM    2  N   UNL     1      -9.418   7.588  66.309  1.00  0.00    -0.358 NA 
HETATM    3  H   UNL     1      -9.567   7.402  65.317  1.00  0.00     0.000 HD 
ENDROOT
BRANCH   2   4
HETATM    4  C   UNL     1     -10.439   8.499  66.839  1.00  0.00    -0.275 C  
BRANCH   4   5
HETATM    5  C   UNL     1      -9.978   9.938  66.592  1.00  0.00    -0.277 C  
BRANCH   5   6
HETATM    6  C   UNL     1     -11.011  10.996  67.026  1.00  0.00    -0.272 C  
BRANCH   6   7
HETATM    7  C   UNL     1     -11.391  11.846  65.819  1.00  0.00    -0.354 A  
HETATM    8  C   UNL     1     -11.985  13.448  63.586  1.00  0.00    -0.504 A  
HETATM    9  C   UNL     1     -12.285  12.922  65.928  1.00  0.00    -0.469 A  
HETATM   10  C   UNL     1     -10.792  11.595  64.572  1.00  0.00    -0.383 A  
HETATM   11  C   UNL     1     -12.582  13.714  64.817  1.00  0.00    -0.339 A  
HETATM   12  C   UNL     1     -11.089  12.389  63.464  1.00  0.00    -0.521 A  
ENDBRANCH   6   7
BRANCH   6  13
HETATM   13  O   UNL     1     -10.498  11.797  68.111  1.00  0.00    -0.188 OA 
BRANCH  13  14
HETATM   14  C   UNL     1      -9.139  11.747  68.309  1.00  0.00    -0.187 A  
HETATM   15  C   UNL     1      -8.506  10.690  68.982  1.00  0.00    -0.148 A  
HETATM   16  C   UNL     1      -6.358  11.761  68.765  1.00  0.00    -0.061 A  
HETATM   17  C   UNL     1      -7.134  10.704  69.223  1.00  0.00    -0.107 A  
HETATM   18  C   UNL     1      -6.955  12.785  68.029  1.00  0.00    -0.107 A  
HETATM   19  C   UNL     1      -8.339  12.776  67.771  1.00  0.00    -0.177 A  
HETATM   20  C   UNL     1      -8.916  13.888  66.937  1.00  0.00    -0.236 C  
ENDBRANCH  13  14
ENDBRANCH   6  13
ENDBRANCH   5   6
ENDBRANCH   4   5
ENDBRANCH   2   4
TORSDOF 6
ENDMDL
MODEL      217
REMARK 921   NORMALIZED FREE ENERGY PREDICTED BY IDOCK:   -3.51 KCAL/MOL
REMARK 922        TOTAL FREE ENERGY PREDICTED BY IDOCK:   -5.52 KCAL/MOL
REMARK 923 INTER-LIGAND FREE ENERGY PREDICTED BY IDOCK:   -4.50 KCAL/MOL
REMARK 924 INTRA-LIGAND FREE ENERGY PREDICTED BY IDOCK:   -1.02 KCAL/MOL
REMARK 927      BINDING AFFINITY PREDICTED BY RF-SCORE:    0.00 PKD
ROOT
HETATM    1  C   UNL     1      -9.259   5.470  69.782  1.00  0.00    -0.137 C  
HETATM    2  N   UNL     1      -9.322   6.918  69.643  1.00  0.00    -0.146 NA 
HETATM    3  H   UNL     1      -8.595   7.260  69.015  1.00  0.00     0.000 HD 
ENDROOT
BRANCH   2   4
HETATM    4  C   UNL     1     -10.650   7.373  69.216  1.00  0.00    -0.213 C  
BRANCH   4   5
HETATM    5  C   UNL     1     -10.594   7.696  67.721  1.00  0.00    -0.265 C  
BRANCH   5   6
HETATM    6  C   UNL     1     -10.514   9.206  67.423  1.00  0.00    -0.271 C  
BRANCH   6   7
HETATM    7  C   UNL     1      -9.592   9.429  66.228  1.00  0.00    -0.297 A  
HETATM    8  C   UNL     1      -7.825   9.901  64.094  1.00  0.00    -0.142 A  
HETATM    9  C   UNL     1     -10.003  10.170  65.110  1.00  0.00    -0.379 A  
HETATM   10  C   UNL     1      -8.275   8.939  66.262  1.00  0.00    -0.111 A  
HETATM   11  C   UNL     1      -9.126  10.399  64.048  1.00  0.00    -0.271 A  
HETATM   12  C   UNL     1      -7.399   9.171  65.201  1.00  0.00    -0.096 A  
ENDBRANCH   6   7
BRANCH   6  13
HETATM   13  O   UNL     1     -10.076   9.936  68.588  1.00  0.00    -0.163 OA 
BRANCH  13  14
HETATM   14  C   UNL     1     -10.560  11.216  68.716  1.00  0.00    -0.202 A  
HETATM   15  C   UNL     1     -10.015  12.308  68.024  1.00  0.00    -0.202 A  
HETATM   16  C   UNL     1     -11.539  13.829  69.107  1.00  0.00    -0.363 A  
HETATM   17  C   UNL     1     -10.487  13.603  68.228  1.00  0.00    -0.253 A  
HETATM   18  C   UNL     1     -12.144  12.749  69.749  1.00  0.00    -0.305 A  
HETATM   19  C   UNL     1     -11.682  11.435  69.541  1.00  0.00    -0.417 A  
HETATM   20  C   UNL     1     -12.402  10.308  70.232  1.00  0.00    -0.267 C  
ENDBRANCH  13  14
ENDBRANCH   6  13
ENDBRANCH   5   6
ENDBRANCH   4   5
ENDBRANCH   2   4
TORSDOF 6
ENDMDL
MODEL      218
REMARK 921   NORMALIZED FREE ENERGY PREDICTED BY IDOCK:   -3.51 KCAL/MOL
REMARK 922        TOTAL FREE ENERGY PREDICTED BY IDOCK:   -5.51 KCAL/MOL
REMARK 923 INTER-LIGAND FREE ENERGY PREDICTED BY IDOCK:   -4.27 KCAL/MOL
REMARK 924 INTRA-LIGAND FREE ENERGY PREDICTED BY IDOCK:   -1.25 KCAL/MOL
REMARK 927      BINDING AFFINITY PREDICTED BY RF-SCORE:    0.00 PKD
ROOT
HETATM    1  C   UNL     1      -9.210   4.930  70.951  1.00  0.00    -0.146 C  
HETATM    2  N   UNL     1      -9.182   6.378  70.810  1.00  0.00    -0.157 NA 
HETATM    3  H   UNL     1      -8.500   6.668  70.110  1.00  0.00     0.000 HD 
ENDROOT
BRANCH   2   4
HETATM    4  C   UNL     1     -10.510   6.930  70.519  1.00  0.00    -0.211 C  
BRANCH   4   5
HETATM    5  C   UNL     1     -11.045   6.258  69.252  1.00  0.00    -0.461 C  
BRANCH   5   6
HETATM    6  C   UNL     1     -10.650   6.992  67.956  1.00  0.00    -0.207 C  
BRANCH   6   7
HETATM    7  C   UNL     1     -10.009   5.995  66.996  1.00  0.00    -0.197 A  
HETATM    8  C   UNL     1      -8.878   4.075  65.283  1.00  0.00    -0.127 A  
HETATM    9  C   UNL     1      -8.619   5.818  66.940  1.00  0.00    -0.111 A  
HETATM   10  C   UNL     1     -10.823   5.184  66.186  1.00  0.00    -0.163 A  
HETATM   11  C   UNL     1      -8.058   4.867  66.085  1.00  0.00    -0.107 A  
HETATM   12  C   UNL     1     -10.260   4.232  65.334  1.00  0.00    -0.235 A  
ENDBRANCH   6   7
BRANCH   6  13
HETATM   13  O   UNL     1      -9.778   8.105  68.243  1.00  0.00    -0.154 OA 
BRANCH  13  14
HETATM   14  C   UNL     1     -10.246   9.347  67.888  1.00  0.00    -0.211 A  
HETATM   15  C   UNL     1     -11.109  10.096  68.704  1.00  0.00    -0.254 A  
HETATM   16  C   UNL     1     -11.248  11.844  67.050  1.00  0.00    -0.379 A  
HETATM   17  C   UNL     1     -11.618  11.323  68.284  1.00  0.00    -0.370 A  
HETATM   18  C   UNL     1     -10.335  11.151  66.256  1.00  0.00    -0.299 A  
HETATM   19  C   UNL     1      -9.805   9.915  66.676  1.00  0.00    -0.265 A  
HETATM   20  C   UNL     1      -8.793   9.236  65.793  1.00  0.00    -0.211 C  
ENDBRANCH  13  14
ENDBRANCH   6  13
ENDBRANCH   5   6
ENDBRANCH   4   5
ENDBRANCH   2   4
TORSDOF 6
ENDMDL
MODEL      219
REMARK 921   NORMALIZED FREE ENERGY PREDICTED BY IDOCK:   -3.50 KCAL/MOL
REMARK 922        TOTAL FREE ENERGY PREDICTED BY IDOCK:   -5.51 KCAL/MOL
REMARK 923 INTER-LIGAND FREE ENERGY PREDICTED BY IDOCK:   -5.09 KCAL/MOL
REMARK 924 INTRA-LIGAND FREE ENERGY PREDICTED BY IDOCK:   -0.42 KCAL/MOL
REMARK 927      BINDING AFFINITY PREDICTED BY RF-SCORE:    0.00 PKD
ROOT
HETATM    1  C   UNL     1     -12.143   8.735  71.139  1.00  0.00    -0.267 C  
HETATM    2  N   UNL     1     -11.747  10.133  71.224  1.00  0.00    -0.365 NA 
HETATM    3  H   UNL     1     -10.733  10.233  71.176  1.00  0.00     0.000 HD 
ENDROOT
BRANCH   2   4
HETATM    4  C   UNL     1     -12.411  10.957  70.207  1.00  0.00    -0.303 C  
BRANCH   4   5
HETATM    5  C   UNL     1     -11.335  11.626  69.348  1.00  0.00    -0.342 C  
BRANCH   5   6
HETATM    6  C   UNL     1     -11.804  12.938  68.690  1.00  0.00    -0.312 C  
BRANCH   6   7
HETATM    7  C   UNL     1     -11.842  12.750  67.177  1.00  0.00    -0.415 A  
HETATM    8  C   UNL     1     -11.803  12.425  64.386  1.00  0.00    -0.461 A  
HETATM    9  C   UNL     1     -12.564  13.620  66.346  1.00  0.00    -0.289 A  
HETATM   10  C   UNL     1     -11.091  11.722  66.582  1.00  0.00    -0.364 A  
HETATM   11  C   UNL     1     -12.548  13.454  64.960  1.00  0.00    -0.459 A  
HETATM   12  C   UNL     1     -11.074  11.560  65.197  1.00  0.00    -0.260 A  
ENDBRANCH   6   7
BRANCH   6  13
HETATM   13  O   UNL     1     -10.952  14.038  69.077  1.00  0.00    -0.252 OA 
BRANCH  13  14
HETATM   14  C   UNL     1      -9.698  14.056  68.516  1.00  0.00    -0.215 A  
HETATM   15  C   UNL     1      -8.743  13.057  68.756  1.00  0.00     0.167 A  
HETATM   16  C   UNL     1      -7.110  14.213  67.412  1.00  0.00    -0.101 A  
HETATM   17  C   UNL     1      -7.457  13.141  68.224  1.00  0.00    -0.129 A  
HETATM   18  C   UNL     1      -8.067  15.179  67.101  1.00  0.00    -0.245 A  
HETATM   19  C   UNL     1      -9.372  15.098  67.624  1.00  0.00    -0.189 A  
HETATM   20  C   UNL     1     -10.370  16.149  67.219  1.00  0.00    -0.287 C  
ENDBRANCH  13  14
ENDBRANCH   6  13
ENDBRANCH   5   6
ENDBRANCH   4   5
ENDBRANCH   2   4
TORSDOF 6
ENDMDL
MODEL      220
REMARK 921   NORMALIZED FREE ENERGY PREDICTED BY IDOCK:   -3.50 KCAL/MOL
REMARK 922        TOTAL FREE ENERGY PREDICTED BY IDOCK:   -5.50 KCAL/MOL
REMARK 923 INTER-LIGAND FREE ENERGY PREDICTED BY IDOCK:   -4.91 KCAL/MOL
REMARK 924 INTRA-LIGAND FREE ENERGY PREDICTED BY IDOCK:   -0.59 KCAL/MOL
REMARK 927      BINDING AFFINITY PREDICTED BY RF-SCORE:    0.00 PKD
ROOT
HETATM    1  C   UNL     1      -7.438   8.842  64.490  1.00  0.00    -0.105 C  
HETATM    2  N   UNL     1      -7.653   9.613  65.706  1.00  0.00    -0.101 NA 
HETATM    3  H   UNL     1      -7.996  10.550  65.493  1.00  0.00     0.000 HD 
ENDROOT
BRANCH   2   4
HETATM    4  C   UNL     1      -8.542   8.922  66.647  1.00  0.00    -0.123 C  
BRANCH   4   5
HETATM    5  C   UNL     1      -8.517   9.676  67.979  1.00  0.00    -0.118 C  
BRANCH   5   6
HETATM    6  C   UNL     1      -9.810   9.512  68.801  1.00  0.00    -0.169 C  
BRANCH   6   7
HETATM    7  C   UNL     1      -9.862   8.097  69.368  1.00  0.00    -0.182 A  
HETATM    8  C   UNL     1      -9.862   5.467  70.359  1.00  0.00    -0.270 A  
HETATM    9  C   UNL     1     -10.877   7.198  69.010  1.00  0.00    -0.172 A  
HETATM   10  C   UNL     1      -8.840   7.650  70.224  1.00  0.00    -0.145 A  
HETATM   11  C   UNL     1     -10.879   5.893  69.507  1.00  0.00    -0.442 A  
HETATM   12  C   UNL     1      -8.843   6.345  70.718  1.00  0.00    -0.144 A  
ENDBRANCH   6   7
BRANCH   6  13
HETATM   13  O   UNL     1     -10.970   9.816  67.998  1.00  0.00    -0.246 OA 
BRANCH  13  14
HETATM   14  C   UNL     1     -11.292  11.147  67.883  1.00  0.00    -0.309 A  
HETATM   15  C   UNL     1     -11.250  11.836  66.661  1.00  0.00    -0.383 A  
HETATM   16  C   UNL     1     -11.867  13.902  67.739  1.00  0.00    -0.415 A  
HETATM   17  C   UNL     1     -11.518  13.202  66.591  1.00  0.00    -0.389 A  
HETATM   18  C   UNL     1     -11.987  13.221  68.950  1.00  0.00    -0.336 A  
HETATM   19  C   UNL     1     -11.728  11.839  69.030  1.00  0.00    -0.390 A  
HETATM   20  C   UNL     1     -11.913  11.155  70.358  1.00  0.00    -0.469 C  
ENDBRANCH  13  14
ENDBRANCH   6  13
ENDBRANCH   5   6
ENDBRANCH   4   5
ENDBRANCH   2   4
TORSDOF 6
ENDMDL
MODEL      221
REMARK 921   NORMALIZED FREE ENERGY PREDICTED BY IDOCK:   -3.46 KCAL/MOL
REMARK 922        TOTAL FREE ENERGY PREDICTED BY IDOCK:   -5.45 KCAL/MOL
REMARK 923 INTER-LIGAND FREE ENERGY PREDICTED BY IDOCK:   -4.14 KCAL/MOL
REMARK 924 INTRA-LIGAND FREE ENERGY PREDICTED BY IDOCK:   -1.31 KCAL/MOL
REMARK 927      BINDING AFFINITY PREDICTED BY RF-SCORE:    0.00 PKD
ROOT
HETATM    1  C   UNL     1     -11.782  12.466  67.428  1.00  0.00    -0.347 C  
HETATM    2  N   UNL     1     -10.556  12.180  68.159  1.00  0.00    -0.208 NA 
HETATM    3  H   UNL     1     -10.754  11.917  69.124  1.00  0.00     0.000 HD 
ENDROOT
BRANCH   2   4
HETATM    4  C   UNL     1      -9.738  11.164  67.487  1.00  0.00    -0.176 C  
BRANCH   4   5
HETATM    5  C   UNL     1      -8.585  10.779  68.418  1.00  0.00    -0.141 C  
BRANCH   5   6
HETATM    6  C   UNL     1      -8.805   9.438  69.145  1.00  0.00    -0.143 C  
BRANCH   6   7
HETATM    7  C   UNL     1      -7.943   8.367  68.486  1.00  0.00    -0.121 A  
HETATM    8  C   UNL     1      -6.448   6.335  67.246  1.00  0.00    -0.049 A  
HETATM    9  C   UNL     1      -7.047   7.583  69.229  1.00  0.00    -0.077 A  
HETATM   10  C   UNL     1      -8.084   8.106  67.112  1.00  0.00    -0.116 A  
HETATM   11  C   UNL     1      -6.301   6.578  68.611  1.00  0.00    -0.038 A  
HETATM   12  C   UNL     1      -7.339   7.098  66.497  1.00  0.00    -0.083 A  
ENDBRANCH   6   7
BRANCH   6  13
HETATM   13  O   UNL     1     -10.203   9.081  69.148  1.00  0.00    -0.194 OA 
BRANCH  13  14
HETATM   14  C   UNL     1     -10.638   8.351  70.227  1.00  0.00    -0.227 A  
HETATM   15  C   UNL     1     -10.771   8.898  71.512  1.00  0.00    -0.398 A  
HETATM   16  C   UNL     1     -11.438   6.765  72.415  1.00  0.00    -0.302 A  
HETATM   17  C   UNL     1     -11.151   8.111  72.598  1.00  0.00    -0.450 A  
HETATM   18  C   UNL     1     -11.384   6.218  71.133  1.00  0.00    -0.364 A  
HETATM   19  C   UNL     1     -11.011   7.006  70.027  1.00  0.00    -0.303 A  
HETATM   20  C   UNL     1     -11.011   6.367  68.665  1.00  0.00    -0.404 C  
ENDBRANCH  13  14
ENDBRANCH   6  13
ENDBRANCH   5   6
ENDBRANCH   4   5
ENDBRANCH   2   4
TORSDOF 6
ENDMDL
MODEL      222
REMARK 921   NORMALIZED FREE ENERGY PREDICTED BY IDOCK:   -3.45 KCAL/MOL
REMARK 922        TOTAL FREE ENERGY PREDICTED BY IDOCK:   -5.44 KCAL/MOL
REMARK 923 INTER-LIGAND FREE ENERGY PREDICTED BY IDOCK:   -4.96 KCAL/MOL
REMARK 924 INTRA-LIGAND FREE ENERGY PREDICTED BY IDOCK:   -0.48 KCAL/MOL
REMARK 927      BINDING AFFINITY PREDICTED BY RF-SCORE:    0.00 PKD
ROOT
HETATM    1  C   UNL     1     -13.548  12.979  72.132  1.00  0.00    -0.526 C  
HETATM    2  N   UNL     1     -13.365  11.573  71.807  1.00  0.00    -0.350 NA 
HETATM    3  H   UNL     1     -14.245  11.062  71.866  1.00  0.00     0.000 HD 
ENDROOT
BRANCH   2   4
HETATM    4  C   UNL     1     -12.730  11.388  70.496  1.00  0.00    -0.137 C  
BRANCH   4   5
HETATM    5  C   UNL     1     -11.788  12.568  70.245  1.00  0.00    -0.305 C  
BRANCH   5   6
HETATM    6  C   UNL     1     -11.053  12.489  68.893  1.00  0.00    -0.260 C  
BRANCH   6   7
HETATM    7  C   UNL     1     -10.650  11.042  68.629  1.00  0.00    -0.225 A  
HETATM    8  C   UNL     1      -9.800   8.409  68.135  1.00  0.00    -0.196 A  
HETATM    9  C   UNL     1     -11.076  10.357  67.481  1.00  0.00    -0.336 A  
HETATM   10  C   UNL     1      -9.781  10.386  69.519  1.00  0.00    -0.196 A  
HETATM   11  C   UNL     1     -10.657   9.047  67.239  1.00  0.00    -0.301 A  
HETATM   12  C   UNL     1      -9.362   9.078  69.274  1.00  0.00    -0.150 A  
ENDBRANCH   6   7
BRANCH   6  13
HETATM   13  O   UNL     1      -9.917  13.378  68.875  1.00  0.00    -0.109 OA 
BRANCH  13  14
HETATM   14  C   UNL     1     -10.160  14.659  68.441  1.00  0.00    -0.237 A  
HETATM   15  C   UNL     1     -10.396  15.728  69.319  1.00  0.00    -0.245 A  
HETATM   16  C   UNL     1     -10.751  17.240  67.476  1.00  0.00    -0.278 A  
HETATM   17  C   UNL     1     -10.705  17.001  68.843  1.00  0.00    -0.300 A  
HETATM   18  C   UNL     1     -10.447  16.210  66.587  1.00  0.00    -0.300 A  
HETATM   19  C   UNL     1     -10.123  14.922  67.057  1.00  0.00    -0.244 A  
HETATM   20  C   UNL     1      -9.765  13.864  66.048  1.00  0.00    -0.270 C  
ENDBRANCH  13  14
ENDBRANCH   6  13
ENDBRANCH   5   6
ENDBRANCH   4   5
ENDBRANCH   2   4
TORSDOF 6
ENDMDL
MODEL      223
REMARK 921   NORMALIZED FREE ENERGY PREDICTED BY IDOCK:   -3.45 KCAL/MOL
REMARK 922        TOTAL FREE ENERGY PREDICTED BY IDOCK:   -5.44 KCAL/MOL
REMARK 923 INTER-LIGAND FREE ENERGY PREDICTED BY IDOCK:   -4.44 KCAL/MOL
REMARK 924 INTRA-LIGAND FREE ENERGY PREDICTED BY IDOCK:   -1.00 KCAL/MOL
REMARK 927      BINDING AFFINITY PREDICTED BY RF-SCORE:    0.00 PKD
ROOT
HETATM    1  C   UNL     1     -10.829   5.747  70.277  1.00  0.00    -0.303 C  
HETATM    2  N   UNL     1     -11.316   6.928  69.580  1.00  0.00    -0.529 NA 
HETATM    3  H   UNL     1     -11.172   7.771  70.136  1.00  0.00     0.000 HD 
ENDROOT
BRANCH   2   4
HETATM    4  C   UNL     1     -10.722   7.064  68.245  1.00  0.00    -0.182 C  
BRANCH   4   5
HETATM    5  C   UNL     1     -10.277   8.517  68.059  1.00  0.00    -0.264 C  
BRANCH   5   6
HETATM    6  C   UNL     1     -10.699   9.441  69.217  1.00  0.00    -0.211 C  
BRANCH   6   7
HETATM    7  C   UNL     1     -11.198  10.762  68.643  1.00  0.00    -0.333 A  
HETATM    8  C   UNL     1     -12.014  13.216  67.541  1.00  0.00    -0.367 A  
HETATM    9  C   UNL     1     -11.603  11.819  69.472  1.00  0.00    -0.398 A  
HETATM   10  C   UNL     1     -11.200  10.962  67.251  1.00  0.00    -0.307 A  
HETATM   11  C   UNL     1     -12.013  13.036  68.923  1.00  0.00    -0.303 A  
HETATM   12  C   UNL     1     -11.608  12.180  66.705  1.00  0.00    -0.416 A  
ENDBRANCH   6   7
BRANCH   6  13
HETATM   13  O   UNL     1      -9.610   9.631  70.144  1.00  0.00    -0.228 OA 
BRANCH  13  14
HETATM   14  C   UNL     1      -8.356   9.723  69.591  1.00  0.00    -0.173 A  
HETATM   15  C   UNL     1      -7.951  10.808  68.798  1.00  0.00    -0.136 A  
HETATM   16  C   UNL     1      -5.800   9.794  68.406  1.00  0.00    -0.043 A  
HETATM   17  C   UNL     1      -6.694  10.837  68.198  1.00  0.00    -0.063 A  
HETATM   18  C   UNL     1      -6.154   8.742  69.250  1.00  0.00    -0.042 A  
HETATM   19  C   UNL     1      -7.418   8.708  69.870  1.00  0.00    -0.056 A  
HETATM   20  C   UNL     1      -7.725   7.566  70.801  1.00  0.00    -0.083 C  
ENDBRANCH  13  14
ENDBRANCH   6  13
ENDBRANCH   5   6
ENDBRANCH   4   5
ENDBRANCH   2   4
TORSDOF 6
ENDMDL
MODEL      224
REMARK 921   NORMALIZED FREE ENERGY PREDICTED BY IDOCK:   -3.44 KCAL/MOL
REMARK 922        TOTAL FREE ENERGY PREDICTED BY IDOCK:   -5.43 KCAL/MOL
REMARK 923 INTER-LIGAND FREE ENERGY PREDICTED BY IDOCK:   -4.39 KCAL/MOL
REMARK 924 INTRA-LIGAND FREE ENERGY PREDICTED BY IDOCK:   -1.04 KCAL/MOL
REMARK 927      BINDING AFFINITY PREDICTED BY RF-SCORE:    0.00 PKD
ROOT
HETATM    1  C   UNL     1      -7.473   8.683  71.208  1.00  0.00    -0.103 C  
HETATM    2  N   UNL     1      -8.849   9.139  71.342  1.00  0.00    -0.326 NA 
HETATM    3  H   UNL     1      -8.911   9.952  71.954  1.00  0.00     0.000 HD 
ENDROOT
BRANCH   2   4
HETATM    4  C   UNL     1      -9.470   9.406  70.039  1.00  0.00    -0.228 C  
BRANCH   4   5
HETATM    5  C   UNL     1      -8.460   9.060  68.942  1.00  0.00    -0.130 C  
BRANCH   5   6
HETATM    6  C   UNL     1      -8.676   9.852  67.638  1.00  0.00    -0.121 C  
BRANCH   6   7
HETATM    7  C   UNL     1      -7.742  11.057  67.626  1.00  0.00    -0.112 A  
HETATM    8  C   UNL     1      -5.938  13.212  67.651  1.00  0.00    -0.136 A  
HETATM    9  C   UNL     1      -8.000  12.196  68.403  1.00  0.00    -0.152 A  
HETATM   10  C   UNL     1      -6.556  11.013  66.871  1.00  0.00    -0.112 A  
HETATM   11  C   UNL     1      -7.105  13.269  68.410  1.00  0.00    -0.107 A  
HETATM   12  C   UNL     1      -5.663  12.085  66.882  1.00  0.00    -0.068 A  
ENDBRANCH   6   7
BRANCH   6  13
HETATM   13  O   UNL     1     -10.060  10.239  67.497  1.00  0.00    -0.181 OA 
BRANCH  13  14
HETATM   14  C   UNL     1     -10.424  10.745  66.273  1.00  0.00    -0.226 A  
HETATM   15  C   UNL     1     -10.034  10.157  65.060  1.00  0.00    -0.375 A  
HETATM   16  C   UNL     1     -11.123  11.898  63.799  1.00  0.00    -0.510 A  
HETATM   17  C   UNL     1     -10.366  10.734  63.836  1.00  0.00    -0.329 A  
HETATM   18  C   UNL     1     -11.583  12.458  64.990  1.00  0.00    -0.392 A  
HETATM   19  C   UNL     1     -11.263  11.877  66.232  1.00  0.00    -0.392 A  
HETATM   20  C   UNL     1     -11.823  12.506  67.479  1.00  0.00    -0.389 C  
ENDBRANCH  13  14
ENDBRANCH   6  13
ENDBRANCH   5   6
ENDBRANCH   4   5
ENDBRANCH   2   4
TORSDOF 6
ENDMDL
MODEL      225
REMARK 921   NORMALIZED FREE ENERGY PREDICTED BY IDOCK:   -3.44 KCAL/MOL
REMARK 922        TOTAL FREE ENERGY PREDICTED BY IDOCK:   -5.42 KCAL/MOL
REMARK 923 INTER-LIGAND FREE ENERGY PREDICTED BY IDOCK:   -4.98 KCAL/MOL
REMARK 924 INTRA-LIGAND FREE ENERGY PREDICTED BY IDOCK:   -0.44 KCAL/MOL
REMARK 927      BINDING AFFINITY PREDICTED BY RF-SCORE:    0.00 PKD
ROOT
HETATM    1  C   UNL     1      -8.347   5.194  66.852  1.00  0.00    -0.107 C  
HETATM    2  N   UNL     1      -9.079   6.404  66.507  1.00  0.00    -0.147 NA 
HETATM    3  H   UNL     1      -9.108   6.543  65.498  1.00  0.00     0.000 HD 
ENDROOT
BRANCH   2   4
HETATM    4  C   UNL     1     -10.428   6.415  67.084  1.00  0.00    -0.277 C  
BRANCH   4   5
HETATM    5  C   UNL     1     -10.716   7.823  67.614  1.00  0.00    -0.227 C  
BRANCH   5   6
HETATM    6  C   UNL     1      -9.648   8.339  68.597  1.00  0.00    -0.149 C  
BRANCH   6   7
HETATM    7  C   UNL     1     -10.150   8.146  70.024  1.00  0.00    -0.196 A  
HETATM    8  C   UNL     1     -11.165   7.854  72.629  1.00  0.00    -0.459 A  
HETATM    9  C   UNL     1      -9.443   8.646  71.127  1.00  0.00    -0.274 A  
HETATM   10  C   UNL     1     -11.382   7.506  70.250  1.00  0.00    -0.219 A  
HETATM   11  C   UNL     1      -9.946   8.496  72.421  1.00  0.00    -0.365 A  
HETATM   12  C   UNL     1     -11.884   7.360  71.543  1.00  0.00    -0.327 A  
ENDBRANCH   6   7
BRANCH   6  13
HETATM   13  O   UNL     1      -9.321   9.717  68.320  1.00  0.00    -0.129 OA 
BRANCH  13  14
HETATM   14  C   UNL     1      -9.716  10.197  67.095  1.00  0.00    -0.173 A  
HETATM   15  C   UNL     1      -9.102   9.812  65.893  1.00  0.00    -0.209 A  
HETATM   16  C   UNL     1     -10.512  11.301  64.628  1.00  0.00    -0.387 A  
HETATM   17  C   UNL     1      -9.484  10.369  64.674  1.00  0.00    -0.336 A  
HETATM   18  C   UNL     1     -11.185  11.643  65.800  1.00  0.00    -0.290 A  
HETATM   19  C   UNL     1     -10.815  11.078  67.036  1.00  0.00    -0.334 A  
HETATM   20  C   UNL     1     -11.606  11.457  68.259  1.00  0.00    -0.376 C  
ENDBRANCH  13  14
ENDBRANCH   6  13
ENDBRANCH   5   6
ENDBRANCH   4   5
ENDBRANCH   2   4
TORSDOF 6
ENDMDL
MODEL      226
REMARK 921   NORMALIZED FREE ENERGY PREDICTED BY IDOCK:   -3.42 KCAL/MOL
REMARK 922        TOTAL FREE ENERGY PREDICTED BY IDOCK:   -5.40 KCAL/MOL
REMARK 923 INTER-LIGAND FREE ENERGY PREDICTED BY IDOCK:   -4.92 KCAL/MOL
REMARK 924 INTRA-LIGAND FREE ENERGY PREDICTED BY IDOCK:   -0.48 KCAL/MOL
REMARK 927      BINDING AFFINITY PREDICTED BY RF-SCORE:    0.00 PKD
ROOT
HETATM    1  C   UNL     1     -12.517  13.928  71.035  1.00  0.00    -0.377 C  
HETATM    2  N   UNL     1     -11.632  13.071  70.260  1.00  0.00    -0.529 NA 
HETATM    3  H   UNL     1     -11.118  12.429  70.864  1.00  0.00     0.000 HD 
ENDROOT
BRANCH   2   4
HETATM    4  C   UNL     1     -12.350  12.349  69.204  1.00  0.00     0.175 C  
BRANCH   4   5
HETATM    5  C   UNL     1     -11.370  11.390  68.522  1.00  0.00    -0.333 C  
BRANCH   5   6
HETATM    6  C   UNL     1     -10.018  12.041  68.171  1.00  0.00    -0.203 C  
BRANCH   6   7
HETATM    7  C   UNL     1     -10.215  12.996  66.998  1.00  0.00    -0.245 A  
HETATM    8  C   UNL     1     -10.505  14.693  64.776  1.00  0.00    -0.343 A  
HETATM    9  C   UNL     1      -9.808  14.337  67.065  1.00  0.00    -0.254 A  
HETATM   10  C   UNL     1     -10.760  12.518  65.794  1.00  0.00    -0.299 A  
HETATM   11  C   UNL     1      -9.957  15.180  65.962  1.00  0.00    -0.335 A  
HETATM   12  C   UNL     1     -10.906  13.362  64.692  1.00  0.00    -0.405 A  
ENDBRANCH   6   7
BRANCH   6  13
HETATM   13  O   UNL     1      -9.023  11.035  67.889  1.00  0.00    -0.138 OA 
BRANCH  13  14
HETATM   14  C   UNL     1      -9.447   9.730  67.959  1.00  0.00    -0.131 A  
HETATM   15  C   UNL     1     -10.079   9.077  66.890  1.00  0.00    -0.338 A  
HETATM   16  C   UNL     1     -10.382   7.084  68.211  1.00  0.00    -0.223 A  
HETATM   17  C   UNL     1     -10.556   7.774  67.018  1.00  0.00    -0.396 A  
HETATM   18  C   UNL     1      -9.692   7.688  69.261  1.00  0.00    -0.164 A  
HETATM   19  C   UNL     1      -9.196   9.000  69.139  1.00  0.00    -0.144 A  
HETATM   20  C   UNL     1      -8.424   9.582  70.293  1.00  0.00    -0.237 C  
ENDBRANCH  13  14
ENDBRANCH   6  13
ENDBRANCH   5   6
ENDBRANCH   4   5
ENDBRANCH   2   4
TORSDOF 6
ENDMDL
MODEL      227
REMARK 921   NORMALIZED FREE ENERGY PREDICTED BY IDOCK:   -3.42 KCAL/MOL
REMARK 922        TOTAL FREE ENERGY PREDICTED BY IDOCK:   -5.39 KCAL/MOL
REMARK 923 INTER-LIGAND FREE ENERGY PREDICTED BY IDOCK:   -3.99 KCAL/MOL
REMARK 924 INTRA-LIGAND FREE ENERGY PREDICTED BY IDOCK:   -1.40 KCAL/MOL
REMARK 927      BINDING AFFINITY PREDICTED BY RF-SCORE:    0.00 PKD
ROOT
HETATM    1  C   UNL     1      -8.768   5.945  65.557  1.00  0.00    -0.129 C  
HETATM    2  N   UNL     1      -9.415   5.698  66.837  1.00  0.00    -0.130 NA 
HETATM    3  H   UNL     1     -10.430   5.764  66.757  1.00  0.00     0.000 HD 
ENDROOT
BRANCH   2   4
HETATM    4  C   UNL     1      -9.011   4.413  67.419  1.00  0.00    -0.117 C  
BRANCH   4   5
HETATM    5  C   UNL     1      -9.863   4.157  68.666  1.00  0.00    -0.082 C  
BRANCH   5   6
HETATM    6  C   UNL     1      -9.916   5.359  69.629  1.00  0.00    -0.227 C  
BRANCH   6   7
HETATM    7  C   UNL     1      -9.583   4.880  71.039  1.00  0.00    -0.238 A  
HETATM    8  C   UNL     1      -8.865   3.975  73.601  1.00  0.00    -0.093 A  
HETATM    9  C   UNL     1     -10.207   3.757  71.601  1.00  0.00    -0.063 A  
HETATM   10  C   UNL     1      -8.584   5.535  71.780  1.00  0.00    -0.135 A  
HETATM   11  C   UNL     1      -9.853   3.311  72.876  1.00  0.00    -0.195 A  
HETATM   12  C   UNL     1      -8.230   5.087  73.053  1.00  0.00    -0.105 A  
ENDBRANCH   6   7
BRANCH   6  13
HETATM   13  O   UNL     1     -11.203   6.008  69.568  1.00  0.00    -0.398 OA 
BRANCH  13  14
HETATM   14  C   UNL     1     -11.252   7.297  70.043  1.00  0.00    -0.209 A  
HETATM   15  C   UNL     1     -10.657   8.377  69.373  1.00  0.00    -0.204 A  
HETATM   16  C   UNL     1     -11.306   9.897  71.127  1.00  0.00    -0.443 A  
HETATM   17  C   UNL     1     -10.668   9.660  69.916  1.00  0.00    -0.283 A  
HETATM   18  C   UNL     1     -11.968   8.853  71.772  1.00  0.00    -0.429 A  
HETATM   19  C   UNL     1     -11.972   7.554  71.227  1.00  0.00    -0.333 A  
HETATM   20  C   UNL     1     -12.737   6.479  71.950  1.00  0.00    -0.179 C  
ENDBRANCH  13  14
ENDBRANCH   6  13
ENDBRANCH   5   6
ENDBRANCH   4   5
ENDBRANCH   2   4
TORSDOF 6
ENDMDL
MODEL      228
REMARK 921   NORMALIZED FREE ENERGY PREDICTED BY IDOCK:   -3.40 KCAL/MOL
REMARK 922        TOTAL FREE ENERGY PREDICTED BY IDOCK:   -5.37 KCAL/MOL
REMARK 923 INTER-LIGAND FREE ENERGY PREDICTED BY IDOCK:   -3.98 KCAL/MOL
REMARK 924 INTRA-LIGAND FREE ENERGY PREDICTED BY IDOCK:   -1.39 KCAL/MOL
REMARK 927      BINDING AFFINITY PREDICTED BY RF-SCORE:    0.00 PKD
ROOT
HETATM    1  C   UNL     1      -8.544  14.365  68.300  1.00  0.00    -0.170 C  
HETATM    2  N   UNL     1      -9.773  13.843  68.880  1.00  0.00    -0.414 NA 
HETATM    3  H   UNL     1     -10.116  14.448  69.626  1.00  0.00     0.000 HD 
ENDROOT
BRANCH   2   4
HETATM    4  C   UNL     1     -10.807  13.611  67.865  1.00  0.00    -0.250 C  
BRANCH   4   5
HETATM    5  C   UNL     1     -11.479  12.267  68.158  1.00  0.00    -0.371 C  
BRANCH   5   6
HETATM    6  C   UNL     1     -10.795  11.074  67.462  1.00  0.00    -0.263 C  
BRANCH   6   7
HETATM    7  C   UNL     1     -10.499   9.996  68.499  1.00  0.00    -0.229 A  
HETATM    8  C   UNL     1      -9.847   8.049  70.419  1.00  0.00    -0.183 A  
HETATM    9  C   UNL     1     -10.516   8.633  68.169  1.00  0.00    -0.241 A  
HETATM   10  C   UNL     1     -10.138  10.366  69.807  1.00  0.00    -0.201 A  
HETATM   11  C   UNL     1     -10.197   7.666  69.125  1.00  0.00    -0.204 A  
HETATM   12  C   UNL     1      -9.817   9.398  70.760  1.00  0.00    -0.348 A  
ENDBRANCH   6   7
BRANCH   6  13
HETATM   13  O   UNL     1      -9.603  11.501  66.770  1.00  0.00    -0.181 OA 
BRANCH  13  14
HETATM   14  C   UNL     1      -8.957  10.539  66.031  1.00  0.00    -0.167 A  
HETATM   15  C   UNL     1      -9.558   9.881  64.947  1.00  0.00    -0.356 A  
HETATM   16  C   UNL     1      -7.606   8.504  64.626  1.00  0.00    -0.102 A  
HETATM   17  C   UNL     1      -8.897   8.863  64.261  1.00  0.00    -0.022 A  
HETATM   18  C   UNL     1      -6.963   9.195  65.652  1.00  0.00    -0.081 A  
HETATM   19  C   UNL     1      -7.617  10.232  66.345  1.00  0.00    -0.117 A  
HETATM   20  C   UNL     1      -6.855  10.966  67.415  1.00  0.00    -0.079 C  
ENDBRANCH  13  14
ENDBRANCH   6  13
ENDBRANCH   5   6
ENDBRANCH   4   5
ENDBRANCH   2   4
TORSDOF 6
ENDMDL
MODEL      229
REMARK 921   NORMALIZED FREE ENERGY PREDICTED BY IDOCK:   -3.39 KCAL/MOL
REMARK 922        TOTAL FREE ENERGY PREDICTED BY IDOCK:   -5.36 KCAL/MOL
REMARK 923 INTER-LIGAND FREE ENERGY PREDICTED BY IDOCK:   -4.81 KCAL/MOL
REMARK 924 INTRA-LIGAND FREE ENERGY PREDICTED BY IDOCK:   -0.54 KCAL/MOL
REMARK 927      BINDING AFFINITY PREDICTED BY RF-SCORE:    0.00 PKD
ROOT
HETATM    1  C   UNL     1     -10.395  19.290  66.446  1.00  0.00    -0.471 C  
HETATM    2  N   UNL     1      -9.657  18.036  66.419  1.00  0.00    -0.373 NA 
HETATM    3  H   UNL     1      -9.262  17.821  67.335  1.00  0.00     0.000 HD 
ENDROOT
BRANCH   2   4
HETATM    4  C   UNL     1     -10.475  16.925  65.919  1.00  0.00    -0.285 C  
BRANCH   4   5
HETATM    5  C   UNL     1     -11.266  16.341  67.092  1.00  0.00     0.102 C  
BRANCH   5   6
HETATM    6  C   UNL     1     -10.496  15.258  67.873  1.00  0.00    -0.253 C  
BRANCH   6   7
HETATM    7  C   UNL     1     -11.132  15.090  69.249  1.00  0.00    -0.280 A  
HETATM    8  C   UNL     1     -12.202  14.797  71.831  1.00  0.00    -0.415 A  
HETATM    9  C   UNL     1     -11.687  13.868  69.658  1.00  0.00    -0.370 A  
HETATM   10  C   UNL     1     -11.113  16.159  70.162  1.00  0.00    -0.373 A  
HETATM   11  C   UNL     1     -12.223  13.726  70.939  1.00  0.00    -0.427 A  
HETATM   12  C   UNL     1     -11.647  16.013  71.443  1.00  0.00    -0.520 A  
ENDBRANCH   6   7
BRANCH   6  13
HETATM   13  O   UNL     1      -9.094  15.591  67.962  1.00  0.00    -0.180 OA 
BRANCH  13  14
HETATM   14  C   UNL     1      -8.240  14.545  68.212  1.00  0.00    -0.149 A  
HETATM   15  C   UNL     1      -7.309  14.557  69.262  1.00  0.00    -0.126 A  
HETATM   16  C   UNL     1      -6.449  12.404  68.603  1.00  0.00    -0.077 A  
HETATM   17  C   UNL     1      -6.412  13.507  69.447  1.00  0.00    -0.103 A  
HETATM   18  C   UNL     1      -7.415  12.338  67.599  1.00  0.00    -0.134 A  
HETATM   19  C   UNL     1      -8.333  13.389  67.410  1.00  0.00    -0.193 A  
HETATM   20  C   UNL     1      -9.377  13.240  66.336  1.00  0.00    -0.185 C  
ENDBRANCH  13  14
ENDBRANCH   6  13
ENDBRANCH   5   6
ENDBRANCH   4   5
ENDBRANCH   2   4
TORSDOF 6
ENDMDL
MODEL      230
REMARK 921   NORMALIZED FREE ENERGY PREDICTED BY IDOCK:   -3.38 KCAL/MOL
REMARK 922        TOTAL FREE ENERGY PREDICTED BY IDOCK:   -5.35 KCAL/MOL
REMARK 923 INTER-LIGAND FREE ENERGY PREDICTED BY IDOCK:   -4.94 KCAL/MOL
REMARK 924 INTRA-LIGAND FREE ENERGY PREDICTED BY IDOCK:   -0.41 KCAL/MOL
REMARK 927      BINDING AFFINITY PREDICTED BY RF-SCORE:    0.00 PKD
ROOT
HETATM    1  C   UNL     1     -10.645   7.957  66.979  1.00  0.00    -0.311 C  
HETATM    2  N   UNL     1      -9.946   6.782  67.478  1.00  0.00    -0.133 NA 
HETATM    3  H   UNL     1      -9.089   7.042  67.966  1.00  0.00     0.000 HD 
ENDROOT
BRANCH   2   4
HETATM    4  C   UNL     1     -10.807   5.946  68.323  1.00  0.00    -0.240 C  
BRANCH   4   5
HETATM    5  C   UNL     1     -10.969   6.635  69.680  1.00  0.00    -0.367 C  
BRANCH   5   6
HETATM    6  C   UNL     1      -9.687   6.618  70.534  1.00  0.00    -0.176 C  
BRANCH   6   7
HETATM    7  C   UNL     1      -9.453   5.203  71.053  1.00  0.00    -0.214 A  
HETATM    8  C   UNL     1      -9.024   2.636  72.115  1.00  0.00    -0.124 A  
HETATM    9  C   UNL     1      -8.268   4.505  70.778  1.00  0.00    -0.080 A  
HETATM   10  C   UNL     1     -10.414   4.596  71.880  1.00  0.00    -0.172 A  
HETATM   11  C   UNL     1      -8.058   3.227  71.301  1.00  0.00    -0.066 A  
HETATM   12  C   UNL     1     -10.201   3.320  72.405  1.00  0.00    -0.196 A  
ENDBRANCH   6   7
BRANCH   6  13
HETATM   13  O   UNL     1      -9.773   7.580  71.606  1.00  0.00    -0.161 OA 
BRANCH  13  14
HETATM   14  C   UNL     1     -10.652   8.619  71.417  1.00  0.00    -0.264 A  
HETATM   15  C   UNL     1     -11.883   8.705  72.084  1.00  0.00    -0.447 A  
HETATM   16  C   UNL     1     -12.450  10.726  70.901  1.00  0.00    -0.500 A  
HETATM   17  C   UNL     1     -12.780   9.737  71.818  1.00  0.00    -0.519 A  
HETATM   18  C   UNL     1     -11.201  10.701  70.281  1.00  0.00    -0.365 A  
HETATM   19  C   UNL     1     -10.282   9.668  70.551  1.00  0.00    -0.351 A  
HETATM   20  C   UNL     1      -8.936   9.718  69.881  1.00  0.00    -0.254 C  
ENDBRANCH  13  14
ENDBRANCH   6  13
ENDBRANCH   5   6
ENDBRANCH   4   5
ENDBRANCH   2   4
TORSDOF 6
ENDMDL
MODEL      231
REMARK 921   NORMALIZED FREE ENERGY PREDICTED BY IDOCK:   -3.33 KCAL/MOL
REMARK 922        TOTAL FREE ENERGY PREDICTED BY IDOCK:   -5.28 KCAL/MOL
REMARK 923 INTER-LIGAND FREE ENERGY PREDICTED BY IDOCK:   -4.38 KCAL/MOL
REMARK 924 INTRA-LIGAND FREE ENERGY PREDICTED BY IDOCK:   -0.90 KCAL/MOL
REMARK 927      BINDING AFFINITY PREDICTED BY RF-SCORE:    0.00 PKD
ROOT
HETATM    1  C   UNL     1      -8.405   7.527  74.331  1.00  0.00    -0.214 C  
HETATM    2  N   UNL     1      -9.809   7.382  73.976  1.00  0.00    -0.412 NA 
HETATM    3  H   UNL     1     -10.416   7.671  74.744  1.00  0.00     0.000 HD 
ENDROOT
BRANCH   2   4
HETATM    4  C   UNL     1     -10.142   8.096  72.738  1.00  0.00    -0.297 C  
BRANCH   4   5
HETATM    5  C   UNL     1      -8.908   8.095  71.832  1.00  0.00    -0.214 C  
BRANCH   5   6
HETATM    6  C   UNL     1      -9.187   7.555  70.416  1.00  0.00    -0.157 C  
BRANCH   6   7
HETATM    7  C   UNL     1      -9.555   8.721  69.504  1.00  0.00    -0.167 A  
HETATM    8  C   UNL     1     -10.184  10.814  67.736  1.00  0.00    -0.212 A  
HETATM    9  C   UNL     1      -9.013  10.001  69.690  1.00  0.00    -0.221 A  
HETATM   10  C   UNL     1     -10.410   8.506  68.408  1.00  0.00    -0.241 A  
HETATM   11  C   UNL     1      -9.330  11.041  68.814  1.00  0.00    -0.185 A  
HETATM   12  C   UNL     1     -10.724   9.547  67.533  1.00  0.00    -0.311 A  
ENDBRANCH   6   7
BRANCH   6  13
HETATM   13  O   UNL     1     -10.218   6.546  70.447  1.00  0.00    -0.188 OA 
BRANCH  13  14
HETATM   14  C   UNL     1      -9.864   5.307  69.970  1.00  0.00    -0.218 A  
HETATM   15  C   UNL     1      -9.575   5.067  68.617  1.00  0.00    -0.204 A  
HETATM   16  C   UNL     1      -9.243   2.718  69.046  1.00  0.00    -0.221 A  
HETATM   17  C   UNL     1      -9.284   3.784  68.156  1.00  0.00    -0.214 A  
HETATM   18  C   UNL     1      -9.454   2.947  70.405  1.00  0.00    -0.201 A  
HETATM   19  C   UNL     1      -9.739   4.241  70.883  1.00  0.00    -0.266 A  
HETATM   20  C   UNL     1      -9.917   4.430  72.366  1.00  0.00    -0.232 C  
ENDBRANCH  13  14
ENDBRANCH   6  13
ENDBRANCH   5   6
ENDBRANCH   4   5
ENDBRANCH   2   4
TORSDOF 6
ENDMDL
MODEL      232
REMARK 921   NORMALIZED FREE ENERGY PREDICTED BY IDOCK:   -3.32 KCAL/MOL
REMARK 922        TOTAL FREE ENERGY PREDICTED BY IDOCK:   -5.27 KCAL/MOL
REMARK 923 INTER-LIGAND FREE ENERGY PREDICTED BY IDOCK:   -4.39 KCAL/MOL
REMARK 924 INTRA-LIGAND FREE ENERGY PREDICTED BY IDOCK:   -0.88 KCAL/MOL
REMARK 927      BINDING AFFINITY PREDICTED BY RF-SCORE:    0.00 PKD
ROOT
HETATM    1  C   UNL     1      -9.801   4.191  65.836  1.00  0.00    -0.199 C  
HETATM    2  N   UNL     1      -8.984   5.019  66.710  1.00  0.00    -0.113 NA 
HETATM    3  H   UNL     1      -8.942   5.981  66.375  1.00  0.00     0.000 HD 
ENDROOT
BRANCH   2   4
HETATM    4  C   UNL     1      -9.436   4.961  68.105  1.00  0.00    -0.137 C  
BRANCH   4   5
HETATM    5  C   UNL     1      -8.528   5.863  68.946  1.00  0.00    -0.105 C  
BRANCH   5   6
HETATM    6  C   UNL     1      -9.281   7.016  69.638  1.00  0.00    -0.146 C  
BRANCH   6   7
HETATM    7  C   UNL     1      -9.623   6.601  71.065  1.00  0.00    -0.178 A  
HETATM    8  C   UNL     1     -10.349   5.897  73.688  1.00  0.00    -0.257 A  
HETATM    9  C   UNL     1      -8.832   6.993  72.155  1.00  0.00    -0.138 A  
HETATM   10  C   UNL     1     -10.791   5.859  71.315  1.00  0.00    -0.333 A  
HETATM   11  C   UNL     1      -9.191   6.638  73.457  1.00  0.00    -0.156 A  
HETATM   12  C   UNL     1     -11.149   5.508  72.617  1.00  0.00    -0.334 A  
ENDBRANCH   6   7
BRANCH   6  13
HETATM   13  O   UNL     1     -10.455   7.386  68.886  1.00  0.00    -0.204 OA 
BRANCH  13  14
HETATM   14  C   UNL     1     -10.769   8.723  68.875  1.00  0.00    -0.087 A  
HETATM   15  C   UNL     1     -11.182   9.417  70.023  1.00  0.00    -0.217 A  
HETATM   16  C   UNL     1     -11.495  11.444  68.756  1.00  0.00    -0.354 A  
HETATM   17  C   UNL     1     -11.557  10.758  69.962  1.00  0.00    -0.417 A  
HETATM   18  C   UNL     1     -11.017  10.794  67.619  1.00  0.00    -0.365 A  
HETATM   19  C   UNL     1     -10.625   9.442  67.671  1.00  0.00    -0.333 A  
HETATM   20  C   UNL     1     -10.081   8.808  66.419  1.00  0.00    -0.313 C  
ENDBRANCH  13  14
ENDBRANCH   6  13
ENDBRANCH   5   6
ENDBRANCH   4   5
ENDBRANCH   2   4
TORSDOF 6
ENDMDL
MODEL      233
REMARK 921   NORMALIZED FREE ENERGY PREDICTED BY IDOCK:   -3.31 KCAL/MOL
REMARK 922        TOTAL FREE ENERGY PREDICTED BY IDOCK:   -5.25 KCAL/MOL
REMARK 923 INTER-LIGAND FREE ENERGY PREDICTED BY IDOCK:   -4.41 KCAL/MOL
REMARK 924 INTRA-LIGAND FREE ENERGY PREDICTED BY IDOCK:   -0.84 KCAL/MOL
REMARK 927      BINDING AFFINITY PREDICTED BY RF-SCORE:    0.00 PKD
ROOT
HETATM    1  C   UNL     1      -7.623   8.317  69.457  1.00  0.00    -0.095 C  
HETATM    2  N   UNL     1      -8.169   8.212  68.112  1.00  0.00    -0.128 NA 
HETATM    3  H   UNL     1      -8.423   7.250  67.890  1.00  0.00     0.000 HD 
ENDROOT
BRANCH   2   4
HETATM    4  C   UNL     1      -9.301   9.123  67.903  1.00  0.00    -0.137 C  
BRANCH   4   5
HETATM    5  C   UNL     1      -9.985   8.750  66.585  1.00  0.00    -0.355 C  
BRANCH   5   6
HETATM    6  C   UNL     1      -9.806   9.810  65.481  1.00  0.00    -0.308 C  
BRANCH   6   7
HETATM    7  C   UNL     1      -8.748   9.327  64.494  1.00  0.00    -0.218 A  
HETATM    8  C   UNL     1      -6.727   8.423  62.763  1.00  0.00    -0.090 A  
HETATM    9  C   UNL     1      -8.208  10.179  63.520  1.00  0.00    -0.165 A  
HETATM   10  C   UNL     1      -8.249   8.016  64.592  1.00  0.00    -0.109 A  
HETATM   11  C   UNL     1      -7.207   9.727  62.657  1.00  0.00    -0.112 A  
HETATM   12  C   UNL     1      -7.247   7.567  63.731  1.00  0.00    -0.078 A  
ENDBRANCH   6   7
BRANCH   6  13
HETATM   13  O   UNL     1      -9.469  11.092  66.051  1.00  0.00    -0.192 OA 
BRANCH  13  14
HETATM   14  C   UNL     1     -10.186  12.167  65.584  1.00  0.00    -0.256 A  
HETATM   15  C   UNL     1     -11.270  12.035  64.702  1.00  0.00    -0.380 A  
HETATM   16  C   UNL     1     -11.546  14.426  64.590  1.00  0.00    -0.414 A  
HETATM   17  C   UNL     1     -11.932  13.151  64.197  1.00  0.00    -0.499 A  
HETATM   18  C   UNL     1     -10.520  14.578  65.522  1.00  0.00    -0.373 A  
HETATM   19  C   UNL     1      -9.851  13.456  66.048  1.00  0.00    -0.273 A  
HETATM   20  C   UNL     1      -8.780  13.683  67.081  1.00  0.00    -0.224 C  
ENDBRANCH  13  14
ENDBRANCH   6  13
ENDBRANCH   5   6
ENDBRANCH   4   5
ENDBRANCH   2   4
TORSDOF 6
ENDMDL
MODEL      234
REMARK 921   NORMALIZED FREE ENERGY PREDICTED BY IDOCK:   -3.30 KCAL/MOL
REMARK 922        TOTAL FREE ENERGY PREDICTED BY IDOCK:   -5.24 KCAL/MOL
REMARK 923 INTER-LIGAND FREE ENERGY PREDICTED BY IDOCK:   -3.66 KCAL/MOL
REMARK 924 INTRA-LIGAND FREE ENERGY PREDICTED BY IDOCK:   -1.58 KCAL/MOL
REMARK 927      BINDING AFFINITY PREDICTED BY RF-SCORE:    0.00 PKD
ROOT
HETATM    1  C   UNL     1      -8.037  12.681  68.344  1.00  0.00    -0.137 C  
HETATM    2  N   UNL     1      -9.247  11.912  68.593  1.00  0.00    -0.371 NA 
HETATM    3  H   UNL     1      -9.767  12.288  69.387  1.00  0.00     0.000 HD 
ENDROOT
BRANCH   2   4
HETATM    4  C   UNL     1     -10.095  11.817  67.400  1.00  0.00    -0.195 C  
BRANCH   4   5
HETATM    5  C   UNL     1     -10.991  10.583  67.539  1.00  0.00    -0.365 C  
BRANCH   5   6
HETATM    6  C   UNL     1     -10.268   9.261  67.217  1.00  0.00    -0.252 C  
BRANCH   6   7
HETATM    7  C   UNL     1     -10.533   8.263  68.339  1.00  0.00    -0.206 A  
HETATM    8  C   UNL     1     -10.913   6.428  70.434  1.00  0.00    -0.367 A  
HETATM    9  C   UNL     1     -10.939   6.946  68.072  1.00  0.00    -0.241 A  
HETATM   10  C   UNL     1     -10.310   8.639  69.675  1.00  0.00    -0.213 A  
HETATM   11  C   UNL     1     -11.132   6.037  69.115  1.00  0.00    -0.405 A  
HETATM   12  C   UNL     1     -10.501   7.728  70.715  1.00  0.00    -0.213 A  
ENDBRANCH   6   7
BRANCH   6  13
HETATM   13  O   UNL     1      -8.857   9.485  67.015  1.00  0.00    -0.127 OA 
BRANCH  13  14
HETATM   14  C   UNL     1      -8.147   8.431  66.493  1.00  0.00    -0.101 A  
HETATM   15  C   UNL     1      -8.346   7.951  65.189  1.00  0.00    -0.128 A  
HETATM   16  C   UNL     1      -6.725   6.199  65.525  1.00  0.00    -0.048 A  
HETATM   17  C   UNL     1      -7.655   6.838  64.714  1.00  0.00    -0.104 A  
HETATM   18  C   UNL     1      -6.459   6.704  66.797  1.00  0.00    -0.043 A  
HETATM   19  C   UNL     1      -7.143   7.835  67.283  1.00  0.00    -0.086 A  
HETATM   20  C   UNL     1      -6.781   8.355  68.648  1.00  0.00    -0.059 C  
ENDBRANCH  13  14
ENDBRANCH   6  13
ENDBRANCH   5   6
ENDBRANCH   4   5
ENDBRANCH   2   4
TORSDOF 6
ENDMDL
MODEL      235
REMARK 921   NORMALIZED FREE ENERGY PREDICTED BY IDOCK:   -3.29 KCAL/MOL
REMARK 922        TOTAL FREE ENERGY PREDICTED BY IDOCK:   -5.22 KCAL/MOL
REMARK 923 INTER-LIGAND FREE ENERGY PREDICTED BY IDOCK:   -4.32 KCAL/MOL
REMARK 924 INTRA-LIGAND FREE ENERGY PREDICTED BY IDOCK:   -0.90 KCAL/MOL
REMARK 927      BINDING AFFINITY PREDICTED BY RF-SCORE:    0.00 PKD
ROOT
HETATM    1  C   UNL     1      -7.671   7.308  74.565  1.00  0.00    -0.139 C  
HETATM    2  N   UNL     1      -9.115   7.370  74.390  1.00  0.00    -0.416 NA 
HETATM    3  H   UNL     1      -9.558   7.884  75.151  1.00  0.00     0.000 HD 
ENDROOT
BRANCH   2   4
HETATM    4  C   UNL     1      -9.489   7.927  73.084  1.00  0.00    -0.278 C  
BRANCH   4   5
HETATM    5  C   UNL     1      -8.656   7.231  72.005  1.00  0.00    -0.117 C  
BRANCH   5   6
HETATM    6  C   UNL     1      -9.437   6.964  70.704  1.00  0.00    -0.165 C  
BRANCH   6   7
HETATM    7  C   UNL     1      -9.419   5.468  70.410  1.00  0.00    -0.209 A  
HETATM    8  C   UNL     1      -9.481   2.723  69.810  1.00  0.00    -0.155 A  
HETATM    9  C   UNL     1      -9.569   4.516  71.430  1.00  0.00    -0.232 A  
HETATM   10  C   UNL     1      -9.313   5.018  69.082  1.00  0.00    -0.174 A  
HETATM   11  C   UNL     1      -9.594   3.152  71.131  1.00  0.00    -0.230 A  
HETATM   12  C   UNL     1      -9.341   3.655  68.785  1.00  0.00    -0.231 A  
ENDBRANCH   6   7
BRANCH   6  13
HETATM   13  O   UNL     1      -8.893   7.736  69.613  1.00  0.00    -0.138 OA 
BRANCH  13  14
HETATM   14  C   UNL     1      -9.689   8.749  69.134  1.00  0.00    -0.175 A  
HETATM   15  C   UNL     1     -10.463   9.568  69.970  1.00  0.00    -0.283 A  
HETATM   16  C   UNL     1     -11.377  10.740  68.073  1.00  0.00    -0.378 A  
HETATM   17  C   UNL     1     -11.310  10.543  69.446  1.00  0.00    -0.331 A  
HETATM   18  C   UNL     1     -10.562   9.987  67.229  1.00  0.00    -0.319 A  
HETATM   19  C   UNL     1      -9.694   9.007  67.748  1.00  0.00    -0.190 A  
HETATM   20  C   UNL     1      -8.810   8.256  66.789  1.00  0.00    -0.158 C  
ENDBRANCH  13  14
ENDBRANCH   6  13
ENDBRANCH   5   6
ENDBRANCH   4   5
ENDBRANCH   2   4
TORSDOF 6
ENDMDL
MODEL      236
REMARK 921   NORMALIZED FREE ENERGY PREDICTED BY IDOCK:   -3.28 KCAL/MOL
REMARK 922        TOTAL FREE ENERGY PREDICTED BY IDOCK:   -5.21 KCAL/MOL
REMARK 923 INTER-LIGAND FREE ENERGY PREDICTED BY IDOCK:   -4.45 KCAL/MOL
REMARK 924 INTRA-LIGAND FREE ENERGY PREDICTED BY IDOCK:   -0.76 KCAL/MOL
REMARK 927      BINDING AFFINITY PREDICTED BY RF-SCORE:    0.00 PKD
ROOT
HETATM    1  C   UNL     1      -9.424   7.107  74.116  1.00  0.00    -0.241 C  
HETATM    2  N   UNL     1      -9.243   8.129  73.096  1.00  0.00    -0.273 NA 
HETATM    3  H   UNL     1      -8.427   8.708  73.294  1.00  0.00     0.000 HD 
ENDROOT
BRANCH   2   4
HETATM    4  C   UNL     1      -9.174   7.556  71.747  1.00  0.00    -0.140 C  
BRANCH   4   5
HETATM    5  C   UNL     1     -10.529   7.761  71.064  1.00  0.00    -0.216 C  
BRANCH   5   6
HETATM    6  C   UNL     1     -10.471   8.730  69.867  1.00  0.00    -0.221 C  
BRANCH   6   7
HETATM    7  C   UNL     1     -11.249   9.996  70.213  1.00  0.00    -0.379 A  
HETATM    8  C   UNL     1     -12.585  12.375  70.887  1.00  0.00    -0.337 A  
HETATM    9  C   UNL     1     -12.221  10.008  71.225  1.00  0.00    -0.498 A  
HETATM   10  C   UNL     1     -10.951  11.201  69.554  1.00  0.00    -0.276 A  
HETATM   11  C   UNL     1     -12.888  11.190  71.555  1.00  0.00    -0.542 A  
HETATM   12  C   UNL     1     -11.617  12.381  69.887  1.00  0.00    -0.260 A  
ENDBRANCH   6   7
BRANCH   6  13
HETATM   13  O   UNL     1     -10.974   8.097  68.671  1.00  0.00     0.013 OA 
BRANCH  13  14
HETATM   14  C   UNL     1     -10.086   7.296  67.994  1.00  0.00    -0.172 A  
HETATM   15  C   UNL     1     -10.042   5.903  68.158  1.00  0.00    -0.199 A  
HETATM   16  C   UNL     1      -8.171   5.728  66.648  1.00  0.00    -0.106 A  
HETATM   17  C   UNL     1      -9.084   5.128  67.505  1.00  0.00    -0.118 A  
HETATM   18  C   UNL     1      -8.245   7.100  66.414  1.00  0.00    -0.120 A  
HETATM   19  C   UNL     1      -9.215   7.891  67.059  1.00  0.00    -0.181 A  
HETATM   20  C   UNL     1      -9.269   9.360  66.734  1.00  0.00    -0.179 C  
ENDBRANCH  13  14
ENDBRANCH   6  13
ENDBRANCH   5   6
ENDBRANCH   4   5
ENDBRANCH   2   4
TORSDOF 6
ENDMDL
MODEL      237
REMARK 921   NORMALIZED FREE ENERGY PREDICTED BY IDOCK:   -3.28 KCAL/MOL
REMARK 922        TOTAL FREE ENERGY PREDICTED BY IDOCK:   -5.21 KCAL/MOL
REMARK 923 INTER-LIGAND FREE ENERGY PREDICTED BY IDOCK:   -4.23 KCAL/MOL
REMARK 924 INTRA-LIGAND FREE ENERGY PREDICTED BY IDOCK:   -0.98 KCAL/MOL
REMARK 927      BINDING AFFINITY PREDICTED BY RF-SCORE:    0.00 PKD
ROOT
HETATM    1  C   UNL     1     -11.683  13.563  68.837  1.00  0.00    -0.339 C  
HETATM    2  N   UNL     1     -10.902  12.335  68.850  1.00  0.00    -0.300 NA 
HETATM    3  H   UNL     1     -10.694  12.039  69.804  1.00  0.00     0.000 HD 
ENDROOT
BRANCH   2   4
HETATM    4  C   UNL     1     -11.551  11.260  68.090  1.00  0.00    -0.289 C  
BRANCH   4   5
HETATM    5  C   UNL     1     -10.632  10.037  68.100  1.00  0.00    -0.268 C  
BRANCH   5   6
HETATM    6  C   UNL     1      -9.327  10.256  68.890  1.00  0.00    -0.178 C  
BRANCH   6   7
HETATM    7  C   UNL     1      -8.195   9.503  68.201  1.00  0.00    -0.114 A  
HETATM    8  C   UNL     1      -6.051   8.212  66.920  1.00  0.00    -0.054 A  
HETATM    9  C   UNL     1      -8.371   8.894  66.949  1.00  0.00    -0.112 A  
HETATM   10  C   UNL     1      -6.920   9.462  68.793  1.00  0.00    -0.064 A  
HETATM   11  C   UNL     1      -7.307   8.249  66.316  1.00  0.00    -0.078 A  
HETATM   12  C   UNL     1      -5.857   8.819  68.158  1.00  0.00    -0.042 A  
ENDBRANCH   6   7
BRANCH   6  13
HETATM   13  O   UNL     1      -9.487   9.850  70.266  1.00  0.00    -0.232 OA 
BRANCH  13  14
HETATM   14  C   UNL     1     -10.126   8.651  70.471  1.00  0.00    -0.196 A  
HETATM   15  C   UNL     1      -9.538   7.414  70.166  1.00  0.00    -0.165 A  
HETATM   16  C   UNL     1     -11.535   6.236  70.824  1.00  0.00    -0.383 A  
HETATM   17  C   UNL     1     -10.239   6.220  70.324  1.00  0.00    -0.244 A  
HETATM   18  C   UNL     1     -12.111   7.448  71.203  1.00  0.00    -0.357 A  
HETATM   19  C   UNL     1     -11.408   8.659  71.058  1.00  0.00    -0.322 A  
HETATM   20  C   UNL     1     -12.069   9.928  71.523  1.00  0.00    -0.496 C  
ENDBRANCH  13  14
ENDBRANCH   6  13
ENDBRANCH   5   6
ENDBRANCH   4   5
ENDBRANCH   2   4
TORSDOF 6
ENDMDL
MODEL      238
REMARK 921   NORMALIZED FREE ENERGY PREDICTED BY IDOCK:   -3.26 KCAL/MOL
REMARK 922        TOTAL FREE ENERGY PREDICTED BY IDOCK:   -5.18 KCAL/MOL
REMARK 923 INTER-LIGAND FREE ENERGY PREDICTED BY IDOCK:   -5.00 KCAL/MOL
REMARK 924 INTRA-LIGAND FREE ENERGY PREDICTED BY IDOCK:   -0.18 KCAL/MOL
REMARK 927      BINDING AFFINITY PREDICTED BY RF-SCORE:    0.00 PKD
ROOT
HETATM    1  C   UNL     1      -6.563   8.795  64.603  1.00  0.00    -0.066 C  
HETATM    2  N   UNL     1      -6.839   9.596  65.786  1.00  0.00    -0.089 NA 
HETATM    3  H   UNL     1      -6.880  10.590  65.559  1.00  0.00     0.000 HD 
ENDROOT
BRANCH   2   4
HETATM    4  C   UNL     1      -8.057   9.159  66.477  1.00  0.00    -0.107 C  
BRANCH   4   5
HETATM    5  C   UNL     1      -8.265  10.051  67.703  1.00  0.00    -0.114 C  
BRANCH   5   6
HETATM    6  C   UNL     1      -9.749  10.295  68.040  1.00  0.00    -0.149 C  
BRANCH   6   7
HETATM    7  C   UNL     1     -10.166   9.353  69.164  1.00  0.00    -0.209 A  
HETATM    8  C   UNL     1     -10.829   7.624  71.279  1.00  0.00    -0.252 A  
HETATM    9  C   UNL     1     -10.513   8.017  68.913  1.00  0.00    -0.207 A  
HETATM   10  C   UNL     1     -10.147   9.803  70.495  1.00  0.00    -0.289 A  
HETATM   11  C   UNL     1     -10.847   7.161  69.965  1.00  0.00    -0.276 A  
HETATM   12  C   UNL     1     -10.479   8.945  71.545  1.00  0.00    -0.393 A  
ENDBRANCH   6   7
BRANCH   6  13
HETATM   13  O   UNL     1     -10.573  10.135  66.866  1.00  0.00    -0.238 OA 
BRANCH  13  14
HETATM   14  C   UNL     1     -10.781  11.266  66.115  1.00  0.00    -0.250 A  
HETATM   15  C   UNL     1     -10.516  11.325  64.738  1.00  0.00    -0.384 A  
HETATM   16  C   UNL     1     -11.135  13.653  64.659  1.00  0.00    -0.387 A  
HETATM   17  C   UNL     1     -10.675  12.509  64.020  1.00  0.00    -0.449 A  
HETATM   18  C   UNL     1     -11.475  13.597  66.010  1.00  0.00    -0.340 A  
HETATM   19  C   UNL     1     -11.328  12.404  66.743  1.00  0.00    -0.391 A  
HETATM   20  C   UNL     1     -11.750  12.397  68.188  1.00  0.00    -0.408 C  
ENDBRANCH  13  14
ENDBRANCH   6  13
ENDBRANCH   5   6
ENDBRANCH   4   5
ENDBRANCH   2   4
TORSDOF 6
ENDMDL
MODEL      239
REMARK 921   NORMALIZED FREE ENERGY PREDICTED BY IDOCK:   -3.18 KCAL/MOL
REMARK 922        TOTAL FREE ENERGY PREDICTED BY IDOCK:   -5.07 KCAL/MOL
REMARK 923 INTER-LIGAND FREE ENERGY PREDICTED BY IDOCK:   -4.26 KCAL/MOL
REMARK 924 INTRA-LIGAND FREE ENERGY PREDICTED BY IDOCK:   -0.81 KCAL/MOL
REMARK 927      BINDING AFFINITY PREDICTED BY RF-SCORE:    0.00 PKD
ROOT
HETATM    1  C   UNL     1      -5.635   8.293  70.548  1.00  0.00    -0.028 C  
HETATM    2  N   UNL     1      -6.032   8.401  69.151  1.00  0.00    -0.041 NA 
HETATM    3  H   UNL     1      -5.234   8.620  68.556  1.00  0.00     0.000 HD 
ENDROOT
BRANCH   2   4
HETATM    4  C   UNL     1      -6.730   7.198  68.682  1.00  0.00    -0.063 C  
BRANCH   4   5
HETATM    5  C   UNL     1      -7.687   7.602  67.558  1.00  0.00    -0.118 C  
BRANCH   5   6
HETATM    6  C   UNL     1      -8.985   8.261  68.064  1.00  0.00    -0.138 C  
BRANCH   6   7
HETATM    7  C   UNL     1      -9.288   9.485  67.206  1.00  0.00    -0.161 A  
HETATM    8  C   UNL     1      -9.778  11.699  65.546  1.00  0.00    -0.259 A  
HETATM    9  C   UNL     1      -8.905  10.775  67.604  1.00  0.00    -0.132 A  
HETATM   10  C   UNL     1      -9.911   9.324  65.956  1.00  0.00    -0.325 A  
HETATM   11  C   UNL     1      -9.154  11.875  66.780  1.00  0.00    -0.197 A  
HETATM   12  C   UNL     1     -10.156  10.425  65.134  1.00  0.00    -0.379 A  
ENDBRANCH   6   7
BRANCH   6  13
HETATM   13  O   UNL     1      -8.877   8.594  69.464  1.00  0.00    -0.140 OA 
BRANCH  13  14
HETATM   14  C   UNL     1     -10.048   8.568  70.182  1.00  0.00    -0.190 A  
HETATM   15  C   UNL     1     -10.677   9.731  70.655  1.00  0.00    -0.394 A  
HETATM   16  C   UNL     1     -12.395   8.432  71.737  1.00  0.00    -0.375 A  
HETATM   17  C   UNL     1     -11.828   9.664  71.437  1.00  0.00    -0.484 A  
HETATM   18  C   UNL     1     -11.829   7.269  71.216  1.00  0.00    -0.340 A  
HETATM   19  C   UNL     1     -10.672   7.326  70.415  1.00  0.00    -0.253 A  
HETATM   20  C   UNL     1     -10.132   6.039  69.850  1.00  0.00    -0.240 C  
ENDBRANCH  13  14
ENDBRANCH   6  13
ENDBRANCH   5   6
ENDBRANCH   4   5
ENDBRANCH   2   4
TORSDOF 6
ENDMDL
MODEL      240
REMARK 921   NORMALIZED FREE ENERGY PREDICTED BY IDOCK:   -3.18 KCAL/MOL
REMARK 922        TOTAL FREE ENERGY PREDICTED BY IDOCK:   -5.07 KCAL/MOL
REMARK 923 INTER-LIGAND FREE ENERGY PREDICTED BY IDOCK:   -5.28 KCAL/MOL
REMARK 924 INTRA-LIGAND FREE ENERGY PREDICTED BY IDOCK:    0.22 KCAL/MOL
REMARK 927      BINDING AFFINITY PREDICTED BY RF-SCORE:    0.00 PKD
ROOT
HETATM    1  C   UNL     1     -13.573  12.762  71.964  1.00  0.00    -0.367 C  
HETATM    2  N   UNL     1     -13.339  11.351  72.233  1.00  0.00    -0.540 NA 
HETATM    3  H   UNL     1     -14.140  10.926  72.698  1.00  0.00     0.000 HD 
ENDROOT
BRANCH   2   4
HETATM    4  C   UNL     1     -12.976  10.611  71.018  1.00  0.00    -0.363 C  
BRANCH   4   5
HETATM    5  C   UNL     1     -11.967  11.448  70.226  1.00  0.00    -0.460 C  
BRANCH   5   6
HETATM    6  C   UNL     1     -11.965  11.138  68.717  1.00  0.00    -0.268 C  
BRANCH   6   7
HETATM    7  C   UNL     1     -10.655  10.447  68.353  1.00  0.00    -0.238 A  
HETATM    8  C   UNL     1      -8.186   9.271  67.701  1.00  0.00    -0.115 A  
HETATM    9  C   UNL     1     -10.414   9.962  67.059  1.00  0.00    -0.296 A  
HETATM   10  C   UNL     1      -9.631  10.342  69.311  1.00  0.00    -0.226 A  
HETATM   11  C   UNL     1      -9.189   9.373  66.737  1.00  0.00    -0.179 A  
HETATM   12  C   UNL     1      -8.407   9.756  68.987  1.00  0.00    -0.127 A  
ENDBRANCH   6   7
BRANCH   6  13
HETATM   13  O   UNL     1     -12.174  12.340  67.947  1.00  0.00    -0.409 OA 
BRANCH  13  14
HETATM   14  C   UNL     1     -11.119  13.220  67.902  1.00  0.00    -0.262 A  
HETATM   15  C   UNL     1     -10.031  13.058  67.031  1.00  0.00    -0.242 A  
HETATM   16  C   UNL     1      -8.942  15.008  67.937  1.00  0.00    -0.175 A  
HETATM   17  C   UNL     1      -8.946  13.933  67.058  1.00  0.00    -0.251 A  
HETATM   18  C   UNL     1     -10.046  15.230  68.759  1.00  0.00    -0.219 A  
HETATM   19  C   UNL     1     -11.153  14.359  68.732  1.00  0.00    -0.275 A  
HETATM   20  C   UNL     1     -12.331  14.674  69.614  1.00  0.00    -0.270 C  
ENDBRANCH  13  14
ENDBRANCH   6  13
ENDBRANCH   5   6
ENDBRANCH   4   5
ENDBRANCH   2   4
TORSDOF 6
ENDMDL
MODEL      241
REMARK 921   NORMALIZED FREE ENERGY PREDICTED BY IDOCK:   -3.18 KCAL/MOL
REMARK 922        TOTAL FREE ENERGY PREDICTED BY IDOCK:   -5.07 KCAL/MOL
REMARK 923 INTER-LIGAND FREE ENERGY PREDICTED BY IDOCK:   -3.89 KCAL/MOL
REMARK 924 INTRA-LIGAND FREE ENERGY PREDICTED BY IDOCK:   -1.18 KCAL/MOL
REMARK 927      BINDING AFFINITY PREDICTED BY RF-SCORE:    0.00 PKD
ROOT
HETATM    1  C   UNL     1     -12.062  15.036  64.394  1.00  0.00    -0.359 C  
HETATM    2  N   UNL     1     -11.144  14.063  64.968  1.00  0.00    -0.345 NA 
HETATM    3  H   UNL     1     -10.270  14.027  64.445  1.00  0.00     0.000 HD 
ENDROOT
BRANCH   2   4
HETATM    4  C   UNL     1     -10.901  14.310  66.394  1.00  0.00    -0.307 C  
BRANCH   4   5
HETATM    5  C   UNL     1      -9.490  13.823  66.735  1.00  0.00    -0.281 C  
BRANCH   5   6
HETATM    6  C   UNL     1      -9.465  12.716  67.807  1.00  0.00    -0.198 C  
BRANCH   6   7
HETATM    7  C   UNL     1      -8.024  12.263  68.021  1.00  0.00    -0.150 A  
HETATM    8  C   UNL     1      -5.347  11.529  68.463  1.00  0.00    -0.042 A  
HETATM    9  C   UNL     1      -7.168  12.000  66.941  1.00  0.00    -0.040 A  
HETATM   10  C   UNL     1      -7.511  12.162  69.326  1.00  0.00     0.219 A  
HETATM   11  C   UNL     1      -5.839  11.631  67.162  1.00  0.00    -0.122 A  
HETATM   12  C   UNL     1      -6.183  11.795  69.544  1.00  0.00    -0.115 A  
ENDBRANCH   6   7
BRANCH   6  13
HETATM   13  O   UNL     1     -10.326  11.620  67.431  1.00  0.00    -0.199 OA 
BRANCH  13  14
HETATM   14  C   UNL     1     -10.580  10.689  68.409  1.00  0.00    -0.199 A  
HETATM   15  C   UNL     1     -11.210  11.010  69.621  1.00  0.00    -0.345 A  
HETATM   16  C   UNL     1     -10.976   8.745  70.410  1.00  0.00    -0.262 A  
HETATM   17  C   UNL     1     -11.392  10.054  70.618  1.00  0.00    -0.425 A  
HETATM   18  C   UNL     1     -10.415   8.388  69.185  1.00  0.00    -0.218 A  
HETATM   19  C   UNL     1     -10.236   9.343  68.166  1.00  0.00    -0.239 A  
HETATM   20  C   UNL     1      -9.662   8.886  66.852  1.00  0.00    -0.263 C  
ENDBRANCH  13  14
ENDBRANCH   6  13
ENDBRANCH   5   6
ENDBRANCH   4   5
ENDBRANCH   2   4
TORSDOF 6
ENDMDL
MODEL      242
REMARK 921   NORMALIZED FREE ENERGY PREDICTED BY IDOCK:   -3.16 KCAL/MOL
REMARK 922        TOTAL FREE ENERGY PREDICTED BY IDOCK:   -5.05 KCAL/MOL
REMARK 923 INTER-LIGAND FREE ENERGY PREDICTED BY IDOCK:   -5.19 KCAL/MOL
REMARK 924 INTRA-LIGAND FREE ENERGY PREDICTED BY IDOCK:    0.14 KCAL/MOL
REMARK 927      BINDING AFFINITY PREDICTED BY RF-SCORE:    0.00 PKD
ROOT
HETATM    1  C   UNL     1      -6.830  11.185  67.369  1.00  0.00    -0.089 C  
HETATM    2  N   UNL     1      -7.438  12.358  66.759  1.00  0.00    -0.385 NA 
HETATM    3  H   UNL     1      -7.519  12.249  65.748  1.00  0.00     0.000 HD 
ENDROOT
BRANCH   2   4
HETATM    4  C   UNL     1      -8.734  12.685  67.364  1.00  0.00    -0.191 C  
BRANCH   4   5
HETATM    5  C   UNL     1      -9.821  12.519  66.298  1.00  0.00    -0.260 C  
BRANCH   5   6
HETATM    6  C   UNL     1     -11.243  12.412  66.883  1.00  0.00    -0.305 C  
BRANCH   6   7
HETATM    7  C   UNL     1     -11.430  13.498  67.937  1.00  0.00    -0.353 A  
HETATM    8  C   UNL     1     -11.878  15.457  69.903  1.00  0.00    -0.373 A  
HETATM    9  C   UNL     1     -11.525  14.854  67.588  1.00  0.00    -0.366 A  
HETATM   10  C   UNL     1     -11.577  13.142  69.289  1.00  0.00    -0.370 A  
HETATM   11  C   UNL     1     -11.742  15.826  68.566  1.00  0.00    -0.328 A  
HETATM   12  C   UNL     1     -11.796  14.115  70.265  1.00  0.00    -0.373 A  
ENDBRANCH   6   7
BRANCH   6  13
HETATM   13  O   UNL     1     -11.477  11.093  67.419  1.00  0.00    -0.466 OA 
BRANCH  13  14
HETATM   14  C   UNL     1     -10.603  10.113  67.016  1.00  0.00    -0.225 A  
HETATM   15  C   UNL     1     -10.246   9.917  65.672  1.00  0.00    -0.229 A  
HETATM   16  C   UNL     1      -8.881   8.017  66.251  1.00  0.00    -0.191 A  
HETATM   17  C   UNL     1      -9.408   8.871  65.291  1.00  0.00    -0.095 A  
HETATM   18  C   UNL     1      -9.163   8.239  67.599  1.00  0.00    -0.150 A  
HETATM   19  C   UNL     1     -10.000   9.299  67.996  1.00  0.00    -0.216 A  
HETATM   20  C   UNL     1     -10.234   9.510  69.468  1.00  0.00    -0.225 C  
ENDBRANCH  13  14
ENDBRANCH   6  13
ENDBRANCH   5   6
ENDBRANCH   4   5
ENDBRANCH   2   4
TORSDOF 6
ENDMDL
MODEL      243
REMARK 921   NORMALIZED FREE ENERGY PREDICTED BY IDOCK:   -3.14 KCAL/MOL
REMARK 922        TOTAL FREE ENERGY PREDICTED BY IDOCK:   -5.02 KCAL/MOL
REMARK 923 INTER-LIGAND FREE ENERGY PREDICTED BY IDOCK:   -4.06 KCAL/MOL
REMARK 924 INTRA-LIGAND FREE ENERGY PREDICTED BY IDOCK:   -0.96 KCAL/MOL
REMARK 927      BINDING AFFINITY PREDICTED BY RF-SCORE:    0.00 PKD
ROOT
HETATM    1  C   UNL     1     -11.765  14.935  64.399  1.00  0.00    -0.328 C  
HETATM    2  N   UNL     1     -10.643  14.478  65.206  1.00  0.00    -0.356 NA 
HETATM    3  H   UNL     1      -9.851  15.115  65.131  1.00  0.00     0.000 HD 
ENDROOT
BRANCH   2   4
HETATM    4  C   UNL     1     -11.023  14.264  66.607  1.00  0.00    -0.310 C  
BRANCH   4   5
HETATM    5  C   UNL     1      -9.804  14.550  67.488  1.00  0.00    -0.222 C  
BRANCH   5   6
HETATM    6  C   UNL     1      -8.868  15.628  66.908  1.00  0.00    -0.250 C  
BRANCH   6   7
HETATM    7  C   UNL     1      -7.676  15.807  67.843  1.00  0.00    -0.144 A  
HETATM    8  C   UNL     1      -5.456  16.025  69.553  1.00  0.00    -0.122 A  
HETATM    9  C   UNL     1      -7.843  16.167  69.188  1.00  0.00    -0.232 A  
HETATM   10  C   UNL     1      -6.376  15.547  67.373  1.00  0.00    -0.106 A  
HETATM   11  C   UNL     1      -6.738  16.280  70.036  1.00  0.00     0.185 A  
HETATM   12  C   UNL     1      -5.274  15.658  68.222  1.00  0.00    -0.108 A  
ENDBRANCH   6   7
BRANCH   6  13
HETATM   13  O   UNL     1      -9.581  16.866  66.699  1.00  0.00    -0.245 OA 
BRANCH  13  14
HETATM   14  C   UNL     1      -8.811  18.002  66.632  1.00  0.00    -0.266 A  
HETATM   15  C   UNL     1      -7.783  18.170  65.691  1.00  0.00     0.163 A  
HETATM   16  C   UNL     1      -7.206  20.318  66.619  1.00  0.00    -0.307 A  
HETATM   17  C   UNL     1      -6.978  19.308  65.694  1.00  0.00    -0.300 A  
HETATM   18  C   UNL     1      -8.269  20.205  67.514  1.00  0.00    -0.373 A  
HETATM   19  C   UNL     1      -9.096  19.064  67.513  1.00  0.00    -0.322 A  
HETATM   20  C   UNL     1     -10.250  19.019  68.478  1.00  0.00    -0.422 C  
ENDBRANCH  13  14
ENDBRANCH   6  13
ENDBRANCH   5   6
ENDBRANCH   4   5
ENDBRANCH   2   4
TORSDOF 6
ENDMDL
MODEL      244
REMARK 921   NORMALIZED FREE ENERGY PREDICTED BY IDOCK:   -3.13 KCAL/MOL
REMARK 922        TOTAL FREE ENERGY PREDICTED BY IDOCK:   -5.00 KCAL/MOL
REMARK 923 INTER-LIGAND FREE ENERGY PREDICTED BY IDOCK:   -3.93 KCAL/MOL
REMARK 924 INTRA-LIGAND FREE ENERGY PREDICTED BY IDOCK:   -1.07 KCAL/MOL
REMARK 927      BINDING AFFINITY PREDICTED BY RF-SCORE:    0.00 PKD
ROOT
HETATM    1  C   UNL     1      -9.440   7.649  73.376  1.00  0.00    -0.273 C  
HETATM    2  N   UNL     1      -8.731   8.672  72.622  1.00  0.00    -0.408 NA 
HETATM    3  H   UNL     1      -7.859   8.933  73.082  1.00  0.00     0.000 HD 
ENDROOT
BRANCH   2   4
HETATM    4  C   UNL     1      -8.497   8.269  71.230  1.00  0.00    -0.136 C  
BRANCH   4   5
HETATM    5  C   UNL     1      -9.614   8.856  70.363  1.00  0.00    -0.227 C  
BRANCH   5   6
HETATM    6  C   UNL     1      -9.094   9.616  69.126  1.00  0.00    -0.154 C  
BRANCH   6   7
HETATM    7  C   UNL     1      -9.899  10.900  68.958  1.00  0.00    -0.196 A  
HETATM    8  C   UNL     1     -11.305  13.322  68.712  1.00  0.00    -0.331 A  
HETATM    9  C   UNL     1     -11.197  11.029  69.474  1.00  0.00    -0.343 A  
HETATM   10  C   UNL     1      -9.314  12.012  68.327  1.00  0.00    -0.197 A  
HETATM   11  C   UNL     1     -11.896  12.231  69.347  1.00  0.00    -0.370 A  
HETATM   12  C   UNL     1     -10.014  13.213  68.203  1.00  0.00    -0.234 A  
ENDBRANCH   6   7
BRANCH   6  13
HETATM   13  O   UNL     1      -9.155   8.781  67.950  1.00  0.00    -0.139 OA 
BRANCH  13  14
HETATM   14  C   UNL     1      -8.139   8.947  67.040  1.00  0.00    -0.109 A  
HETATM   15  C   UNL     1      -6.809   8.589  67.310  1.00  0.00    -0.067 A  
HETATM   16  C   UNL     1      -6.091   9.410  65.161  1.00  0.00    -0.069 A  
HETATM   17  C   UNL     1      -5.793   8.833  66.389  1.00  0.00    -0.051 A  
HETATM   18  C   UNL     1      -7.416   9.705  64.843  1.00  0.00    -0.118 A  
HETATM   19  C   UNL     1      -8.453   9.454  65.762  1.00  0.00    -0.142 A  
HETATM   20  C   UNL     1      -9.866   9.757  65.344  1.00  0.00    -0.365 C  
ENDBRANCH  13  14
ENDBRANCH   6  13
ENDBRANCH   5   6
ENDBRANCH   4   5
ENDBRANCH   2   4
TORSDOF 6
ENDMDL
MODEL      245
REMARK 921   NORMALIZED FREE ENERGY PREDICTED BY IDOCK:   -3.13 KCAL/MOL
REMARK 922        TOTAL FREE ENERGY PREDICTED BY IDOCK:   -5.00 KCAL/MOL
REMARK 923 INTER-LIGAND FREE ENERGY PREDICTED BY IDOCK:   -4.08 KCAL/MOL
REMARK 924 INTRA-LIGAND FREE ENERGY PREDICTED BY IDOCK:   -0.92 KCAL/MOL
REMARK 927      BINDING AFFINITY PREDICTED BY RF-SCORE:    0.00 PKD
ROOT
HETATM    1  C   UNL     1      -7.206   9.997  69.846  1.00  0.00    -0.145 C  
HETATM    2  N   UNL     1      -7.294  10.750  68.603  1.00  0.00    -0.090 NA 
HETATM    3  H   UNL     1      -6.814  10.267  67.844  1.00  0.00     0.000 HD 
ENDROOT
BRANCH   2   4
HETATM    4  C   UNL     1      -8.683  11.058  68.242  1.00  0.00    -0.144 C  
BRANCH   4   5
HETATM    5  C   UNL     1      -8.676  11.882  66.952  1.00  0.00    -0.191 C  
BRANCH   5   6
HETATM    6  C   UNL     1      -9.051  13.361  67.167  1.00  0.00    -0.235 C  
BRANCH   6   7
HETATM    7  C   UNL     1     -10.318  13.674  66.378  1.00  0.00    -0.286 A  
HETATM    8  C   UNL     1     -12.632  14.159  64.859  1.00  0.00    -0.362 A  
HETATM    9  C   UNL     1     -10.438  14.842  65.611  1.00  0.00    -0.366 A  
HETATM   10  C   UNL     1     -11.375  12.747  66.360  1.00  0.00    -0.369 A  
HETATM   11  C   UNL     1     -11.590  15.085  64.861  1.00  0.00    -0.374 A  
HETATM   12  C   UNL     1     -12.525  12.990  65.607  1.00  0.00    -0.452 A  
ENDBRANCH   6   7
BRANCH   6  13
HETATM   13  O   UNL     1      -7.956  14.225  66.797  1.00  0.00     0.040 OA 
BRANCH  13  14
HETATM   14  C   UNL     1      -7.336  14.891  67.827  1.00  0.00    -0.166 A  
HETATM   15  C   UNL     1      -7.047  14.285  69.059  1.00  0.00    -0.116 A  
HETATM   16  C   UNL     1      -6.156  16.348  69.931  1.00  0.00    -0.187 A  
HETATM   17  C   UNL     1      -6.478  15.008  70.106  1.00  0.00    -0.136 A  
HETATM   18  C   UNL     1      -6.367  16.950  68.691  1.00  0.00    -0.161 A  
HETATM   19  C   UNL     1      -6.932  16.226  67.623  1.00  0.00    -0.168 A  
HETATM   20  C   UNL     1      -7.097  16.921  66.298  1.00  0.00    -0.170 C  
ENDBRANCH  13  14
ENDBRANCH   6  13
ENDBRANCH   5   6
ENDBRANCH   4   5
ENDBRANCH   2   4
TORSDOF 6
ENDMDL
MODEL      246
REMARK 921   NORMALIZED FREE ENERGY PREDICTED BY IDOCK:   -3.13 KCAL/MOL
REMARK 922        TOTAL FREE ENERGY PREDICTED BY IDOCK:   -5.00 KCAL/MOL
REMARK 923 INTER-LIGAND FREE ENERGY PREDICTED BY IDOCK:   -4.71 KCAL/MOL
REMARK 924 INTRA-LIGAND FREE ENERGY PREDICTED BY IDOCK:   -0.29 KCAL/MOL
REMARK 927      BINDING AFFINITY PREDICTED BY RF-SCORE:    0.00 PKD
ROOT
HETATM    1  C   UNL     1      -5.832  16.652  69.786  1.00  0.00    -0.206 C  
HETATM    2  N   UNL     1      -5.637  15.212  69.707  1.00  0.00    -0.104 NA 
HETATM    3  H   UNL     1      -5.089  14.870  70.496  1.00  0.00     0.000 HD 
ENDROOT
BRANCH   2   4
HETATM    4  C   UNL     1      -6.909  14.489  69.590  1.00  0.00    -0.142 C  
BRANCH   4   5
HETATM    5  C   UNL     1      -7.937  15.422  68.945  1.00  0.00    -0.177 C  
BRANCH   5   6
HETATM    6  C   UNL     1      -9.032  14.677  68.156  1.00  0.00    -0.179 C  
BRANCH   6   7
HETATM    7  C   UNL     1     -10.243  14.470  69.060  1.00  0.00    -0.210 A  
HETATM    8  C   UNL     1     -12.536  14.060  70.633  1.00  0.00    -0.435 A  
HETATM    9  C   UNL     1     -10.839  15.538  69.747  1.00  0.00    -0.301 A  
HETATM   10  C   UNL     1     -10.825  13.195  69.166  1.00  0.00    -0.139 A  
HETATM   11  C   UNL     1     -11.974  15.332  70.533  1.00  0.00    -0.384 A  
HETATM   12  C   UNL     1     -11.961  12.992  69.949  1.00  0.00    -0.381 A  
ENDBRANCH   6   7
BRANCH   6  13
HETATM   13  O   UNL     1      -8.527  13.430  67.634  1.00  0.00    -0.161 OA 
BRANCH  13  14
HETATM   14  C   UNL     1      -9.233  12.882  66.591  1.00  0.00    -0.221 A  
HETATM   15  C   UNL     1     -10.180  13.606  65.850  1.00  0.00    -0.318 A  
HETATM   16  C   UNL     1     -10.718  11.664  64.529  1.00  0.00    -0.378 A  
HETATM   17  C   UNL     1     -10.927  13.001  64.841  1.00  0.00    -0.329 A  
HETATM   18  C   UNL     1      -9.730  10.946  65.202  1.00  0.00    -0.312 A  
HETATM   19  C   UNL     1      -8.962  11.551  66.216  1.00  0.00    -0.199 A  
HETATM   20  C   UNL     1      -7.885  10.735  66.877  1.00  0.00    -0.130 C  
ENDBRANCH  13  14
ENDBRANCH   6  13
ENDBRANCH   5   6
ENDBRANCH   4   5
ENDBRANCH   2   4
TORSDOF 6
ENDMDL
MODEL      247
REMARK 921   NORMALIZED FREE ENERGY PREDICTED BY IDOCK:   -3.08 KCAL/MOL
REMARK 922        TOTAL FREE ENERGY PREDICTED BY IDOCK:   -4.93 KCAL/MOL
REMARK 923 INTER-LIGAND FREE ENERGY PREDICTED BY IDOCK:   -3.80 KCAL/MOL
REMARK 924 INTRA-LIGAND FREE ENERGY PREDICTED BY IDOCK:   -1.14 KCAL/MOL
REMARK 927      BINDING AFFINITY PREDICTED BY RF-SCORE:    0.00 PKD
ROOT
HETATM    1  C   UNL     1      -5.635   8.027  72.045  1.00  0.00    -0.036 C  
HETATM    2  N   UNL     1      -7.023   7.608  72.170  1.00  0.00    -0.062 NA 
HETATM    3  H   UNL     1      -7.178   7.095  73.038  1.00  0.00     0.000 HD 
ENDROOT
BRANCH   2   4
HETATM    4  C   UNL     1      -7.953   8.738  72.048  1.00  0.00     0.014 C  
BRANCH   4   5
HETATM    5  C   UNL     1      -9.367   8.235  72.351  1.00  0.00    -0.338 C  
BRANCH   5   6
HETATM    6  C   UNL     1      -9.915   7.267  71.284  1.00  0.00    -0.188 C  
BRANCH   6   7
HETATM    7  C   UNL     1     -10.179   5.912  71.932  1.00  0.00    -0.246 A  
HETATM    8  C   UNL     1     -10.641   3.459  73.225  1.00  0.00    -0.278 A  
HETATM    9  C   UNL     1      -9.371   4.797  71.661  1.00  0.00    -0.194 A  
HETATM   10  C   UNL     1     -11.215   5.777  72.872  1.00  0.00    -0.319 A  
HETATM   11  C   UNL     1      -9.605   3.578  72.300  1.00  0.00    -0.206 A  
HETATM   12  C   UNL     1     -11.446   4.559  73.512  1.00  0.00    -0.287 A  
ENDBRANCH   6   7
BRANCH   6  13
HETATM   13  O   UNL     1      -9.006   7.166  70.169  1.00  0.00    -0.145 OA 
BRANCH  13  14
HETATM   14  C   UNL     1      -9.436   7.719  68.987  1.00  0.00    -0.150 A  
HETATM   15  C   UNL     1      -9.257   9.075  68.672  1.00  0.00    -0.136 A  
HETATM   16  C   UNL     1     -10.436   8.805  66.587  1.00  0.00    -0.240 A  
HETATM   17  C   UNL     1      -9.766   9.617  67.493  1.00  0.00    -0.195 A  
HETATM   18  C   UNL     1     -10.560   7.441  66.845  1.00  0.00    -0.375 A  
HETATM   19  C   UNL     1     -10.040   6.880  68.028  1.00  0.00    -0.193 A  
HETATM   20  C   UNL     1     -10.171   5.394  68.231  1.00  0.00    -0.224 C  
ENDBRANCH  13  14
ENDBRANCH   6  13
ENDBRANCH   5   6
ENDBRANCH   4   5
ENDBRANCH   2   4
TORSDOF 6
ENDMDL
MODEL      248
REMARK 921   NORMALIZED FREE ENERGY PREDICTED BY IDOCK:   -3.07 KCAL/MOL
REMARK 922        TOTAL FREE ENERGY PREDICTED BY IDOCK:   -4.92 KCAL/MOL
REMARK 923 INTER-LIGAND FREE ENERGY PREDICTED BY IDOCK:   -4.03 KCAL/MOL
REMARK 924 INTRA-LIGAND FREE ENERGY PREDICTED BY IDOCK:   -0.90 KCAL/MOL
REMARK 927      BINDING AFFINITY PREDICTED BY RF-SCORE:    0.00 PKD
ROOT
HETATM    1  C   UNL     1      -7.426  11.442  68.908  1.00  0.00    -0.113 C  
HETATM    2  N   UNL     1      -8.858  11.659  68.769  1.00  0.00    -0.361 NA 
HETATM    3  H   UNL     1      -9.053  12.490  68.210  1.00  0.00     0.000 HD 
ENDROOT
BRANCH   2   4
HETATM    4  C   UNL     1      -9.544  10.481  68.226  1.00  0.00    -0.158 C  
BRANCH   4   5
HETATM    5  C   UNL     1      -8.646   9.259  68.435  1.00  0.00    -0.124 C  
BRANCH   5   6
HETATM    6  C   UNL     1      -9.430   7.950  68.647  1.00  0.00    -0.149 C  
BRANCH   6   7
HETATM    7  C   UNL     1      -9.929   7.896  70.087  1.00  0.00    -0.190 A  
HETATM    8  C   UNL     1     -10.938   7.860  72.710  1.00  0.00    -0.456 A  
HETATM    9  C   UNL     1      -9.217   8.496  71.136  1.00  0.00    -0.248 A  
HETATM   10  C   UNL     1     -11.163   7.287  70.376  1.00  0.00    -0.302 A  
HETATM   11  C   UNL     1      -9.717   8.473  72.439  1.00  0.00    -0.357 A  
HETATM   12  C   UNL     1     -11.662   7.267  71.679  1.00  0.00    -0.316 A  
ENDBRANCH   6   7
BRANCH   6  13
HETATM   13  O   UNL     1      -8.616   6.806  68.313  1.00  0.00    -0.124 OA 
BRANCH  13  14
HETATM   14  C   UNL     1      -9.039   6.055  67.243  1.00  0.00    -0.111 A  
HETATM   15  C   UNL     1     -10.380   5.686  67.056  1.00  0.00    -0.306 A  
HETATM   16  C   UNL     1      -9.818   4.428  65.078  1.00  0.00    -0.169 A  
HETATM   17  C   UNL     1     -10.764   4.868  65.995  1.00  0.00    -0.247 A  
HETATM   18  C   UNL     1      -8.492   4.844  65.204  1.00  0.00    -0.139 A  
HETATM   19  C   UNL     1      -8.096   5.679  66.266  1.00  0.00    -0.107 A  
HETATM   20  C   UNL     1      -6.659   6.125  66.324  1.00  0.00    -0.048 C  
ENDBRANCH  13  14
ENDBRANCH   6  13
ENDBRANCH   5   6
ENDBRANCH   4   5
ENDBRANCH   2   4
TORSDOF 6
ENDMDL
MODEL      249
REMARK 921   NORMALIZED FREE ENERGY PREDICTED BY IDOCK:   -3.05 KCAL/MOL
REMARK 922        TOTAL FREE ENERGY PREDICTED BY IDOCK:   -4.90 KCAL/MOL
REMARK 923 INTER-LIGAND FREE ENERGY PREDICTED BY IDOCK:   -4.88 KCAL/MOL
REMARK 924 INTRA-LIGAND FREE ENERGY PREDICTED BY IDOCK:   -0.02 KCAL/MOL
REMARK 927      BINDING AFFINITY PREDICTED BY RF-SCORE:    0.00 PKD
ROOT
HETATM    1  C   UNL     1     -13.400  12.976  71.948  1.00  0.00    -0.446 C  
HETATM    2  N   UNL     1     -13.289  11.540  72.157  1.00  0.00    -0.562 NA 
HETATM    3  H   UNL     1     -14.138  11.161  72.577  1.00  0.00     0.000 HD 
ENDROOT
BRANCH   2   4
HETATM    4  C   UNL     1     -12.944  10.827  70.921  1.00  0.00    -0.296 C  
BRANCH   4   5
HETATM    5  C   UNL     1     -11.653  11.429  70.360  1.00  0.00    -0.267 C  
BRANCH   5   6
HETATM    6  C   UNL     1     -11.083  10.649  69.160  1.00  0.00    -0.255 C  
BRANCH   6   7
HETATM    7  C   UNL     1     -10.407   9.380  69.667  1.00  0.00    -0.229 A  
HETATM    8  C   UNL     1      -9.261   6.990  70.605  1.00  0.00    -0.158 A  
HETATM    9  C   UNL     1      -9.778   9.332  70.921  1.00  0.00    -0.346 A  
HETATM   10  C   UNL     1     -10.461   8.204  68.898  1.00  0.00    -0.202 A  
HETATM   11  C   UNL     1      -9.204   8.146  71.383  1.00  0.00    -0.195 A  
HETATM   12  C   UNL     1      -9.890   7.019  69.363  1.00  0.00    -0.160 A  
ENDBRANCH   6   7
BRANCH   6  13
HETATM   13  O   UNL     1     -10.180  11.475  68.395  1.00  0.00    -0.191 OA 
BRANCH  13  14
HETATM   14  C   UNL     1     -10.486  12.813  68.339  1.00  0.00    -0.243 A  
HETATM   15  C   UNL     1     -10.289  13.684  69.421  1.00  0.00     0.266 A  
HETATM   16  C   UNL     1     -11.233  15.526  68.185  1.00  0.00    -0.343 A  
HETATM   17  C   UNL     1     -10.673  15.022  69.352  1.00  0.00    -0.267 A  
HETATM   18  C   UNL     1     -11.369  14.695  67.073  1.00  0.00    -0.362 A  
HETATM   19  C   UNL     1     -10.975  13.344  67.128  1.00  0.00    -0.292 A  
HETATM   20  C   UNL     1     -11.110  12.510  65.883  1.00  0.00    -0.334 C  
ENDBRANCH  13  14
ENDBRANCH   6  13
ENDBRANCH   5   6
ENDBRANCH   4   5
ENDBRANCH   2   4
TORSDOF 6
ENDMDL
MODEL      250
REMARK 921   NORMALIZED FREE ENERGY PREDICTED BY IDOCK:   -3.02 KCAL/MOL
REMARK 922        TOTAL FREE ENERGY PREDICTED BY IDOCK:   -4.85 KCAL/MOL
REMARK 923 INTER-LIGAND FREE ENERGY PREDICTED BY IDOCK:   -4.03 KCAL/MOL
REMARK 924 INTRA-LIGAND FREE ENERGY PREDICTED BY IDOCK:   -0.82 KCAL/MOL
REMARK 927      BINDING AFFINITY PREDICTED BY RF-SCORE:    0.00 PKD
ROOT
HETATM    1  C   UNL     1     -11.483  12.230  67.279  1.00  0.00    -0.357 C  
HETATM    2  N   UNL     1     -10.369  11.715  68.063  1.00  0.00    -0.186 NA 
HETATM    3  H   UNL     1     -10.640  11.562  69.034  1.00  0.00     0.000 HD 
ENDROOT
BRANCH   2   4
HETATM    4  C   UNL     1      -9.796  10.500  67.473  1.00  0.00    -0.168 C  
BRANCH   4   5
HETATM    5  C   UNL     1      -9.163   9.671  68.593  1.00  0.00    -0.136 C  
BRANCH   5   6
HETATM    6  C   UNL     1      -9.670   8.217  68.642  1.00  0.00    -0.153 C  
BRANCH   6   7
HETATM    7  C   UNL     1     -10.354   7.972  69.983  1.00  0.00    -0.218 A  
HETATM    8  C   UNL     1     -11.713   7.548  72.406  1.00  0.00    -0.335 A  
HETATM    9  C   UNL     1     -10.097   8.784  71.098  1.00  0.00    -0.317 A  
HETATM   10  C   UNL     1     -11.313   6.952  70.101  1.00  0.00    -0.364 A  
HETATM   11  C   UNL     1     -10.769   8.569  72.303  1.00  0.00    -0.411 A  
HETATM   12  C   UNL     1     -11.986   6.740  71.306  1.00  0.00    -0.414 A  
ENDBRANCH   6   7
BRANCH   6  13
HETATM   13  O   UNL     1      -8.589   7.289  68.409  1.00  0.00    -0.124 OA 
BRANCH  13  14
HETATM   14  C   UNL     1      -8.358   6.948  67.098  1.00  0.00    -0.121 A  
HETATM   15  C   UNL     1      -7.463   7.650  66.276  1.00  0.00    -0.083 A  
HETATM   16  C   UNL     1      -8.011   6.253  64.390  1.00  0.00    -0.113 A  
HETATM   17  C   UNL     1      -7.303   7.317  64.932  1.00  0.00    -0.080 A  
HETATM   18  C   UNL     1      -8.849   5.496  65.208  1.00  0.00    -0.112 A  
HETATM   19  C   UNL     1      -9.011   5.816  66.569  1.00  0.00    -0.128 A  
HETATM   20  C   UNL     1      -9.898   4.937  67.408  1.00  0.00    -0.213 C  
ENDBRANCH  13  14
ENDBRANCH   6  13
ENDBRANCH   5   6
ENDBRANCH   4   5
ENDBRANCH   2   4
TORSDOF 6
ENDMDL
MODEL      251
REMARK 921   NORMALIZED FREE ENERGY PREDICTED BY IDOCK:   -3.00 KCAL/MOL
REMARK 922        TOTAL FREE ENERGY PREDICTED BY IDOCK:   -4.83 KCAL/MOL
REMARK 923 INTER-LIGAND FREE ENERGY PREDICTED BY IDOCK:   -4.07 KCAL/MOL
REMARK 924 INTRA-LIGAND FREE ENERGY PREDICTED BY IDOCK:   -0.76 KCAL/MOL
REMARK 927      BINDING AFFINITY PREDICTED BY RF-SCORE:    0.00 PKD
ROOT
HETATM    1  C   UNL     1      -9.127  10.557  67.936  1.00  0.00    -0.136 C  
HETATM    2  N   UNL     1      -8.190   9.581  67.400  1.00  0.00    -0.113 NA 
HETATM    3  H   UNL     1      -7.433   9.396  68.058  1.00  0.00     0.000 HD 
ENDROOT
BRANCH   2   4
HETATM    4  C   UNL     1      -8.858   8.339  66.995  1.00  0.00    -0.135 C  
BRANCH   4   5
HETATM    5  C   UNL     1      -9.089   7.485  68.244  1.00  0.00    -0.132 C  
BRANCH   5   6
HETATM    6  C   UNL     1     -10.579   7.286  68.584  1.00  0.00    -0.168 C  
BRANCH   6   7
HETATM    7  C   UNL     1     -10.782   7.512  70.079  1.00  0.00    -0.248 A  
HETATM    8  C   UNL     1     -11.062   7.868  72.853  1.00  0.00    -0.442 A  
HETATM    9  C   UNL     1     -11.886   6.978  70.760  1.00  0.00    -0.401 A  
HETATM   10  C   UNL     1      -9.815   8.218  70.816  1.00  0.00    -0.205 A  
HETATM   11  C   UNL     1     -12.027   7.160  72.138  1.00  0.00    -0.304 A  
HETATM   12  C   UNL     1      -9.957   8.397  72.192  1.00  0.00    -0.376 A  
ENDBRANCH   6   7
BRANCH   6  13
HETATM   13  O   UNL     1     -11.030   5.980  68.168  1.00  0.00    -0.300 OA 
BRANCH  13  14
HETATM   14  C   UNL     1     -10.096   4.973  68.223  1.00  0.00    -0.103 A  
HETATM   15  C   UNL     1      -9.604   4.457  69.432  1.00  0.00    -0.269 A  
HETATM   16  C   UNL     1      -8.106   2.979  68.259  1.00  0.00    -0.074 A  
HETATM   17  C   UNL     1      -8.608   3.483  69.451  1.00  0.00    -0.111 A  
HETATM   18  C   UNL     1      -8.633   3.424  67.047  1.00  0.00    -0.119 A  
HETATM   19  C   UNL     1      -9.647   4.401  67.016  1.00  0.00    -0.221 A  
HETATM   20  C   UNL     1     -10.202   4.811  65.679  1.00  0.00    -0.213 C  
ENDBRANCH  13  14
ENDBRANCH   6  13
ENDBRANCH   5   6
ENDBRANCH   4   5
ENDBRANCH   2   4
TORSDOF 6
ENDMDL
MODEL      252
REMARK 921   NORMALIZED FREE ENERGY PREDICTED BY IDOCK:   -2.99 KCAL/MOL
REMARK 922        TOTAL FREE ENERGY PREDICTED BY IDOCK:   -4.82 KCAL/MOL
REMARK 923 INTER-LIGAND FREE ENERGY PREDICTED BY IDOCK:   -4.11 KCAL/MOL
REMARK 924 INTRA-LIGAND FREE ENERGY PREDICTED BY IDOCK:   -0.71 KCAL/MOL
REMARK 927      BINDING AFFINITY PREDICTED BY RF-SCORE:    0.00 PKD
ROOT
HETATM    1  C   UNL     1     -10.950  11.265  64.437  1.00  0.00    -0.261 C  
HETATM    2  N   UNL     1     -10.286   9.991  64.670  1.00  0.00    -0.331 NA 
HETATM    3  H   UNL     1     -10.649   9.266  64.051  1.00  0.00     0.000 HD 
ENDROOT
BRANCH   2   4
HETATM    4  C   UNL     1      -8.827  10.102  64.560  1.00  0.00    -0.204 C  
BRANCH   4   5
HETATM    5  C   UNL     1      -8.197   9.441  65.788  1.00  0.00    -0.116 C  
BRANCH   5   6
HETATM    6  C   UNL     1      -8.981   9.692  67.090  1.00  0.00    -0.134 C  
BRANCH   6   7
HETATM    7  C   UNL     1      -8.807  11.150  67.503  1.00  0.00    -0.139 A  
HETATM    8  C   UNL     1      -8.547  13.867  68.173  1.00  0.00    -0.180 A  
HETATM    9  C   UNL     1      -7.550  11.773  67.488  1.00  0.00    -0.135 A  
HETATM   10  C   UNL     1      -9.933  11.917  67.848  1.00  0.00    -0.195 A  
HETATM   11  C   UNL     1      -7.421  13.122  67.827  1.00  0.00    -0.150 A  
HETATM   12  C   UNL     1      -9.803  13.266  68.184  1.00  0.00    -0.231 A  
ENDBRANCH   6   7
BRANCH   6  13
HETATM   13  O   UNL     1      -8.558   8.782  68.127  1.00  0.00    -0.132 OA 
BRANCH  13  14
HETATM   14  C   UNL     1      -9.444   8.587  69.158  1.00  0.00    -0.154 A  
HETATM   15  C   UNL     1      -9.486   9.411  70.293  1.00  0.00    -0.294 A  
HETATM   16  C   UNL     1     -11.223   8.064  71.281  1.00  0.00    -0.287 A  
HETATM   17  C   UNL     1     -10.353   9.145  71.351  1.00  0.00    -0.409 A  
HETATM   18  C   UNL     1     -11.250   7.275  70.131  1.00  0.00    -0.264 A  
HETATM   19  C   UNL     1     -10.385   7.542  69.052  1.00  0.00    -0.217 A  
HETATM   20  C   UNL     1     -10.491   6.680  67.823  1.00  0.00    -0.275 C  
ENDBRANCH  13  14
ENDBRANCH   6  13
ENDBRANCH   5   6
ENDBRANCH   4   5
ENDBRANCH   2   4
TORSDOF 6
ENDMDL
MODEL      253
REMARK 921   NORMALIZED FREE ENERGY PREDICTED BY IDOCK:   -2.98 KCAL/MOL
REMARK 922        TOTAL FREE ENERGY PREDICTED BY IDOCK:   -4.81 KCAL/MOL
REMARK 923 INTER-LIGAND FREE ENERGY PREDICTED BY IDOCK:   -4.07 KCAL/MOL
REMARK 924 INTRA-LIGAND FREE ENERGY PREDICTED BY IDOCK:   -0.74 KCAL/MOL
REMARK 927      BINDING AFFINITY PREDICTED BY RF-SCORE:    0.00 PKD
ROOT
HETATM    1  C   UNL     1     -10.562   4.593  65.647  1.00  0.00    -0.203 C  
HETATM    2  N   UNL     1     -10.394   6.003  65.963  1.00  0.00    -0.406 NA 
HETATM    3  H   UNL     1     -10.718   6.595  65.198  1.00  0.00     0.000 HD 
ENDROOT
BRANCH   2   4
HETATM    4  C   UNL     1     -11.044   6.366  67.228  1.00  0.00    -0.330 C  
BRANCH   4   5
HETATM    5  C   UNL     1     -10.031   6.188  68.361  1.00  0.00    -0.162 C  
BRANCH   5   6
HETATM    6  C   UNL     1      -9.558   7.520  68.976  1.00  0.00    -0.153 C  
BRANCH   6   7
HETATM    7  C   UNL     1     -10.303   7.755  70.286  1.00  0.00    -0.215 A  
HETATM    8  C   UNL     1     -11.713   8.083  72.695  1.00  0.00    -0.418 A  
HETATM    9  C   UNL     1     -11.367   8.665  70.374  1.00  0.00    -0.203 A  
HETATM   10  C   UNL     1      -9.966   7.004  71.425  1.00  0.00    -0.190 A  
HETATM   11  C   UNL     1     -12.063   8.831  71.573  1.00  0.00    -0.388 A  
HETATM   12  C   UNL     1     -10.665   7.169  72.622  1.00  0.00    -0.303 A  
ENDBRANCH   6   7
BRANCH   6  13
HETATM   13  O   UNL     1      -9.743   8.607  68.045  1.00  0.00    -0.150 OA 
BRANCH  13  14
HETATM   14  C   UNL     1      -8.812   9.616  68.103  1.00  0.00    -0.119 A  
HETATM   15  C   UNL     1      -8.160   9.983  69.290  1.00  0.00    -0.141 A  
HETATM   16  C   UNL     1      -6.988  11.763  68.165  1.00  0.00    -0.076 A  
HETATM   17  C   UNL     1      -7.270  11.055  69.326  1.00  0.00    -0.124 A  
HETATM   18  C   UNL     1      -7.567  11.368  66.960  1.00  0.00    -0.151 A  
HETATM   19  C   UNL     1      -8.460  10.280  66.910  1.00  0.00    -0.126 A  
HETATM   20  C   UNL     1      -9.021   9.878  65.573  1.00  0.00    -0.209 C  
ENDBRANCH  13  14
ENDBRANCH   6  13
ENDBRANCH   5   6
ENDBRANCH   4   5
ENDBRANCH   2   4
TORSDOF 6
ENDMDL
MODEL      254
REMARK 921   NORMALIZED FREE ENERGY PREDICTED BY IDOCK:   -2.98 KCAL/MOL
REMARK 922        TOTAL FREE ENERGY PREDICTED BY IDOCK:   -4.80 KCAL/MOL
REMARK 923 INTER-LIGAND FREE ENERGY PREDICTED BY IDOCK:   -4.74 KCAL/MOL
REMARK 924 INTRA-LIGAND FREE ENERGY PREDICTED BY IDOCK:   -0.06 KCAL/MOL
REMARK 927      BINDING AFFINITY PREDICTED BY RF-SCORE:    0.00 PKD
ROOT
HETATM    1  C   UNL     1     -12.507  13.250  70.682  1.00  0.00    -0.298 C  
HETATM    2  N   UNL     1     -11.935  14.573  70.880  1.00  0.00    -0.315 NA 
HETATM    3  H   UNL     1     -10.916  14.539  70.881  1.00  0.00     0.000 HD 
ENDROOT
BRANCH   2   4
HETATM    4  C   UNL     1     -12.433  15.542  69.896  1.00  0.00    -0.211 C  
BRANCH   4   5
HETATM    5  C   UNL     1     -11.337  15.779  68.854  1.00  0.00    -0.356 C  
BRANCH   5   6
HETATM    6  C   UNL     1     -10.322  16.863  69.267  1.00  0.00    -0.298 C  
BRANCH   6   7
HETATM    7  C   UNL     1     -10.203  17.887  68.144  1.00  0.00    -0.386 A  
HETATM    8  C   UNL     1     -10.038  19.851  66.139  1.00  0.00    -0.611 A  
HETATM    9  C   UNL     1     -10.861  17.714  66.917  1.00  0.00    -0.035 A  
HETATM   10  C   UNL     1      -9.470  19.069  68.352  1.00  0.00    -0.417 A  
HETATM   11  C   UNL     1     -10.774  18.688  65.920  1.00  0.00    -0.274 A  
HETATM   12  C   UNL     1      -9.387  20.042  67.355  1.00  0.00    -0.492 A  
ENDBRANCH   6   7
BRANCH   6  13
HETATM   13  O   UNL     1      -9.047  16.271  69.596  1.00  0.00    -0.069 OA 
BRANCH  13  14
HETATM   14  C   UNL     1      -8.663  15.199  68.827  1.00  0.00    -0.194 A  
HETATM   15  C   UNL     1      -9.436  14.034  68.704  1.00  0.00    -0.142 A  
HETATM   16  C   UNL     1      -7.762  13.000  67.313  1.00  0.00    -0.112 A  
HETATM   17  C   UNL     1      -8.985  12.940  67.969  1.00  0.00    -0.196 A  
HETATM   18  C   UNL     1      -7.011  14.174  67.361  1.00  0.00    -0.070 A  
HETATM   19  C   UNL     1      -7.463  15.290  68.092  1.00  0.00    -0.117 A  
HETATM   20  C   UNL     1      -6.627  16.541  68.073  1.00  0.00    -0.147 C  
ENDBRANCH  13  14
ENDBRANCH   6  13
ENDBRANCH   5   6
ENDBRANCH   4   5
ENDBRANCH   2   4
TORSDOF 6
ENDMDL
MODEL      255
REMARK 921   NORMALIZED FREE ENERGY PREDICTED BY IDOCK:   -2.97 KCAL/MOL
REMARK 922        TOTAL FREE ENERGY PREDICTED BY IDOCK:   -4.79 KCAL/MOL
REMARK 923 INTER-LIGAND FREE ENERGY PREDICTED BY IDOCK:   -4.16 KCAL/MOL
REMARK 924 INTRA-LIGAND FREE ENERGY PREDICTED BY IDOCK:   -0.63 KCAL/MOL
REMARK 927      BINDING AFFINITY PREDICTED BY RF-SCORE:    0.00 PKD
ROOT
HETATM    1  C   UNL     1      -9.804  13.347  65.412  1.00  0.00    -0.110 C  
HETATM    2  N   UNL     1      -9.200  12.294  66.215  1.00  0.00    -0.339 NA 
HETATM    3  H   UNL     1      -8.563  12.681  66.912  1.00  0.00     0.000 HD 
ENDROOT
BRANCH   2   4
HETATM    4  C   UNL     1     -10.208  11.429  66.838  1.00  0.00    -0.219 C  
BRANCH   4   5
HETATM    5  C   UNL     1      -9.946  11.388  68.345  1.00  0.00    -0.206 C  
BRANCH   5   6
HETATM    6  C   UNL     1     -10.129   9.988  68.962  1.00  0.00    -0.200 C  
BRANCH   6   7
HETATM    7  C   UNL     1     -11.202  10.057  70.044  1.00  0.00    -0.345 A  
HETATM    8  C   UNL     1     -13.229  10.093  71.991  1.00  0.00    -0.534 A  
HETATM    9  C   UNL     1     -12.105  11.129  70.116  1.00  0.00    -0.443 A  
HETATM   10  C   UNL     1     -11.341   8.998  70.958  1.00  0.00    -0.362 A  
HETATM   11  C   UNL     1     -13.108  11.148  71.088  1.00  0.00    -0.284 A  
HETATM   12  C   UNL     1     -12.346   9.018  71.926  1.00  0.00    -0.455 A  
ENDBRANCH   6   7
BRANCH   6  13
HETATM   13  O   UNL     1      -8.876   9.487  69.475  1.00  0.00    -0.153 OA 
BRANCH  13  14
HETATM   14  C   UNL     1      -7.875   9.307  68.552  1.00  0.00    -0.090 A  
HETATM   15  C   UNL     1      -8.100   8.750  67.284  1.00  0.00    -0.101 A  
HETATM   16  C   UNL     1      -5.753   8.876  66.748  1.00  0.00    -0.048 A  
HETATM   17  C   UNL     1      -7.049   8.521  66.397  1.00  0.00    -0.079 A  
HETATM   18  C   UNL     1      -5.518   9.499  67.973  1.00  0.00    -0.040 A  
HETATM   19  C   UNL     1      -6.573   9.745  68.872  1.00  0.00    -0.046 A  
HETATM   20  C   UNL     1      -6.261  10.457  70.161  1.00  0.00    -0.108 C  
ENDBRANCH  13  14
ENDBRANCH   6  13
ENDBRANCH   5   6
ENDBRANCH   4   5
ENDBRANCH   2   4
TORSDOF 6
ENDMDL
MODEL      256
REMARK 921   NORMALIZED FREE ENERGY PREDICTED BY IDOCK:   -2.96 KCAL/MOL
REMARK 922        TOTAL FREE ENERGY PREDICTED BY IDOCK:   -4.78 KCAL/MOL
REMARK 923 INTER-LIGAND FREE ENERGY PREDICTED BY IDOCK:   -4.08 KCAL/MOL
REMARK 924 INTRA-LIGAND FREE ENERGY PREDICTED BY IDOCK:   -0.70 KCAL/MOL
REMARK 927      BINDING AFFINITY PREDICTED BY RF-SCORE:    0.00 PKD
ROOT
HETATM    1  C   UNL     1      -9.513   9.905  68.099  1.00  0.00    -0.138 C  
HETATM    2  N   UNL     1      -8.683   8.718  68.239  1.00  0.00    -0.134 NA 
HETATM    3  H   UNL     1      -8.064   8.794  69.047  1.00  0.00     0.000 HD 
ENDROOT
BRANCH   2   4
HETATM    4  C   UNL     1      -9.483   7.489  68.295  1.00  0.00    -0.144 C  
BRANCH   4   5
HETATM    5  C   UNL     1      -9.961   7.289  69.736  1.00  0.00    -0.183 C  
BRANCH   5   6
HETATM    6  C   UNL     1     -11.317   6.564  69.837  1.00  0.00    -0.406 C  
BRANCH   6   7
HETATM    7  C   UNL     1     -12.283   7.426  70.643  1.00  0.00    -0.125 A  
HETATM    8  C   UNL     1     -13.983   9.024  72.209  1.00  0.00    -0.522 A  
HETATM    9  C   UNL     1     -13.479   6.905  71.159  1.00  0.00    -0.080 A  
HETATM   10  C   UNL     1     -11.949   8.760  70.937  1.00  0.00    -0.235 A  
HETATM   11  C   UNL     1     -14.326   7.702  71.932  1.00  0.00    -0.536 A  
HETATM   12  C   UNL     1     -12.795   9.553  71.712  1.00  0.00    -0.496 A  
ENDBRANCH   6   7
BRANCH   6  13
HETATM   13  O   UNL     1     -11.154   5.251  70.413  1.00  0.00    -0.063 OA 
BRANCH  13  14
HETATM   14  C   UNL     1      -9.996   5.042  71.122  1.00  0.00    -0.207 A  
HETATM   15  C   UNL     1      -9.818   5.496  72.438  1.00  0.00    -0.189 A  
HETATM   16  C   UNL     1      -7.555   4.666  72.480  1.00  0.00    -0.086 A  
HETATM   17  C   UNL     1      -8.606   5.325  73.105  1.00  0.00    -0.117 A  
HETATM   18  C   UNL     1      -7.735   4.143  71.200  1.00  0.00    -0.066 A  
HETATM   19  C   UNL     1      -8.959   4.300  70.521  1.00  0.00    -0.149 A  
HETATM   20  C   UNL     1      -9.104   3.677  69.159  1.00  0.00    -0.200 C  
ENDBRANCH  13  14
ENDBRANCH   6  13
ENDBRANCH   5   6
ENDBRANCH   4   5
ENDBRANCH   2   4
TORSDOF 6
ENDMDL
MODEL      257
REMARK 921   NORMALIZED FREE ENERGY PREDICTED BY IDOCK:   -2.93 KCAL/MOL
REMARK 922        TOTAL FREE ENERGY PREDICTED BY IDOCK:   -4.73 KCAL/MOL
REMARK 923 INTER-LIGAND FREE ENERGY PREDICTED BY IDOCK:   -4.01 KCAL/MOL
REMARK 924 INTRA-LIGAND FREE ENERGY PREDICTED BY IDOCK:   -0.72 KCAL/MOL
REMARK 927      BINDING AFFINITY PREDICTED BY RF-SCORE:    0.00 PKD
ROOT
HETATM    1  C   UNL     1     -10.282   8.123  66.340  1.00  0.00    -0.050 C  
HETATM    2  N   UNL     1      -8.871   8.107  66.695  1.00  0.00    -0.136 NA 
HETATM    3  H   UNL     1      -8.455   9.033  66.600  1.00  0.00     0.000 HD 
ENDROOT
BRANCH   2   4
HETATM    4  C   UNL     1      -8.647   7.558  68.038  1.00  0.00    -0.122 C  
BRANCH   4   5
HETATM    5  C   UNL     1      -9.566   8.290  69.019  1.00  0.00    -0.156 C  
BRANCH   5   6
HETATM    6  C   UNL     1      -8.808   9.172  70.029  1.00  0.00    -0.182 C  
BRANCH   6   7
HETATM    7  C   UNL     1      -8.933   8.557  71.419  1.00  0.00    -0.262 A  
HETATM    8  C   UNL     1      -9.222   7.513  74.012  1.00  0.00    -0.279 A  
HETATM    9  C   UNL     1      -7.812   8.364  72.241  1.00  0.00    -0.162 A  
HETATM   10  C   UNL     1     -10.202   8.226  71.925  1.00  0.00    -0.314 A  
HETATM   11  C   UNL     1      -7.957   7.841  73.528  1.00  0.00    -0.205 A  
HETATM   12  C   UNL     1     -10.345   7.706  73.212  1.00  0.00    -0.405 A  
ENDBRANCH   6   7
BRANCH   6  13
HETATM   13  O   UNL     1      -9.298  10.529  69.992  1.00  0.00     0.099 OA 
BRANCH  13  14
HETATM   14  C   UNL     1      -9.739  10.979  68.771  1.00  0.00    -0.191 A  
HETATM   15  C   UNL     1      -8.869  11.266  67.708  1.00  0.00    -0.141 A  
HETATM   16  C   UNL     1     -10.706  11.996  66.328  1.00  0.00    -0.302 A  
HETATM   17  C   UNL     1      -9.344  11.784  66.504  1.00  0.00    -0.217 A  
HETATM   18  C   UNL     1     -11.594  11.649  67.345  1.00  0.00    -0.330 A  
HETATM   19  C   UNL     1     -11.126  11.114  68.561  1.00  0.00    -0.298 A  
HETATM   20  C   UNL     1     -12.138  10.721  69.603  1.00  0.00    -0.361 C  
ENDBRANCH  13  14
ENDBRANCH   6  13
ENDBRANCH   5   6
ENDBRANCH   4   5
ENDBRANCH   2   4
TORSDOF 6
ENDMDL
MODEL      258
REMARK 921   NORMALIZED FREE ENERGY PREDICTED BY IDOCK:   -2.92 KCAL/MOL
REMARK 922        TOTAL FREE ENERGY PREDICTED BY IDOCK:   -4.73 KCAL/MOL
REMARK 923 INTER-LIGAND FREE ENERGY PREDICTED BY IDOCK:   -4.02 KCAL/MOL
REMARK 924 INTRA-LIGAND FREE ENERGY PREDICTED BY IDOCK:   -0.71 KCAL/MOL
REMARK 927      BINDING AFFINITY PREDICTED BY RF-SCORE:    0.00 PKD
ROOT
HETATM    1  C   UNL     1     -12.439   7.009  71.364  1.00  0.00    -0.384 C  
HETATM    2  N   UNL     1     -11.876   7.383  70.075  1.00  0.00    -0.502 NA 
HETATM    3  H   UNL     1     -11.149   8.090  70.180  1.00  0.00     0.000 HD 
ENDROOT
BRANCH   2   4
HETATM    4  C   UNL     1     -11.382   6.219  69.331  1.00  0.00    -0.378 C  
BRANCH   4   5
HETATM    5  C   UNL     1     -10.268   6.684  68.389  1.00  0.00    -0.188 C  
BRANCH   5   6
HETATM    6  C   UNL     1      -9.448   7.864  68.945  1.00  0.00    -0.150 C  
BRANCH   6   7
HETATM    7  C   UNL     1      -9.247   8.894  67.839  1.00  0.00    -0.148 A  
HETATM    8  C   UNL     1      -8.853  10.709  65.729  1.00  0.00    -0.198 A  
HETATM    9  C   UNL     1      -8.200   9.828  67.884  1.00  0.00    -0.113 A  
HETATM   10  C   UNL     1     -10.085   8.880  66.711  1.00  0.00    -0.350 A  
HETATM   11  C   UNL     1      -8.009  10.732  66.838  1.00  0.00    -0.133 A  
HETATM   12  C   UNL     1      -9.891   9.783  65.665  1.00  0.00    -0.371 A  
ENDBRANCH   6   7
BRANCH   6  13
HETATM   13  O   UNL     1      -8.193   7.404  69.490  1.00  0.00    -0.127 OA 
BRANCH  13  14
HETATM   14  C   UNL     1      -8.277   6.572  70.580  1.00  0.00    -0.125 A  
HETATM   15  C   UNL     1      -7.927   5.214  70.530  1.00  0.00    -0.090 A  
HETATM   16  C   UNL     1      -8.573   4.902  72.831  1.00  0.00    -0.118 A  
HETATM   17  C   UNL     1      -8.088   4.383  71.637  1.00  0.00    -0.096 A  
HETATM   18  C   UNL     1      -8.857   6.264  72.925  1.00  0.00    -0.124 A  
HETATM   19  C   UNL     1      -8.687   7.115  71.815  1.00  0.00    -0.121 A  
HETATM   20  C   UNL     1      -8.973   8.582  71.991  1.00  0.00    -0.301 C  
ENDBRANCH  13  14
ENDBRANCH   6  13
ENDBRANCH   5   6
ENDBRANCH   4   5
ENDBRANCH   2   4
TORSDOF 6
ENDMDL
MODEL      259
REMARK 921   NORMALIZED FREE ENERGY PREDICTED BY IDOCK:   -2.91 KCAL/MOL
REMARK 922        TOTAL FREE ENERGY PREDICTED BY IDOCK:   -4.71 KCAL/MOL
REMARK 923 INTER-LIGAND FREE ENERGY PREDICTED BY IDOCK:   -4.25 KCAL/MOL
REMARK 924 INTRA-LIGAND FREE ENERGY PREDICTED BY IDOCK:   -0.46 KCAL/MOL
REMARK 927      BINDING AFFINITY PREDICTED BY RF-SCORE:    0.00 PKD
ROOT
HETATM    1  C   UNL     1     -11.782  11.718  69.029  1.00  0.00    -0.328 C  
HETATM    2  N   UNL     1     -10.328  11.759  68.990  1.00  0.00    -0.395 NA 
HETATM    3  H   UNL     1      -9.933  11.756  69.931  1.00  0.00     0.000 HD 
ENDROOT
BRANCH   2   4
HETATM    4  C   UNL     1      -9.768  10.674  68.175  1.00  0.00    -0.156 C  
BRANCH   4   5
HETATM    5  C   UNL     1      -8.987   9.732  69.095  1.00  0.00    -0.161 C  
BRANCH   5   6
HETATM    6  C   UNL     1      -9.530   8.290  69.100  1.00  0.00    -0.155 C  
BRANCH   6   7
HETATM    7  C   UNL     1     -10.528   8.139  70.244  1.00  0.00    -0.219 A  
HETATM    8  C   UNL     1     -12.448   7.892  72.282  1.00  0.00    -0.265 A  
HETATM    9  C   UNL     1     -10.476   8.963  71.379  1.00  0.00    -0.375 A  
HETATM   10  C   UNL     1     -11.566   7.197  70.145  1.00  0.00    -0.211 A  
HETATM   11  C   UNL     1     -11.428   8.835  72.393  1.00  0.00    -0.301 A  
HETATM   12  C   UNL     1     -12.518   7.073  71.158  1.00  0.00    -0.407 A  
ENDBRANCH   6   7
BRANCH   6  13
HETATM   13  O   UNL     1      -8.451   7.336  69.194  1.00  0.00    -0.131 OA 
BRANCH  13  14
HETATM   14  C   UNL     1      -8.802   6.014  69.071  1.00  0.00    -0.121 A  
HETATM   15  C   UNL     1      -8.784   5.118  70.152  1.00  0.00    -0.128 A  
HETATM   16  C   UNL     1      -9.437   3.290  68.723  1.00  0.00    -0.198 A  
HETATM   17  C   UNL     1      -9.082   3.768  69.978  1.00  0.00    -0.193 A  
HETATM   18  C   UNL     1      -9.533   4.177  67.651  1.00  0.00    -0.225 A  
HETATM   19  C   UNL     1      -9.245   5.545  67.817  1.00  0.00    -0.110 A  
HETATM   20  C   UNL     1      -9.406   6.457  66.631  1.00  0.00    -0.175 C  
ENDBRANCH  13  14
ENDBRANCH   6  13
ENDBRANCH   5   6
ENDBRANCH   4   5
ENDBRANCH   2   4
TORSDOF 6
ENDMDL
MODEL      260
REMARK 921   NORMALIZED FREE ENERGY PREDICTED BY IDOCK:   -2.90 KCAL/MOL
REMARK 922        TOTAL FREE ENERGY PREDICTED BY IDOCK:   -4.70 KCAL/MOL
REMARK 923 INTER-LIGAND FREE ENERGY PREDICTED BY IDOCK:   -3.75 KCAL/MOL
REMARK 924 INTRA-LIGAND FREE ENERGY PREDICTED BY IDOCK:   -0.95 KCAL/MOL
REMARK 927      BINDING AFFINITY PREDICTED BY RF-SCORE:    0.00 PKD
ROOT
HETATM    1  C   UNL     1      -7.486   8.811  71.273  1.00  0.00    -0.108 C  
HETATM    2  N   UNL     1      -8.922   8.722  71.497  1.00  0.00    -0.225 NA 
HETATM    3  H   UNL     1      -9.173   9.065  72.424  1.00  0.00     0.000 HD 
ENDROOT
BRANCH   2   4
HETATM    4  C   UNL     1      -9.687   9.409  70.450  1.00  0.00    -0.261 C  
BRANCH   4   5
HETATM    5  C   UNL     1      -8.712  10.217  69.589  1.00  0.00    -0.176 C  
BRANCH   5   6
HETATM    6  C   UNL     1      -8.861   9.950  68.079  1.00  0.00    -0.125 C  
BRANCH   6   7
HETATM    7  C   UNL     1      -9.620  11.109  67.442  1.00  0.00    -0.183 A  
HETATM    8  C   UNL     1     -11.048  13.281  66.372  1.00  0.00    -0.313 A  
HETATM    9  C   UNL     1     -10.755  10.896  66.645  1.00  0.00    -0.289 A  
HETATM   10  C   UNL     1      -9.221  12.432  67.702  1.00  0.00    -0.185 A  
HETATM   11  C   UNL     1     -11.460  11.976  66.110  1.00  0.00    -0.401 A  
HETATM   12  C   UNL     1      -9.929  13.510  67.168  1.00  0.00    -0.246 A  
ENDBRANCH   6   7
BRANCH   6  13
HETATM   13  O   UNL     1      -9.511   8.684  67.844  1.00  0.00    -0.138 OA 
BRANCH  13  14
HETATM   14  C   UNL     1      -8.828   7.792  67.052  1.00  0.00    -0.127 A  
HETATM   15  C   UNL     1      -7.463   7.928  66.757  1.00  0.00    -0.090 A  
HETATM   16  C   UNL     1      -7.517   5.981  65.338  1.00  0.00    -0.082 A  
HETATM   17  C   UNL     1      -6.817   7.043  65.896  1.00  0.00    -0.057 A  
HETATM   18  C   UNL     1      -8.855   5.784  65.677  1.00  0.00    -0.141 A  
HETATM   19  C   UNL     1      -9.515   6.667  66.554  1.00  0.00    -0.192 A  
HETATM   20  C   UNL     1     -10.948   6.378  66.912  1.00  0.00    -0.413 C  
ENDBRANCH  13  14
ENDBRANCH   6  13
ENDBRANCH   5   6
ENDBRANCH   4   5
ENDBRANCH   2   4
TORSDOF 6
ENDMDL
MODEL      261
REMARK 921   NORMALIZED FREE ENERGY PREDICTED BY IDOCK:   -2.90 KCAL/MOL
REMARK 922        TOTAL FREE ENERGY PREDICTED BY IDOCK:   -4.69 KCAL/MOL
REMARK 923 INTER-LIGAND FREE ENERGY PREDICTED BY IDOCK:   -3.58 KCAL/MOL
REMARK 924 INTRA-LIGAND FREE ENERGY PREDICTED BY IDOCK:   -1.11 KCAL/MOL
REMARK 927      BINDING AFFINITY PREDICTED BY RF-SCORE:    0.00 PKD
ROOT
HETATM    1  C   UNL     1      -8.220   8.987  66.399  1.00  0.00    -0.111 C  
HETATM    2  N   UNL     1      -8.463   9.477  67.748  1.00  0.00    -0.119 NA 
HETATM    3  H   UNL     1      -9.437   9.344  68.020  1.00  0.00     0.000 HD 
ENDROOT
BRANCH   2   4
HETATM    4  C   UNL     1      -7.551   8.873  68.726  1.00  0.00    -0.091 C  
BRANCH   4   5
HETATM    5  C   UNL     1      -7.347   7.402  68.354  1.00  0.00    -0.103 C  
BRANCH   5   6
HETATM    6  C   UNL     1      -8.319   6.447  69.072  1.00  0.00    -0.118 C  
BRANCH   6   7
HETATM    7  C   UNL     1      -8.527   5.207  68.208  1.00  0.00    -0.095 A  
HETATM    8  C   UNL     1      -8.988   2.979  66.557  1.00  0.00    -0.164 A  
HETATM    9  C   UNL     1      -9.047   4.018  68.741  1.00  0.00    -0.190 A  
HETATM   10  C   UNL     1      -8.253   5.262  66.830  1.00  0.00    -0.108 A  
HETATM   11  C   UNL     1      -9.271   2.910  67.921  1.00  0.00    -0.253 A  
HETATM   12  C   UNL     1      -8.480   4.155  66.012  1.00  0.00    -0.109 A  
ENDBRANCH   6   7
BRANCH   6  13
HETATM   13  O   UNL     1      -9.564   7.113  69.370  1.00  0.00    -0.153 OA 
BRANCH  13  14
HETATM   14  C   UNL     1      -9.960   7.092  70.686  1.00  0.00    -0.190 A  
HETATM   15  C   UNL     1      -9.751   5.987  71.526  1.00  0.00    -0.186 A  
HETATM   16  C   UNL     1     -10.889   7.083  73.346  1.00  0.00    -0.332 A  
HETATM   17  C   UNL     1     -10.225   5.975  72.836  1.00  0.00    -0.207 A  
HETATM   18  C   UNL     1     -11.041   8.220  72.552  1.00  0.00    -0.439 A  
HETATM   19  C   UNL     1     -10.557   8.247  71.230  1.00  0.00    -0.269 A  
HETATM   20  C   UNL     1     -10.717   9.517  70.438  1.00  0.00    -0.341 C  
ENDBRANCH  13  14
ENDBRANCH   6  13
ENDBRANCH   5   6
ENDBRANCH   4   5
ENDBRANCH   2   4
TORSDOF 6
ENDMDL
MODEL      262
REMARK 921   NORMALIZED FREE ENERGY PREDICTED BY IDOCK:   -2.88 KCAL/MOL
REMARK 922        TOTAL FREE ENERGY PREDICTED BY IDOCK:   -4.66 KCAL/MOL
REMARK 923 INTER-LIGAND FREE ENERGY PREDICTED BY IDOCK:   -3.29 KCAL/MOL
REMARK 924 INTRA-LIGAND FREE ENERGY PREDICTED BY IDOCK:   -1.37 KCAL/MOL
REMARK 927      BINDING AFFINITY PREDICTED BY RF-SCORE:    0.00 PKD
ROOT
HETATM    1  C   UNL     1      -6.502   8.631  72.347  1.00  0.00    -0.062 C  
HETATM    2  N   UNL     1      -7.626   7.783  72.717  1.00  0.00    -0.097 NA 
HETATM    3  H   UNL     1      -7.572   7.505  73.696  1.00  0.00     0.000 HD 
ENDROOT
BRANCH   2   4
HETATM    4  C   UNL     1      -8.915   8.414  72.413  1.00  0.00    -0.239 C  
BRANCH   4   5
HETATM    5  C   UNL     1     -10.032   7.432  72.776  1.00  0.00    -0.263 C  
BRANCH   5   6
HETATM    6  C   UNL     1     -10.133   6.234  71.812  1.00  0.00    -0.186 C  
BRANCH   6   7
HETATM    7  C   UNL     1      -9.964   4.942  72.604  1.00  0.00    -0.210 A  
HETATM    8  C   UNL     1      -9.765   2.561  74.084  1.00  0.00    -0.131 A  
HETATM    9  C   UNL     1      -9.224   4.900  73.795  1.00  0.00    -0.118 A  
HETATM   10  C   UNL     1     -10.612   3.770  72.174  1.00  0.00     0.064 A  
HETATM   11  C   UNL     1      -9.122   3.715  74.527  1.00  0.00    -0.103 A  
HETATM   12  C   UNL     1     -10.510   2.588  72.909  1.00  0.00    -0.240 A  
ENDBRANCH   6   7
BRANCH   6  13
HETATM   13  O   UNL     1      -9.162   6.348  70.750  1.00  0.00    -0.156 OA 
BRANCH  13  14
HETATM   14  C   UNL     1      -9.616   6.066  69.484  1.00  0.00    -0.143 A  
HETATM   15  C   UNL     1     -10.494   6.908  68.785  1.00  0.00    -0.223 A  
HETATM   16  C   UNL     1     -10.585   5.371  66.931  1.00  0.00    -0.320 A  
HETATM   17  C   UNL     1     -10.986   6.558  67.529  1.00  0.00    -0.444 A  
HETATM   18  C   UNL     1      -9.656   4.555  67.576  1.00  0.00    -0.211 A  
HETATM   19  C   UNL     1      -9.143   4.904  68.840  1.00  0.00    -0.149 A  
HETATM   20  C   UNL     1      -8.114   4.002  69.466  1.00  0.00    -0.061 C  
ENDBRANCH  13  14
ENDBRANCH   6  13
ENDBRANCH   5   6
ENDBRANCH   4   5
ENDBRANCH   2   4
TORSDOF 6
ENDMDL
MODEL      263
REMARK 921   NORMALIZED FREE ENERGY PREDICTED BY IDOCK:   -2.85 KCAL/MOL
REMARK 922        TOTAL FREE ENERGY PREDICTED BY IDOCK:   -4.63 KCAL/MOL
REMARK 923 INTER-LIGAND FREE ENERGY PREDICTED BY IDOCK:   -3.65 KCAL/MOL
REMARK 924 INTRA-LIGAND FREE ENERGY PREDICTED BY IDOCK:   -0.98 KCAL/MOL
REMARK 927      BINDING AFFINITY PREDICTED BY RF-SCORE:    0.00 PKD
ROOT
HETATM    1  C   UNL     1     -12.775   7.003  71.611  1.00  0.00    -0.377 C  
HETATM    2  N   UNL     1     -11.503   7.027  70.904  1.00  0.00    -0.292 NA 
HETATM    3  H   UNL     1     -10.785   7.501  71.451  1.00  0.00     0.000 HD 
ENDROOT
BRANCH   2   4
HETATM    4  C   UNL     1     -11.068   5.684  70.505  1.00  0.00    -0.129 C  
BRANCH   4   5
HETATM    5  C   UNL     1      -9.693   5.798  69.840  1.00  0.00    -0.212 C  
BRANCH   5   6
HETATM    6  C   UNL     1      -9.745   6.410  68.427  1.00  0.00    -0.131 C  
BRANCH   6   7
HETATM    7  C   UNL     1      -9.363   5.341  67.408  1.00  0.00    -0.122 A  
HETATM    8  C   UNL     1      -8.551   3.397  65.547  1.00  0.00    -0.112 A  
HETATM    9  C   UNL     1      -9.712   5.457  66.054  1.00  0.00    -0.134 A  
HETATM   10  C   UNL     1      -8.590   4.238  67.810  1.00  0.00    -0.107 A  
HETATM   11  C   UNL     1      -9.312   4.488  65.132  1.00  0.00    -0.160 A  
HETATM   12  C   UNL     1      -8.189   3.272  66.886  1.00  0.00    -0.085 A  
ENDBRANCH   6   7
BRANCH   6  13
HETATM   13  O   UNL     1      -8.891   7.569  68.339  1.00  0.00    -0.127 OA 
BRANCH  13  14
HETATM   14  C   UNL     1      -9.528   8.785  68.272  1.00  0.00    -0.141 A  
HETATM   15  C   UNL     1     -10.278   9.190  67.157  1.00  0.00    -0.329 A  
HETATM   16  C   UNL     1     -10.723  11.334  68.164  1.00  0.00    -0.244 A  
HETATM   17  C   UNL     1     -10.856  10.457  67.096  1.00  0.00    -0.301 A  
HETATM   18  C   UNL     1     -10.045  10.925  69.311  1.00  0.00    -0.164 A  
HETATM   19  C   UNL     1      -9.466   9.643  69.389  1.00  0.00    -0.201 A  
HETATM   20  C   UNL     1      -8.783   9.246  70.669  1.00  0.00    -0.282 C  
ENDBRANCH  13  14
ENDBRANCH   6  13
ENDBRANCH   5   6
ENDBRANCH   4   5
ENDBRANCH   2   4
TORSDOF 6
ENDMDL
MODEL      264
REMARK 921   NORMALIZED FREE ENERGY PREDICTED BY IDOCK:   -2.85 KCAL/MOL
REMARK 922        TOTAL FREE ENERGY PREDICTED BY IDOCK:   -4.63 KCAL/MOL
REMARK 923 INTER-LIGAND FREE ENERGY PREDICTED BY IDOCK:   -3.87 KCAL/MOL
REMARK 924 INTRA-LIGAND FREE ENERGY PREDICTED BY IDOCK:   -0.76 KCAL/MOL
REMARK 927      BINDING AFFINITY PREDICTED BY RF-SCORE:    0.00 PKD
ROOT
HETATM    1  C   UNL     1     -12.840   7.448  71.811  1.00  0.00    -0.329 C  
HETATM    2  N   UNL     1     -11.870   7.639  70.743  1.00  0.00    -0.426 NA 
HETATM    3  H   UNL     1     -11.035   8.115  71.084  1.00  0.00     0.000 HD 
ENDROOT
BRANCH   2   4
HETATM    4  C   UNL     1     -11.527   6.376  70.078  1.00  0.00    -0.428 C  
BRANCH   4   5
HETATM    5  C   UNL     1     -10.731   6.699  68.810  1.00  0.00    -0.302 C  
BRANCH   5   6
HETATM    6  C   UNL     1      -9.358   7.337  69.094  1.00  0.00    -0.146 C  
BRANCH   6   7
HETATM    7  C   UNL     1      -9.224   8.616  68.273  1.00  0.00    -0.140 A  
HETATM    8  C   UNL     1      -8.981  10.909  66.666  1.00  0.00    -0.173 A  
HETATM    9  C   UNL     1      -8.071   9.411  68.333  1.00  0.00    -0.109 A  
HETATM   10  C   UNL     1     -10.249   8.984  67.384  1.00  0.00    -0.308 A  
HETATM   11  C   UNL     1      -7.953  10.553  67.538  1.00  0.00    -0.107 A  
HETATM   12  C   UNL     1     -10.129  10.124  66.588  1.00  0.00    -0.283 A  
ENDBRANCH   6   7
BRANCH   6  13
HETATM   13  O   UNL     1      -8.292   6.404  68.818  1.00  0.00    -0.119 OA 
BRANCH  13  14
HETATM   14  C   UNL     1      -8.533   5.490  67.821  1.00  0.00    -0.098 A  
HETATM   15  C   UNL     1      -8.435   5.808  66.457  1.00  0.00    -0.116 A  
HETATM   16  C   UNL     1      -9.142   3.591  65.830  1.00  0.00    -0.150 A  
HETATM   17  C   UNL     1      -8.752   4.875  65.472  1.00  0.00    -0.139 A  
HETATM   18  C   UNL     1      -9.174   3.232  67.177  1.00  0.00    -0.214 A  
HETATM   19  C   UNL     1      -8.846   4.163  68.181  1.00  0.00    -0.134 A  
HETATM   20  C   UNL     1      -8.862   3.703  69.613  1.00  0.00    -0.149 C  
ENDBRANCH  13  14
ENDBRANCH   6  13
ENDBRANCH   5   6
ENDBRANCH   4   5
ENDBRANCH   2   4
TORSDOF 6
ENDMDL
MODEL      265
REMARK 921   NORMALIZED FREE ENERGY PREDICTED BY IDOCK:   -2.84 KCAL/MOL
REMARK 922        TOTAL FREE ENERGY PREDICTED BY IDOCK:   -4.61 KCAL/MOL
REMARK 923 INTER-LIGAND FREE ENERGY PREDICTED BY IDOCK:   -3.83 KCAL/MOL
REMARK 924 INTRA-LIGAND FREE ENERGY PREDICTED BY IDOCK:   -0.78 KCAL/MOL
REMARK 927      BINDING AFFINITY PREDICTED BY RF-SCORE:    0.00 PKD
ROOT
HETATM    1  C   UNL     1     -10.226   9.315  66.617  1.00  0.00    -0.253 C  
HETATM    2  N   UNL     1     -10.446   8.253  67.587  1.00  0.00    -0.335 NA 
HETATM    3  H   UNL     1     -10.695   7.378  67.127  1.00  0.00     0.000 HD 
ENDROOT
BRANCH   2   4
HETATM    4  C   UNL     1      -9.294   8.075  68.480  1.00  0.00    -0.142 C  
BRANCH   4   5
HETATM    5  C   UNL     1      -9.030   6.575  68.635  1.00  0.00    -0.126 C  
BRANCH   5   6
HETATM    6  C   UNL     1     -10.316   5.734  68.754  1.00  0.00    -0.224 C  
BRANCH   6   7
HETATM    7  C   UNL     1     -10.690   5.602  70.226  1.00  0.00    -0.364 A  
HETATM    8  C   UNL     1     -11.339   5.464  72.958  1.00  0.00    -0.355 A  
HETATM    9  C   UNL     1     -10.069   4.662  71.062  1.00  0.00    -0.246 A  
HETATM   10  C   UNL     1     -11.635   6.479  70.788  1.00  0.00    -0.437 A  
HETATM   11  C   UNL     1     -10.396   4.591  72.417  1.00  0.00    -0.256 A  
HETATM   12  C   UNL     1     -11.958   6.408  72.143  1.00  0.00    -0.346 A  
ENDBRANCH   6   7
BRANCH   6  13
HETATM   13  O   UNL     1     -10.148   4.448  68.121  1.00  0.00    -0.051 OA 
BRANCH  13  14
HETATM   14  C   UNL     1      -9.392   4.434  66.973  1.00  0.00    -0.154 A  
HETATM   15  C   UNL     1      -9.785   5.089  65.796  1.00  0.00    -0.158 A  
HETATM   16  C   UNL     1      -7.840   4.277  64.627  1.00  0.00    -0.085 A  
HETATM   17  C   UNL     1      -9.027   4.999  64.630  1.00  0.00    -0.075 A  
HETATM   18  C   UNL     1      -7.394   3.680  65.805  1.00  0.00    -0.076 A  
HETATM   19  C   UNL     1      -8.147   3.774  66.992  1.00  0.00    -0.095 A  
HETATM   20  C   UNL     1      -7.592   3.142  68.240  1.00  0.00    -0.052 C  
ENDBRANCH  13  14
ENDBRANCH   6  13
ENDBRANCH   5   6
ENDBRANCH   4   5
ENDBRANCH   2   4
TORSDOF 6
ENDMDL
MODEL      266
REMARK 921   NORMALIZED FREE ENERGY PREDICTED BY IDOCK:   -2.82 KCAL/MOL
REMARK 922        TOTAL FREE ENERGY PREDICTED BY IDOCK:   -4.59 KCAL/MOL
REMARK 923 INTER-LIGAND FREE ENERGY PREDICTED BY IDOCK:   -4.05 KCAL/MOL
REMARK 924 INTRA-LIGAND FREE ENERGY PREDICTED BY IDOCK:   -0.54 KCAL/MOL
REMARK 927      BINDING AFFINITY PREDICTED BY RF-SCORE:    0.00 PKD
ROOT
HETATM    1  C   UNL     1      -9.216   6.025  66.437  1.00  0.00    -0.151 C  
HETATM    2  N   UNL     1      -9.691   7.343  66.041  1.00  0.00    -0.419 NA 
HETATM    3  H   UNL     1     -10.169   7.308  65.141  1.00  0.00     0.000 HD 
ENDROOT
BRANCH   2   4
HETATM    4  C   UNL     1     -10.540   7.955  67.070  1.00  0.00    -0.311 C  
BRANCH   4   5
HETATM    5  C   UNL     1     -10.056   9.388  67.307  1.00  0.00    -0.285 C  
BRANCH   5   6
HETATM    6  C   UNL     1      -8.571   9.600  66.954  1.00  0.00    -0.128 C  
BRANCH   6   7
HETATM    7  C   UNL     1      -7.770   9.752  68.243  1.00  0.00    -0.085 A  
HETATM    8  C   UNL     1      -6.375  10.099  70.658  1.00  0.00    -0.093 A  
HETATM    9  C   UNL     1      -6.523  10.396  68.262  1.00  0.00    -0.059 A  
HETATM   10  C   UNL     1      -8.309   9.296  69.458  1.00  0.00    -0.131 A  
HETATM   11  C   UNL     1      -5.829  10.563  69.462  1.00  0.00    -0.040 A  
HETATM   12  C   UNL     1      -7.615   9.466  70.656  1.00  0.00    -0.163 A  
ENDBRANCH   6   7
BRANCH   6  13
HETATM   13  O   UNL     1      -8.410  10.736  66.079  1.00  0.00    -0.156 OA 
BRANCH  13  14
HETATM   14  C   UNL     1      -9.564  11.255  65.545  1.00  0.00    -0.228 A  
HETATM   15  C   UNL     1     -10.231  10.667  64.459  1.00  0.00    -0.399 A  
HETATM   16  C   UNL     1     -11.872  12.432  64.435  1.00  0.00    -0.461 A  
HETATM   17  C   UNL     1     -11.363  11.256  63.899  1.00  0.00    -0.147 A  
HETATM   18  C   UNL     1     -11.269  12.993  65.560  1.00  0.00    -0.315 A  
HETATM   19  C   UNL     1     -10.131  12.400  66.141  1.00  0.00    -0.265 A  
HETATM   20  C   UNL     1      -9.550  13.031  67.378  1.00  0.00    -0.211 C  
ENDBRANCH  13  14
ENDBRANCH   6  13
ENDBRANCH   5   6
ENDBRANCH   4   5
ENDBRANCH   2   4
TORSDOF 6
ENDMDL
MODEL      267
REMARK 921   NORMALIZED FREE ENERGY PREDICTED BY IDOCK:   -2.81 KCAL/MOL
REMARK 922        TOTAL FREE ENERGY PREDICTED BY IDOCK:   -4.58 KCAL/MOL
REMARK 923 INTER-LIGAND FREE ENERGY PREDICTED BY IDOCK:   -4.13 KCAL/MOL
REMARK 924 INTRA-LIGAND FREE ENERGY PREDICTED BY IDOCK:   -0.45 KCAL/MOL
REMARK 927      BINDING AFFINITY PREDICTED BY RF-SCORE:    0.00 PKD
ROOT
HETATM    1  C   UNL     1      -6.167  13.342  69.592  1.00  0.00    -0.120 C  
HETATM    2  N   UNL     1      -6.186  13.511  68.147  1.00  0.00    -0.100 NA 
HETATM    3  H   UNL     1      -5.328  13.953  67.815  1.00  0.00     0.000 HD 
ENDROOT
BRANCH   2   4
HETATM    4  C   UNL     1      -6.437  12.246  67.447  1.00  0.00    -0.157 C  
BRANCH   4   5
HETATM    5  C   UNL     1      -7.903  11.859  67.660  1.00  0.00    -0.142 C  
BRANCH   5   6
HETATM    6  C   UNL     1      -8.876  12.600  66.724  1.00  0.00    -0.168 C  
BRANCH   6   7
HETATM    7  C   UNL     1      -9.945  13.293  67.564  1.00  0.00    -0.223 A  
HETATM    8  C   UNL     1     -11.986  14.485  69.085  1.00  0.00    -0.344 A  
HETATM    9  C   UNL     1     -10.454  14.552  67.214  1.00  0.00    -0.266 A  
HETATM   10  C   UNL     1     -10.485  12.637  68.684  1.00  0.00    -0.224 A  
HETATM   11  C   UNL     1     -11.465  15.146  67.973  1.00  0.00    -0.355 A  
HETATM   12  C   UNL     1     -11.497  13.231  69.440  1.00  0.00    -0.323 A  
ENDBRANCH   6   7
BRANCH   6  13
HETATM   13  O   UNL     1      -9.450  11.693  65.759  1.00  0.00    -0.228 OA 
BRANCH  13  14
HETATM   14  C   UNL     1      -9.468  10.366  66.115  1.00  0.00    -0.181 A  
HETATM   15  C   UNL     1     -10.434   9.821  66.974  1.00  0.00    -0.295 A  
HETATM   16  C   UNL     1      -9.381   7.656  66.880  1.00  0.00    -0.203 A  
HETATM   17  C   UNL     1     -10.383   8.485  67.366  1.00  0.00    -0.356 A  
HETATM   18  C   UNL     1      -8.454   8.158  65.967  1.00  0.00    -0.150 A  
HETATM   19  C   UNL     1      -8.503   9.504  65.556  1.00  0.00    -0.150 A  
HETATM   20  C   UNL     1      -7.499   9.975  64.538  1.00  0.00    -0.142 C  
ENDBRANCH  13  14
ENDBRANCH   6  13
ENDBRANCH   5   6
ENDBRANCH   4   5
ENDBRANCH   2   4
TORSDOF 6
ENDMDL
MODEL      268
REMARK 921   NORMALIZED FREE ENERGY PREDICTED BY IDOCK:   -2.80 KCAL/MOL
REMARK 922        TOTAL FREE ENERGY PREDICTED BY IDOCK:   -4.56 KCAL/MOL
REMARK 923 INTER-LIGAND FREE ENERGY PREDICTED BY IDOCK:   -3.81 KCAL/MOL
REMARK 924 INTRA-LIGAND FREE ENERGY PREDICTED BY IDOCK:   -0.76 KCAL/MOL
REMARK 927      BINDING AFFINITY PREDICTED BY RF-SCORE:    0.00 PKD
ROOT
HETATM    1  C   UNL     1      -9.159   7.837  73.182  1.00  0.00    -0.222 C  
HETATM    2  N   UNL     1     -10.577   7.989  72.891  1.00  0.00    -0.356 NA 
HETATM    3  H   UNL     1     -10.987   8.745  73.440  1.00  0.00     0.000 HD 
ENDROOT
BRANCH   2   4
HETATM    4  C   UNL     1     -10.829   8.176  71.458  1.00  0.00    -0.238 C  
BRANCH   4   5
HETATM    5  C   UNL     1     -11.331   6.851  70.878  1.00  0.00    -0.348 C  
BRANCH   5   6
HETATM    6  C   UNL     1     -10.327   6.181  69.920  1.00  0.00    -0.213 C  
BRANCH   6   7
HETATM    7  C   UNL     1     -10.031   4.769  70.416  1.00  0.00    -0.315 A  
HETATM    8  C   UNL     1      -9.403   2.210  71.393  1.00  0.00    -0.193 A  
HETATM    9  C   UNL     1      -9.565   3.768  69.551  1.00  0.00    -0.230 A  
HETATM   10  C   UNL     1     -10.166   4.467  71.782  1.00  0.00    -0.226 A  
HETATM   11  C   UNL     1      -9.259   2.495  70.037  1.00  0.00    -0.195 A  
HETATM   12  C   UNL     1      -9.856   3.196  72.266  1.00  0.00    -0.233 A  
ENDBRANCH   6   7
BRANCH   6  13
HETATM   13  O   UNL     1      -9.127   6.974  69.800  1.00  0.00    -0.144 OA 
BRANCH  13  14
HETATM   14  C   UNL     1      -8.491   6.925  68.583  1.00  0.00    -0.121 A  
HETATM   15  C   UNL     1      -7.406   6.073  68.325  1.00  0.00    -0.085 A  
HETATM   16  C   UNL     1      -7.170   6.953  66.094  1.00  0.00    -0.074 A  
HETATM   17  C   UNL     1      -6.741   6.097  67.101  1.00  0.00    -0.057 A  
HETATM   18  C   UNL     1      -8.291   7.755  66.303  1.00  0.00    -0.131 A  
HETATM   19  C   UNL     1      -8.977   7.731  67.533  1.00  0.00    -0.126 A  
HETATM   20  C   UNL     1     -10.204   8.589  67.683  1.00  0.00    -0.297 C  
ENDBRANCH  13  14
ENDBRANCH   6  13
ENDBRANCH   5   6
ENDBRANCH   4   5
ENDBRANCH   2   4
TORSDOF 6
ENDMDL
MODEL      269
REMARK 921   NORMALIZED FREE ENERGY PREDICTED BY IDOCK:   -2.76 KCAL/MOL
REMARK 922        TOTAL FREE ENERGY PREDICTED BY IDOCK:   -4.50 KCAL/MOL
REMARK 923 INTER-LIGAND FREE ENERGY PREDICTED BY IDOCK:   -3.36 KCAL/MOL
REMARK 924 INTRA-LIGAND FREE ENERGY PREDICTED BY IDOCK:   -1.14 KCAL/MOL
REMARK 927      BINDING AFFINITY PREDICTED BY RF-SCORE:    0.00 PKD
ROOT
HETATM    1  C   UNL     1      -8.073   8.144  67.979  1.00  0.00    -0.128 C  
HETATM    2  N   UNL     1      -8.151   8.115  69.432  1.00  0.00    -0.115 NA 
HETATM    3  H   UNL     1      -9.121   8.101  69.749  1.00  0.00     0.000 HD 
ENDROOT
BRANCH   2   4
HETATM    4  C   UNL     1      -7.388   7.000  70.003  1.00  0.00    -0.081 C  
BRANCH   4   5
HETATM    5  C   UNL     1      -7.368   5.856  68.986  1.00  0.00    -0.084 C  
BRANCH   5   6
HETATM    6  C   UNL     1      -8.441   4.782  69.248  1.00  0.00    -0.080 C  
BRANCH   6   7
HETATM    7  C   UNL     1      -8.856   4.159  67.919  1.00  0.00    -0.131 A  
HETATM    8  C   UNL     1      -9.510   2.993  65.447  1.00  0.00    -0.066 A  
HETATM    9  C   UNL     1      -9.492   4.911  66.920  1.00  0.00    -0.156 A  
HETATM   10  C   UNL     1      -8.543   2.814  67.652  1.00  0.00    -0.119 A  
HETATM   11  C   UNL     1      -9.822   4.328  65.694  1.00  0.00    -0.223 A  
HETATM   12  C   UNL     1      -8.871   2.236  66.425  1.00  0.00    -0.126 A  
ENDBRANCH   6   7
BRANCH   6  13
HETATM   13  O   UNL     1      -9.566   5.345  69.956  1.00  0.00    -0.151 OA 
BRANCH  13  14
HETATM   14  C   UNL     1      -9.939   4.698  71.109  1.00  0.00    -0.195 A  
HETATM   15  C   UNL     1      -9.496   3.406  71.433  1.00  0.00    -0.224 A  
HETATM   16  C   UNL     1     -10.827   3.392  73.443  1.00  0.00    -0.311 A  
HETATM   17  C   UNL     1      -9.947   2.753  72.579  1.00  0.00    -0.229 A  
HETATM   18  C   UNL     1     -11.221   4.703  73.178  1.00  0.00    -0.367 A  
HETATM   19  C   UNL     1     -10.764   5.376  72.029  1.00  0.00    -0.281 A  
HETATM   20  C   UNL     1     -11.194   6.803  71.820  1.00  0.00    -0.294 C  
ENDBRANCH  13  14
ENDBRANCH   6  13
ENDBRANCH   5   6
ENDBRANCH   4   5
ENDBRANCH   2   4
TORSDOF 6
ENDMDL
MODEL      270
REMARK 921   NORMALIZED FREE ENERGY PREDICTED BY IDOCK:   -2.72 KCAL/MOL
REMARK 922        TOTAL FREE ENERGY PREDICTED BY IDOCK:   -4.45 KCAL/MOL
REMARK 923 INTER-LIGAND FREE ENERGY PREDICTED BY IDOCK:   -4.08 KCAL/MOL
REMARK 924 INTRA-LIGAND FREE ENERGY PREDICTED BY IDOCK:   -0.38 KCAL/MOL
REMARK 927      BINDING AFFINITY PREDICTED BY RF-SCORE:    0.00 PKD
ROOT
HETATM    1  C   UNL     1      -6.243  13.379  69.440  1.00  0.00    -0.109 C  
HETATM    2  N   UNL     1      -7.155  12.872  68.426  1.00  0.00    -0.091 NA 
HETATM    3  H   UNL     1      -7.065  13.393  67.554  1.00  0.00     0.000 HD 
ENDROOT
BRANCH   2   4
HETATM    4  C   UNL     1      -6.986  11.431  68.205  1.00  0.00    -0.069 C  
BRANCH   4   5
HETATM    5  C   UNL     1      -8.349  10.753  68.373  1.00  0.00    -0.132 C  
BRANCH   5   6
HETATM    6  C   UNL     1      -8.579   9.587  67.393  1.00  0.00    -0.125 C  
BRANCH   6   7
HETATM    7  C   UNL     1      -9.042  10.147  66.052  1.00  0.00    -0.185 A  
HETATM    8  C   UNL     1      -9.799  11.243  63.577  1.00  0.00    -0.394 A  
HETATM    9  C   UNL     1     -10.187  10.951  65.947  1.00  0.00    -0.314 A  
HETATM   10  C   UNL     1      -8.276   9.913  64.896  1.00  0.00    -0.146 A  
HETATM   11  C   UNL     1     -10.565  11.490  64.715  1.00  0.00    -0.362 A  
HETATM   12  C   UNL     1      -8.655  10.455  63.668  1.00  0.00    -0.186 A  
ENDBRANCH   6   7
BRANCH   6  13
HETATM   13  O   UNL     1      -9.522   8.639  67.937  1.00  0.00    -0.138 OA 
BRANCH  13  14
HETATM   14  C   UNL     1     -10.170   9.024  69.086  1.00  0.00    -0.205 A  
HETATM   15  C   UNL     1     -11.212   9.964  69.093  1.00  0.00    -0.151 A  
HETATM   16  C   UNL     1     -11.384   9.841  71.494  1.00  0.00    -0.345 A  
HETATM   17  C   UNL     1     -11.802  10.381  70.285  1.00  0.00    -0.399 A  
HETATM   18  C   UNL     1     -10.401   8.852  71.503  1.00  0.00    -0.394 A  
HETATM   19  C   UNL     1      -9.805   8.415  70.304  1.00  0.00    -0.188 A  
HETATM   20  C   UNL     1      -8.779   7.317  70.377  1.00  0.00    -0.146 C  
ENDBRANCH  13  14
ENDBRANCH   6  13
ENDBRANCH   5   6
ENDBRANCH   4   5
ENDBRANCH   2   4
TORSDOF 6
ENDMDL
MODEL      271
REMARK 921   NORMALIZED FREE ENERGY PREDICTED BY IDOCK:   -2.71 KCAL/MOL
REMARK 922        TOTAL FREE ENERGY PREDICTED BY IDOCK:   -4.43 KCAL/MOL
REMARK 923 INTER-LIGAND FREE ENERGY PREDICTED BY IDOCK:   -3.22 KCAL/MOL
REMARK 924 INTRA-LIGAND FREE ENERGY PREDICTED BY IDOCK:   -1.21 KCAL/MOL
REMARK 927      BINDING AFFINITY PREDICTED BY RF-SCORE:    0.00 PKD
ROOT
HETATM    1  C   UNL     1      -9.880   3.695  64.744  1.00  0.00    -0.175 C  
HETATM    2  N   UNL     1      -8.918   4.558  65.413  1.00  0.00    -0.135 NA 
HETATM    3  H   UNL     1      -8.830   5.455  64.934  1.00  0.00     0.000 HD 
ENDROOT
BRANCH   2   4
HETATM    4  C   UNL     1      -9.238   4.743  66.833  1.00  0.00    -0.126 C  
BRANCH   4   5
HETATM    5  C   UNL     1      -8.143   5.606  67.467  1.00  0.00    -0.102 C  
BRANCH   5   6
HETATM    6  C   UNL     1      -8.539   7.087  67.618  1.00  0.00    -0.122 C  
BRANCH   6   7
HETATM    7  C   UNL     1      -9.121   7.308  69.010  1.00  0.00    -0.133 A  
HETATM    8  C   UNL     1     -10.177   7.604  71.598  1.00  0.00    -0.217 A  
HETATM    9  C   UNL     1     -10.466   7.661  69.197  1.00  0.00    -0.220 A  
HETATM   10  C   UNL     1      -8.319   7.094  70.144  1.00  0.00    -0.137 A  
HETATM   11  C   UNL     1     -10.988   7.813  70.483  1.00  0.00    -0.251 A  
HETATM   12  C   UNL     1      -8.843   7.244  71.428  1.00  0.00    -0.130 A  
ENDBRANCH   6   7
BRANCH   6  13
HETATM   13  O   UNL     1      -9.459   7.479  66.578  1.00  0.00    -0.181 OA 
BRANCH  13  14
HETATM   14  C   UNL     1      -8.959   8.321  65.614  1.00  0.00    -0.109 A  
HETATM   15  C   UNL     1      -8.101   7.884  64.593  1.00  0.00    -0.125 A  
HETATM   16  C   UNL     1      -7.890  10.126  63.732  1.00  0.00    -0.149 A  
HETATM   17  C   UNL     1      -7.559   8.778  63.671  1.00  0.00    -0.124 A  
HETATM   18  C   UNL     1      -8.798  10.569  64.693  1.00  0.00    -0.211 A  
HETATM   19  C   UNL     1      -9.361   9.673  65.623  1.00  0.00    -0.296 A  
HETATM   20  C   UNL     1     -10.365  10.205  66.609  1.00  0.00    -0.274 C  
ENDBRANCH  13  14
ENDBRANCH   6  13
ENDBRANCH   5   6
ENDBRANCH   4   5
ENDBRANCH   2   4
TORSDOF 6
ENDMDL
MODEL      272
REMARK 921   NORMALIZED FREE ENERGY PREDICTED BY IDOCK:   -2.63 KCAL/MOL
REMARK 922        TOTAL FREE ENERGY PREDICTED BY IDOCK:   -4.33 KCAL/MOL
REMARK 923 INTER-LIGAND FREE ENERGY PREDICTED BY IDOCK:   -4.29 KCAL/MOL
REMARK 924 INTRA-LIGAND FREE ENERGY PREDICTED BY IDOCK:   -0.04 KCAL/MOL
REMARK 927      BINDING AFFINITY PREDICTED BY RF-SCORE:    0.00 PKD
ROOT
HETATM    1  C   UNL     1      -9.256   8.752  65.908  1.00  0.00    -0.220 C  
HETATM    2  N   UNL     1      -8.390   9.562  66.752  1.00  0.00    -0.116 NA 
HETATM    3  H   UNL     1      -8.931  10.223  67.309  1.00  0.00     0.000 HD 
ENDROOT
BRANCH   2   4
HETATM    4  C   UNL     1      -7.521   8.738  67.601  1.00  0.00    -0.093 C  
BRANCH   4   5
HETATM    5  C   UNL     1      -8.384   7.684  68.298  1.00  0.00    -0.125 C  
BRANCH   5   6
HETATM    6  C   UNL     1      -9.186   8.239  69.492  1.00  0.00    -0.158 C  
BRANCH   6   7
HETATM    7  C   UNL     1      -9.214   7.193  70.601  1.00  0.00    -0.158 A  
HETATM    8  C   UNL     1      -9.376   5.245  72.621  1.00  0.00    -0.150 A  
HETATM    9  C   UNL     1      -9.060   7.547  71.950  1.00  0.00    -0.153 A  
HETATM   10  C   UNL     1      -9.462   5.846  70.285  1.00  0.00    -0.191 A  
HETATM   11  C   UNL     1      -9.136   6.578  72.952  1.00  0.00    -0.135 A  
HETATM   12  C   UNL     1      -9.540   4.879  71.288  1.00  0.00    -0.229 A  
ENDBRANCH   6   7
BRANCH   6  13
HETATM   13  O   UNL     1     -10.513   8.628  69.080  1.00  0.00    -0.220 OA 
BRANCH  13  14
HETATM   14  C   UNL     1     -11.399   8.913  70.091  1.00  0.00    -0.106 A  
HETATM   15  C   UNL     1     -11.992   7.919  70.886  1.00  0.00    -0.211 A  
HETATM   16  C   UNL     1     -13.287   9.564  72.080  1.00  0.00    -0.535 A  
HETATM   17  C   UNL     1     -12.937   8.238  71.859  1.00  0.00    -0.371 A  
HETATM   18  C   UNL     1     -12.655  10.573  71.352  1.00  0.00    -0.539 A  
HETATM   19  C   UNL     1     -11.691  10.262  70.375  1.00  0.00    -0.404 A  
HETATM   20  C   UNL     1     -11.017  11.397  69.652  1.00  0.00    -0.174 C  
ENDBRANCH  13  14
ENDBRANCH   6  13
ENDBRANCH   5   6
ENDBRANCH   4   5
ENDBRANCH   2   4
TORSDOF 6
ENDMDL
MODEL      273
REMARK 921   NORMALIZED FREE ENERGY PREDICTED BY IDOCK:   -2.61 KCAL/MOL
REMARK 922        TOTAL FREE ENERGY PREDICTED BY IDOCK:   -4.30 KCAL/MOL
REMARK 923 INTER-LIGAND FREE ENERGY PREDICTED BY IDOCK:   -3.26 KCAL/MOL
REMARK 924 INTRA-LIGAND FREE ENERGY PREDICTED BY IDOCK:   -1.05 KCAL/MOL
REMARK 927      BINDING AFFINITY PREDICTED BY RF-SCORE:    0.00 PKD
ROOT
HETATM    1  C   UNL     1      -9.280   8.822  65.591  1.00  0.00    -0.180 C  
HETATM    2  N   UNL     1      -7.961   8.672  66.187  1.00  0.00    -0.104 NA 
HETATM    3  H   UNL     1      -7.583   9.574  66.478  1.00  0.00     0.000 HD 
ENDROOT
BRANCH   2   4
HETATM    4  C   UNL     1      -7.963   7.712  67.296  1.00  0.00    -0.118 C  
BRANCH   4   5
HETATM    5  C   UNL     1      -9.267   7.881  68.080  1.00  0.00    -0.134 C  
BRANCH   5   6
HETATM    6  C   UNL     1      -9.079   8.575  69.443  1.00  0.00    -0.150 C  
BRANCH   6   7
HETATM    7  C   UNL     1      -9.840   7.794  70.508  1.00  0.00    -0.182 A  
HETATM    8  C   UNL     1     -11.313   6.442  72.484  1.00  0.00    -0.299 A  
HETATM    9  C   UNL     1      -9.243   7.438  71.727  1.00  0.00    -0.155 A  
HETATM   10  C   UNL     1     -11.193   7.469  70.303  1.00  0.00    -0.253 A  
HETATM   11  C   UNL     1      -9.975   6.762  72.706  1.00  0.00    -0.190 A  
HETATM   12  C   UNL     1     -11.923   6.796  71.283  1.00  0.00    -0.414 A  
ENDBRANCH   6   7
BRANCH   6  13
HETATM   13  O   UNL     1      -9.500   9.954  69.378  1.00  0.00    -0.187 OA 
BRANCH  13  14
HETATM   14  C   UNL     1      -8.522  10.871  69.081  1.00  0.00    -0.055 A  
HETATM   15  C   UNL     1      -7.253  10.850  69.680  1.00  0.00    -0.098 A  
HETATM   16  C   UNL     1      -6.599  12.847  68.498  1.00  0.00    -0.087 A  
HETATM   17  C   UNL     1      -6.306  11.836  69.405  1.00  0.00    -0.114 A  
HETATM   18  C   UNL     1      -7.826  12.844  67.836  1.00  0.00    -0.151 A  
HETATM   19  C   UNL     1      -8.786  11.847  68.099  1.00  0.00    -0.173 A  
HETATM   20  C   UNL     1     -10.075  11.876  67.323  1.00  0.00    -0.213 C  
ENDBRANCH  13  14
ENDBRANCH   6  13
ENDBRANCH   5   6
ENDBRANCH   4   5
ENDBRANCH   2   4
TORSDOF 6
ENDMDL
MODEL      274
REMARK 921   NORMALIZED FREE ENERGY PREDICTED BY IDOCK:   -2.58 KCAL/MOL
REMARK 922        TOTAL FREE ENERGY PREDICTED BY IDOCK:   -4.26 KCAL/MOL
REMARK 923 INTER-LIGAND FREE ENERGY PREDICTED BY IDOCK:   -3.23 KCAL/MOL
REMARK 924 INTRA-LIGAND FREE ENERGY PREDICTED BY IDOCK:   -1.02 KCAL/MOL
REMARK 927      BINDING AFFINITY PREDICTED BY RF-SCORE:    0.00 PKD
ROOT
HETATM    1  C   UNL     1      -8.289   6.177  64.898  1.00  0.00    -0.092 C  
HETATM    2  N   UNL     1      -7.950   6.395  66.296  1.00  0.00    -0.108 NA 
HETATM    3  H   UNL     1      -8.764   6.271  66.898  1.00  0.00     0.000 HD 
ENDROOT
BRANCH   2   4
HETATM    4  C   UNL     1      -6.833   5.547  66.731  1.00  0.00    -0.063 C  
BRANCH   4   5
HETATM    5  C   UNL     1      -7.075   5.138  68.186  1.00  0.00    -0.062 C  
BRANCH   5   6
HETATM    6  C   UNL     1      -8.223   5.914  68.859  1.00  0.00    -0.103 C  
BRANCH   6   7
HETATM    7  C   UNL     1      -7.693   6.595  70.117  1.00  0.00    -0.102 A  
HETATM    8  C   UNL     1      -6.667   7.929  72.368  1.00  0.00    -0.071 A  
HETATM    9  C   UNL     1      -6.765   5.966  70.959  1.00  0.00    -0.060 A  
HETATM   10  C   UNL     1      -8.089   7.910  70.417  1.00  0.00    -0.114 A  
HETATM   11  C   UNL     1      -6.260   6.628  72.080  1.00  0.00    -0.042 A  
HETATM   12  C   UNL     1      -7.581   8.571  71.537  1.00  0.00    -0.131 A  
ENDBRANCH   6   7
BRANCH   6  13
HETATM   13  O   UNL     1      -9.334   5.038  69.146  1.00  0.00    -0.108 OA 
BRANCH  13  14
HETATM   14  C   UNL     1     -10.276   5.524  70.020  1.00  0.00    -0.266 A  
HETATM   15  C   UNL     1     -11.219   6.499  69.658  1.00  0.00    -0.446 A  
HETATM   16  C   UNL     1     -12.113   6.547  71.896  1.00  0.00    -0.388 A  
HETATM   17  C   UNL     1     -12.117   7.018  70.589  1.00  0.00    -0.332 A  
HETATM   18  C   UNL     1     -11.235   5.526  72.258  1.00  0.00    -0.281 A  
HETATM   19  C   UNL     1     -10.330   4.987  71.323  1.00  0.00    -0.255 A  
HETATM   20  C   UNL     1      -9.436   3.860  71.764  1.00  0.00    -0.210 C  
ENDBRANCH  13  14
ENDBRANCH   6  13
ENDBRANCH   5   6
ENDBRANCH   4   5
ENDBRANCH   2   4
TORSDOF 6
ENDMDL
MODEL      275
REMARK 921   NORMALIZED FREE ENERGY PREDICTED BY IDOCK:   -2.55 KCAL/MOL
REMARK 922        TOTAL FREE ENERGY PREDICTED BY IDOCK:   -4.22 KCAL/MOL
REMARK 923 INTER-LIGAND FREE ENERGY PREDICTED BY IDOCK:   -3.76 KCAL/MOL
REMARK 924 INTRA-LIGAND FREE ENERGY PREDICTED BY IDOCK:   -0.46 KCAL/MOL
REMARK 927      BINDING AFFINITY PREDICTED BY RF-SCORE:    0.00 PKD
ROOT
HETATM    1  C   UNL     1     -13.202   7.108  71.373  1.00  0.00    -0.328 C  
HETATM    2  N   UNL     1     -12.143   7.536  70.472  1.00  0.00    -0.521 NA 
HETATM    3  H   UNL     1     -11.478   8.146  70.947  1.00  0.00     0.000 HD 
ENDROOT
BRANCH   2   4
HETATM    4  C   UNL     1     -11.464   6.399  69.840  1.00  0.00    -0.415 C  
BRANCH   4   5
HETATM    5  C   UNL     1     -10.658   6.919  68.646  1.00  0.00    -0.254 C  
BRANCH   5   6
HETATM    6  C   UNL     1      -9.659   8.031  69.019  1.00  0.00    -0.156 C  
BRANCH   6   7
HETATM    7  C   UNL     1      -9.792   9.175  68.019  1.00  0.00    -0.197 A  
HETATM    8  C   UNL     1      -9.953  11.237  66.116  1.00  0.00    -0.268 A  
HETATM    9  C   UNL     1      -9.494  10.500  68.373  1.00  0.00    -0.158 A  
HETATM   10  C   UNL     1     -10.160   8.902  66.690  1.00  0.00    -0.357 A  
HETATM   11  C   UNL     1      -9.580  11.524  67.428  1.00  0.00    -0.177 A  
HETATM   12  C   UNL     1     -10.243   9.926  65.747  1.00  0.00    -0.251 A  
ENDBRANCH   6   7
BRANCH   6  13
HETATM   13  O   UNL     1      -8.313   7.512  69.071  1.00  0.00    -0.126 OA 
BRANCH  13  14
HETATM   14  C   UNL     1      -7.865   6.878  67.937  1.00  0.00    -0.113 A  
HETATM   15  C   UNL     1      -8.421   5.679  67.467  1.00  0.00    -0.102 A  
HETATM   16  C   UNL     1      -6.828   5.582  65.661  1.00  0.00    -0.064 A  
HETATM   17  C   UNL     1      -7.899   5.028  66.351  1.00  0.00    -0.099 A  
HETATM   18  C   UNL     1      -6.309   6.810  66.067  1.00  0.00    -0.049 A  
HETATM   19  C   UNL     1      -6.836   7.482  67.187  1.00  0.00    -0.071 A  
HETATM   20  C   UNL     1      -6.258   8.823  67.551  1.00  0.00    -0.052 C  
ENDBRANCH  13  14
ENDBRANCH   6  13
ENDBRANCH   5   6
ENDBRANCH   4   5
ENDBRANCH   2   4
TORSDOF 6
ENDMDL
MODEL      276
REMARK 921   NORMALIZED FREE ENERGY PREDICTED BY IDOCK:   -2.50 KCAL/MOL
REMARK 922        TOTAL FREE ENERGY PREDICTED BY IDOCK:   -4.15 KCAL/MOL
REMARK 923 INTER-LIGAND FREE ENERGY PREDICTED BY IDOCK:   -3.62 KCAL/MOL
REMARK 924 INTRA-LIGAND FREE ENERGY PREDICTED BY IDOCK:   -0.53 KCAL/MOL
REMARK 927      BINDING AFFINITY PREDICTED BY RF-SCORE:    0.00 PKD
ROOT
HETATM    1  C   UNL     1      -5.701   7.962  70.781  1.00  0.00    -0.030 C  
HETATM    2  N   UNL     1      -6.022   8.601  69.514  1.00  0.00    -0.033 NA 
HETATM    3  H   UNL     1      -5.182   8.758  68.956  1.00  0.00     0.000 HD 
ENDROOT
BRANCH   2   4
HETATM    4  C   UNL     1      -7.029   7.849  68.757  1.00  0.00    -0.066 C  
BRANCH   4   5
HETATM    5  C   UNL     1      -7.688   8.798  67.753  1.00  0.00    -0.102 C  
BRANCH   5   6
HETATM    6  C   UNL     1      -9.107   8.363  67.337  1.00  0.00    -0.137 C  
BRANCH   6   7
HETATM    7  C   UNL     1     -10.007   9.592  67.276  1.00  0.00    -0.250 A  
HETATM    8  C   UNL     1     -11.573  11.923  67.160  1.00  0.00    -0.363 A  
HETATM    9  C   UNL     1     -10.850   9.941  68.342  1.00  0.00    -0.263 A  
HETATM   10  C   UNL     1      -9.955  10.440  66.155  1.00  0.00    -0.290 A  
HETATM   11  C   UNL     1     -11.631  11.096  68.281  1.00  0.00    -0.359 A  
HETATM   12  C   UNL     1     -10.735  11.595  66.097  1.00  0.00    -0.325 A  
ENDBRANCH   6   7
BRANCH   6  13
HETATM   13  O   UNL     1      -9.620   7.361  68.240  1.00  0.00    -0.148 OA 
BRANCH  13  14
HETATM   14  C   UNL     1      -9.489   6.056  67.831  1.00  0.00    -0.112 A  
HETATM   15  C   UNL     1      -9.379   5.689  66.481  1.00  0.00    -0.159 A  
HETATM   16  C   UNL     1      -9.327   3.350  67.061  1.00  0.00    -0.212 A  
HETATM   17  C   UNL     1      -9.315   4.350  66.098  1.00  0.00    -0.159 A  
HETATM   18  C   UNL     1      -9.361   3.695  68.412  1.00  0.00    -0.225 A  
HETATM   19  C   UNL     1      -9.415   5.045  68.811  1.00  0.00    -0.192 A  
HETATM   20  C   UNL     1      -9.409   5.353  70.284  1.00  0.00    -0.198 C  
ENDBRANCH  13  14
ENDBRANCH   6  13
ENDBRANCH   5   6
ENDBRANCH   4   5
ENDBRANCH   2   4
TORSDOF 6
ENDMDL
MODEL      277
REMARK 921   NORMALIZED FREE ENERGY PREDICTED BY IDOCK:   -2.31 KCAL/MOL
REMARK 922        TOTAL FREE ENERGY PREDICTED BY IDOCK:   -3.90 KCAL/MOL
REMARK 923 INTER-LIGAND FREE ENERGY PREDICTED BY IDOCK:   -3.83 KCAL/MOL
REMARK 924 INTRA-LIGAND FREE ENERGY PREDICTED BY IDOCK:   -0.07 KCAL/MOL
REMARK 927      BINDING AFFINITY PREDICTED BY RF-SCORE:    0.00 PKD
ROOT
HETATM    1  C   UNL     1      -7.384   8.342  72.147  1.00  0.00    -0.102 C  
HETATM    2  N   UNL     1      -8.658   8.392  72.848  1.00  0.00    -0.336 NA 
HETATM    3  H   UNL     1      -8.654   9.112  73.571  1.00  0.00     0.000 HD 
ENDROOT
BRANCH   2   4
HETATM    4  C   UNL     1      -9.787   8.570  71.928  1.00  0.00    -0.288 C  
BRANCH   4   5
HETATM    5  C   UNL     1      -9.833   7.368  70.980  1.00  0.00    -0.179 C  
BRANCH   5   6
HETATM    6  C   UNL     1     -10.529   7.670  69.639  1.00  0.00    -0.235 C  
BRANCH   6   7
HETATM    7  C   UNL     1     -10.342   6.481  68.703  1.00  0.00    -0.216 A  
HETATM    8  C   UNL     1      -9.886   4.313  66.973  1.00  0.00    -0.216 A  
HETATM    9  C   UNL     1     -10.907   6.460  67.419  1.00  0.00    -0.457 A  
HETATM   10  C   UNL     1      -9.535   5.400  69.099  1.00  0.00    -0.177 A  
HETATM   11  C   UNL     1     -10.684   5.379  66.562  1.00  0.00    -0.309 A  
HETATM   12  C   UNL     1      -9.311   4.323  68.241  1.00  0.00    -0.207 A  
ENDBRANCH   6   7
BRANCH   6  13
HETATM   13  O   UNL     1     -10.025   8.895  69.066  1.00  0.00    -0.179 OA 
BRANCH  13  14
HETATM   14  C   UNL     1      -8.940   8.770  68.232  1.00  0.00    -0.141 A  
HETATM   15  C   UNL     1      -7.773   8.083  68.600  1.00  0.00    -0.105 A  
HETATM   16  C   UNL     1      -6.715   8.641  66.507  1.00  0.00    -0.071 A  
HETATM   17  C   UNL     1      -6.666   8.032  67.755  1.00  0.00    -0.068 A  
HETATM   18  C   UNL     1      -7.891   9.265  66.092  1.00  0.00    -0.099 A  
HETATM   19  C   UNL     1      -9.019   9.313  66.933  1.00  0.00    -0.149 A  
HETATM   20  C   UNL     1     -10.271   9.965  66.412  1.00  0.00    -0.292 C  
ENDBRANCH  13  14
ENDBRANCH   6  13
ENDBRANCH   5   6
ENDBRANCH   4   5
ENDBRANCH   2   4
TORSDOF 6
ENDMDL
MODEL      278
REMARK 921   NORMALIZED FREE ENERGY PREDICTED BY IDOCK:   -2.23 KCAL/MOL
REMARK 922        TOTAL FREE ENERGY PREDICTED BY IDOCK:   -3.79 KCAL/MOL
REMARK 923 INTER-LIGAND FREE ENERGY PREDICTED BY IDOCK:   -3.46 KCAL/MOL
REMARK 924 INTRA-LIGAND FREE ENERGY PREDICTED BY IDOCK:   -0.33 KCAL/MOL
REMARK 927      BINDING AFFINITY PREDICTED BY RF-SCORE:    0.00 PKD
ROOT
HETATM    1  C   UNL     1      -7.196  14.524  68.227  1.00  0.00    -0.119 C  
HETATM    2  N   UNL     1      -6.832  13.119  68.124  1.00  0.00    -0.096 NA 
HETATM    3  H   UNL     1      -5.819  13.001  68.091  1.00  0.00     0.000 HD 
ENDROOT
BRANCH   2   4
HETATM    4  C   UNL     1      -7.426  12.315  69.199  1.00  0.00     0.145 C  
BRANCH   4   5
HETATM    5  C   UNL     1      -6.989  10.860  69.013  1.00  0.00    -0.089 C  
BRANCH   5   6
HETATM    6  C   UNL     1      -8.094   9.957  68.432  1.00  0.00    -0.101 C  
BRANCH   6   7
HETATM    7  C   UNL     1      -9.146   9.704  69.507  1.00  0.00    -0.209 A  
HETATM    8  C   UNL     1     -11.096   9.349  71.499  1.00  0.00    -0.446 A  
HETATM    9  C   UNL     1      -8.816   9.103  70.731  1.00  0.00    -0.291 A  
HETATM   10  C   UNL     1     -10.469  10.134  69.305  1.00  0.00    -0.246 A  
HETATM   11  C   UNL     1      -9.788   8.922  71.718  1.00  0.00    -0.386 A  
HETATM   12  C   UNL     1     -11.437   9.955  70.293  1.00  0.00    -0.349 A  
ENDBRANCH   6   7
BRANCH   6  13
HETATM   13  O   UNL     1      -7.536   8.728  67.921  1.00  0.00    -0.091 OA 
BRANCH  13  14
HETATM   14  C   UNL     1      -8.426   7.705  67.704  1.00  0.00    -0.117 A  
HETATM   15  C   UNL     1      -8.501   6.572  68.530  1.00  0.00    -0.124 A  
HETATM   16  C   UNL     1     -10.209   5.597  67.137  1.00  0.00    -0.255 A  
HETATM   17  C   UNL     1      -9.370   5.522  68.242  1.00  0.00    -0.127 A  
HETATM   18  C   UNL     1     -10.204   6.745  66.345  1.00  0.00    -0.020 A  
HETATM   19  C   UNL     1      -9.337   7.817  66.634  1.00  0.00    -0.238 A  
HETATM   20  C   UNL     1      -9.407   9.044  65.766  1.00  0.00    -0.302 C  
ENDBRANCH  13  14
ENDBRANCH   6  13
ENDBRANCH   5   6
ENDBRANCH   4   5
ENDBRANCH   2   4
TORSDOF 6
ENDMDL
MODEL      279
REMARK 921   NORMALIZED FREE ENERGY PREDICTED BY IDOCK:   -2.07 KCAL/MOL
REMARK 922        TOTAL FREE ENERGY PREDICTED BY IDOCK:   -3.57 KCAL/MOL
REMARK 923 INTER-LIGAND FREE ENERGY PREDICTED BY IDOCK:   -2.97 KCAL/MOL
REMARK 924 INTRA-LIGAND FREE ENERGY PREDICTED BY IDOCK:   -0.60 KCAL/MOL
REMARK 927      BINDING AFFINITY PREDICTED BY RF-SCORE:    0.00 PKD
ROOT
HETATM    1  C   UNL     1      -8.253  10.752  67.415  1.00  0.00    -0.116 C  
HETATM    2  N   UNL     1      -8.817  10.135  68.607  1.00  0.00    -0.130 NA 
HETATM    3  H   UNL     1      -9.501   9.419  68.364  1.00  0.00     0.000 HD 
ENDROOT
BRANCH   2   4
HETATM    4  C   UNL     1      -7.778   9.598  69.493  1.00  0.00    -0.109 C  
BRANCH   4   5
HETATM    5  C   UNL     1      -8.122   8.141  69.815  1.00  0.00    -0.116 C  
BRANCH   5   6
HETATM    6  C   UNL     1      -9.628   7.830  69.713  1.00  0.00    -0.167 C  
BRANCH   6   7
HETATM    7  C   UNL     1     -10.076   7.119  70.986  1.00  0.00    -0.199 A  
HETATM    8  C   UNL     1     -10.856   5.714  73.292  1.00  0.00    -0.321 A  
HETATM    9  C   UNL     1     -11.434   6.940  71.289  1.00  0.00    -0.337 A  
HETATM   10  C   UNL     1      -9.116   6.571  71.854  1.00  0.00    -0.148 A  
HETATM   11  C   UNL     1     -11.820   6.246  72.437  1.00  0.00    -0.272 A  
HETATM   12  C   UNL     1      -9.504   5.876  73.000  1.00  0.00    -0.151 A  
ENDBRANCH   6   7
BRANCH   6  13
HETATM   13  O   UNL     1      -9.911   7.052  68.531  1.00  0.00    -0.143 OA 
BRANCH  13  14
HETATM   14  C   UNL     1      -8.868   6.310  68.032  1.00  0.00    -0.112 A  
HETATM   15  C   UNL     1      -7.853   6.863  67.236  1.00  0.00    -0.110 A  
HETATM   16  C   UNL     1      -6.814   4.706  66.960  1.00  0.00    -0.056 A  
HETATM   17  C   UNL     1      -6.846   6.068  66.691  1.00  0.00    -0.062 A  
HETATM   18  C   UNL     1      -7.769   4.149  67.810  1.00  0.00    -0.072 A  
HETATM   19  C   UNL     1      -8.785   4.945  68.374  1.00  0.00    -0.109 A  
HETATM   20  C   UNL     1      -9.763   4.293  69.314  1.00  0.00    -0.240 C  
ENDBRANCH  13  14
ENDBRANCH   6  13
ENDBRANCH   5   6
ENDBRANCH   4   5
ENDBRANCH   2   4
TORSDOF 6
ENDMDL
MODEL      280
REMARK 921   NORMALIZED FREE ENERGY PREDICTED BY IDOCK:   -2.03 KCAL/MOL
REMARK 922        TOTAL FREE ENERGY PREDICTED BY IDOCK:   -3.52 KCAL/MOL
REMARK 923 INTER-LIGAND FREE ENERGY PREDICTED BY IDOCK:   -3.05 KCAL/MOL
REMARK 924 INTRA-LIGAND FREE ENERGY PREDICTED BY IDOCK:   -0.48 KCAL/MOL
REMARK 927      BINDING AFFINITY PREDICTED BY RF-SCORE:    0.00 PKD
ROOT
HETATM    1  C   UNL     1      -5.980  14.115  70.852  1.00  0.00    -0.196 C  
HETATM    2  N   UNL     1      -5.518  13.226  69.795  1.00  0.00    -0.092 NA 
HETATM    3  H   UNL     1      -4.548  12.947  69.945  1.00  0.00     0.000 HD 
ENDROOT
BRANCH   2   4
HETATM    4  C   UNL     1      -6.389  12.057  69.638  1.00  0.00    -0.120 C  
BRANCH   4   5
HETATM    5  C   UNL     1      -7.746  12.531  69.110  1.00  0.00     0.302 C  
BRANCH   5   6
HETATM    6  C   UNL     1      -7.652  13.284  67.768  1.00  0.00    -0.161 C  
BRANCH   6   7
HETATM    7  C   UNL     1      -8.268  14.669  67.931  1.00  0.00    -0.152 A  
HETATM    8  C   UNL     1      -9.481  17.195  68.154  1.00  0.00    -0.269 A  
HETATM    9  C   UNL     1      -7.576  15.831  67.555  1.00  0.00    -0.194 A  
HETATM   10  C   UNL     1      -9.584  14.797  68.409  1.00  0.00    -0.213 A  
HETATM   11  C   UNL     1      -8.178  17.085  67.672  1.00  0.00    -0.193 A  
HETATM   12  C   UNL     1     -10.184  16.051  68.522  1.00  0.00    -0.236 A  
ENDBRANCH   6   7
BRANCH   6  13
HETATM   13  O   UNL     1      -8.286  12.530  66.713  1.00  0.00    -0.139 OA 
BRANCH  13  14
HETATM   14  C   UNL     1      -9.059  11.467  67.112  1.00  0.00    -0.164 A  
HETATM   15  C   UNL     1     -10.387  11.610  67.542  1.00  0.00    -0.220 A  
HETATM   16  C   UNL     1     -10.551   9.252  68.012  1.00  0.00    -0.262 A  
HETATM   17  C   UNL     1     -11.121  10.519  68.003  1.00  0.00    -0.361 A  
HETATM   18  C   UNL     1      -9.259   9.075  67.519  1.00  0.00    -0.152 A  
HETATM   19  C   UNL     1      -8.512  10.169  67.041  1.00  0.00    -0.129 A  
HETATM   20  C   UNL     1      -7.138   9.907  66.486  1.00  0.00    -0.094 C  
ENDBRANCH  13  14
ENDBRANCH   6  13
ENDBRANCH   5   6
ENDBRANCH   4   5
ENDBRANCH   2   4
TORSDOF 6
ENDMDL
MODEL      281
REMARK 921   NORMALIZED FREE ENERGY PREDICTED BY IDOCK:   -1.65 KCAL/MOL
REMARK 922        TOTAL FREE ENERGY PREDICTED BY IDOCK:   -3.01 KCAL/MOL
REMARK 923 INTER-LIGAND FREE ENERGY PREDICTED BY IDOCK:   -2.42 KCAL/MOL
REMARK 924 INTRA-LIGAND FREE ENERGY PREDICTED BY IDOCK:   -0.58 KCAL/MOL
REMARK 927      BINDING AFFINITY PREDICTED BY RF-SCORE:    0.00 PKD
ROOT
HETATM    1  C   UNL     1      -5.273  13.957  71.453  1.00  0.00    -0.171 C  
HETATM    2  N   UNL     1      -5.689  13.933  70.059  1.00  0.00    -0.117 NA 
HETATM    3  H   UNL     1      -4.884  13.882  69.434  1.00  0.00     0.000 HD 
ENDROOT
BRANCH   2   4
HETATM    4  C   UNL     1      -6.643  12.852  69.787  1.00  0.00     0.072 C  
BRANCH   4   5
HETATM    5  C   UNL     1      -7.927  13.470  69.226  1.00  0.00     0.471 C  
BRANCH   5   6
HETATM    6  C   UNL     1      -7.979  13.486  67.687  1.00  0.00    -0.176 C  
BRANCH   6   7
HETATM    7  C   UNL     1      -8.058  14.931  67.206  1.00  0.00    -0.234 A  
HETATM    8  C   UNL     1      -8.271  17.561  66.236  1.00  0.00    -0.275 A  
HETATM    9  C   UNL     1      -6.926  15.614  66.737  1.00  0.00     0.282 A  
HETATM   10  C   UNL     1      -9.301  15.587  67.169  1.00  0.00    -0.227 A  
HETATM   11  C   UNL     1      -7.032  16.922  66.260  1.00  0.00    -0.131 A  
HETATM   12  C   UNL     1      -9.406  16.893  66.690  1.00  0.00    -0.278 A  
ENDBRANCH   6   7
BRANCH   6  13
HETATM   13  O   UNL     1      -9.084  12.694  67.203  1.00  0.00    -0.195 OA 
BRANCH  13  14
HETATM   14  C   UNL     1      -9.333  11.527  67.884  1.00  0.00    -0.171 A  
HETATM   15  C   UNL     1      -8.487  10.409  67.814  1.00  0.00    -0.114 A  
HETATM   16  C   UNL     1      -9.962   9.131  69.227  1.00  0.00    -0.187 A  
HETATM   17  C   UNL     1      -8.805   9.219  68.465  1.00  0.00    -0.129 A  
HETATM   18  C   UNL     1     -10.779  10.252  69.370  1.00  0.00    -0.272 A  
HETATM   19  C   UNL     1     -10.462  11.463  68.726  1.00  0.00    -0.228 A  
HETATM   20  C   UNL     1     -11.362  12.648  68.952  1.00  0.00    -0.345 C  
ENDBRANCH  13  14
ENDBRANCH   6  13
ENDBRANCH   5   6
ENDBRANCH   4   5
ENDBRANCH   2   4
TORSDOF 6
ENDMDL
