MODEL        1
REMARK 921   NORMALIZED FREE ENERGY PREDICTED BY IDOCK:   -8.26 KCAL/MOL
REMARK 922        TOTAL FREE ENERGY PREDICTED BY IDOCK:  -15.84 KCAL/MOL
REMARK 923 INTER-LIGAND FREE ENERGY PREDICTED BY IDOCK:  -13.09 KCAL/MOL
REMARK 924 INTRA-LIGAND FREE ENERGY PREDICTED BY IDOCK:   -2.75 KCAL/MOL
REMARK 927      BINDING AFFINITY PREDICTED BY RF-SCORE:    0.00 PKD
ROOT
HETATM    1  C   UNL     1     -12.373  14.581  65.165  1.00  0.00    -0.324 C  
HETATM    2  C   UNL     1     -11.594  13.384  65.712  1.00  0.00    -0.358 C  
HETATM    3  C   UNL     1     -11.520  13.280  67.241  1.00  0.00    -0.338 A  
HETATM    4  C   UNL     1     -10.249  13.253  64.993  1.00  0.00    -0.313 C  
HETATM    5  C   UNL     1     -11.562  14.245  68.267  1.00  0.00    -0.358 A  
HETATM    6  N   UNL     1     -11.527  12.024  67.864  1.00  0.00    -0.307 NA 
HETATM    7  C   UNL     1     -11.830  13.521  69.516  1.00  0.00    -0.392 A  
HETATM    8  C   UNL     1     -11.722  12.143  69.251  1.00  0.00    -0.328 A  
ENDROOT
BRANCH   5   9
HETATM    9  C   UNL     1     -11.492  15.732  68.115  1.00  0.00    -0.302 C  
HETATM   10  O   UNL     1     -12.398  16.443  68.550  1.00  0.00     0.464 OA 
HETATM   11  N   UNL     1     -10.358  16.216  67.476  1.00  0.00    -0.280 N  
HETATM   12  H   UNL     1      -9.703  15.525  67.109  1.00  0.00     0.000 HD 
BRANCH  11  13
HETATM   13  C   UNL     1     -10.027  17.584  67.283  1.00  0.00    -0.312 A  
HETATM   14  C   UNL     1      -8.846  19.629  67.882  1.00  0.00    -0.379 A  
HETATM   15  C   UNL     1      -9.432  20.305  66.815  1.00  0.00    -0.518 A  
HETATM   16  C   UNL     1     -10.581  18.265  66.191  1.00  0.00    -0.326 A  
HETATM   17  C   UNL     1      -9.149  18.280  68.119  1.00  0.00    -0.310 A  
HETATM   18  C   UNL     1     -10.307  19.624  65.974  1.00  0.00    -0.620 A  
ENDBRANCH  11  13
ENDBRANCH   5   9
BRANCH   7  19
HETATM   19  C   UNL     1     -12.166  14.069  70.860  1.00  0.00    -0.436 A  
HETATM   20  C   UNL     1     -13.358  13.701  71.514  1.00  0.00    -0.372 A  
HETATM   21  C   UNL     1     -11.672  15.488  72.790  1.00  0.00    -0.545 A  
HETATM   22  C   UNL     1     -12.834  15.072  73.435  1.00  0.00    -0.652 A  
HETATM   23  C   UNL     1     -11.326  14.972  71.529  1.00  0.00    -0.330 A  
HETATM   24  C   UNL     1     -13.673  14.168  72.799  1.00  0.00    -0.447 A  
ENDBRANCH   7  19
BRANCH   8  25
HETATM   25  C   UNL     1     -11.750  10.964  70.192  1.00  0.00    -0.433 A  
HETATM   26  C   UNL     1     -10.583  10.265  70.545  1.00  0.00    -0.136 A  
HETATM   27  C   UNL     1     -12.958   9.413  71.653  1.00  0.00    -0.471 A  
HETATM   28  C   UNL     1     -12.947  10.501  70.762  1.00  0.00    -0.413 A  
HETATM   29  F   UNL     1     -11.769   7.822  72.933  1.00  0.00    -0.377 F  
HETATM   30  C   UNL     1     -10.571   9.248  71.503  1.00  0.00    -0.405 A  
HETATM   31  C   UNL     1     -11.765   8.820  72.044  1.00  0.00    -0.372 A  
ENDBRANCH   8  25
BRANCH   6  32
HETATM   32  C   UNL     1     -11.251  10.758  67.169  1.00  0.00    -0.147 C  
BRANCH  32  33
HETATM   33  C   UNL     1      -9.763  10.393  67.010  1.00  0.00    -0.216 C  
BRANCH  33  34
HETATM   34  C   UNL     1      -9.517   9.045  66.302  1.00  0.00    -0.242 C  
HETATM   35  O   UNL     1      -8.487   9.127  65.317  1.00  0.00    -0.136 OA 
HETATM   36  H   UNL     1      -8.336   8.296  64.881  1.00  0.00     0.000 HD 
BRANCH  34  37
HETATM   37  C   UNL     1      -9.074   7.981  67.322  1.00  0.00    -0.153 C  
BRANCH  37  38
HETATM   38  C   UNL     1     -10.248   7.224  67.968  1.00  0.00    -0.185 C  
HETATM   39  H   UNL     1     -11.858   6.227  67.368  1.00  0.00     0.000 HD 
HETATM   40  O   UNL     1     -11.134   6.693  66.970  1.00  0.00    -0.403 OA 
BRANCH  38  41
HETATM   41  C   UNL     1      -9.737   6.043  68.791  1.00  0.00    -0.156 C  
HETATM   42  C   UNL     1     -10.438   5.896  70.121  1.00  0.00    -0.262 C  
HETATM   43  O   UNL     1     -11.768   6.128  70.084  1.00  0.00    -0.330 OA 
HETATM   44  O   UNL     1      -9.867   5.526  71.137  1.00  0.00    -0.168 OA 
ENDBRANCH  38  41
ENDBRANCH  37  38
ENDBRANCH  34  37
ENDBRANCH  33  34
ENDBRANCH  32  33
ENDBRANCH   6  32
TORSDOF 10
ENDMDL
MODEL        2
REMARK 921   NORMALIZED FREE ENERGY PREDICTED BY IDOCK:   -8.20 KCAL/MOL
REMARK 922        TOTAL FREE ENERGY PREDICTED BY IDOCK:  -15.74 KCAL/MOL
REMARK 923 INTER-LIGAND FREE ENERGY PREDICTED BY IDOCK:  -12.87 KCAL/MOL
REMARK 924 INTRA-LIGAND FREE ENERGY PREDICTED BY IDOCK:   -2.87 KCAL/MOL
REMARK 927      BINDING AFFINITY PREDICTED BY RF-SCORE:    0.00 PKD
ROOT
HETATM    1  C   UNL     1     -12.374  14.514  65.139  1.00  0.00    -0.324 C  
HETATM    2  C   UNL     1     -11.548  13.341  65.673  1.00  0.00    -0.363 C  
HETATM    3  C   UNL     1     -11.466  13.226  67.201  1.00  0.00    -0.341 A  
HETATM    4  C   UNL     1     -10.202  13.269  64.949  1.00  0.00    -0.313 C  
HETATM    5  C   UNL     1     -11.542  14.178  68.236  1.00  0.00    -0.356 A  
HETATM    6  N   UNL     1     -11.424  11.965  67.811  1.00  0.00    -0.318 NA 
HETATM    7  C   UNL     1     -11.779  13.432  69.479  1.00  0.00    -0.385 A  
HETATM    8  C   UNL     1     -11.620  12.062  69.200  1.00  0.00    -0.312 A  
ENDROOT
BRANCH   5   9
HETATM    9  C   UNL     1     -11.528  15.668  68.099  1.00  0.00    -0.322 C  
HETATM   10  O   UNL     1     -12.484  16.336  68.494  1.00  0.00     0.565 OA 
HETATM   11  N   UNL     1     -10.387  16.207  67.519  1.00  0.00    -0.280 N  
HETATM   12  H   UNL     1      -9.686  15.547  67.180  1.00  0.00     0.000 HD 
BRANCH  11  13
HETATM   13  C   UNL     1     -10.106  17.589  67.353  1.00  0.00    -0.325 A  
HETATM   14  C   UNL     1     -10.186  19.679  66.103  1.00  0.00    -0.604 A  
HETATM   15  C   UNL     1      -9.499  20.337  67.119  1.00  0.00    -0.557 A  
HETATM   16  C   UNL     1      -9.449  18.271  68.385  1.00  0.00    -0.336 A  
HETATM   17  C   UNL     1     -10.479  18.311  66.216  1.00  0.00    -0.397 A  
HETATM   18  C   UNL     1      -9.122  19.630  68.258  1.00  0.00    -0.395 A  
ENDBRANCH  11  13
ENDBRANCH   5   9
BRANCH   7  19
HETATM   19  C   UNL     1     -12.131  13.954  70.829  1.00  0.00    -0.404 A  
HETATM   20  C   UNL     1     -13.323  13.559  71.468  1.00  0.00    -0.363 A  
HETATM   21  C   UNL     1     -11.669  15.348  72.785  1.00  0.00    -0.535 A  
HETATM   22  C   UNL     1     -12.830  14.906  73.414  1.00  0.00    -0.638 A  
HETATM   23  C   UNL     1     -11.308  14.857  71.518  1.00  0.00    -0.232 A  
HETATM   24  C   UNL     1     -13.653  14.002  72.758  1.00  0.00    -0.515 A  
ENDBRANCH   7  19
BRANCH   8  25
HETATM   25  C   UNL     1     -11.600  10.873  70.129  1.00  0.00    -0.425 A  
HETATM   26  C   UNL     1     -10.417  10.173  70.417  1.00  0.00    -0.237 A  
HETATM   27  C   UNL     1     -12.733   9.306  71.631  1.00  0.00    -0.442 A  
HETATM   28  C   UNL     1     -12.767  10.403  70.752  1.00  0.00    -0.460 A  
HETATM   29  F   UNL     1     -11.481   7.704  72.836  1.00  0.00    -0.361 F  
HETATM   30  C   UNL     1     -10.356   9.146  71.363  1.00  0.00    -0.409 A  
HETATM   31  C   UNL     1     -11.522   8.712  71.957  1.00  0.00    -0.367 A  
ENDBRANCH   8  25
BRANCH   6  32
HETATM   32  C   UNL     1     -11.102  10.717  67.102  1.00  0.00    -0.196 C  
BRANCH  32  33
HETATM   33  C   UNL     1      -9.610  10.336  67.063  1.00  0.00    -0.205 C  
BRANCH  33  34
HETATM   34  C   UNL     1      -9.349   8.816  67.029  1.00  0.00    -0.157 C  
HETATM   35  O   UNL     1      -8.353   8.414  67.969  1.00  0.00    -0.125 OA 
HETATM   36  H   UNL     1      -8.192   7.478  67.948  1.00  0.00     0.000 HD 
BRANCH  34  37
HETATM   37  C   UNL     1     -10.633   8.046  67.384  1.00  0.00    -0.337 C  
BRANCH  37  38
HETATM   38  C   UNL     1     -10.371   6.614  67.882  1.00  0.00    -0.189 C  
HETATM   39  H   UNL     1     -11.274   5.275  69.040  1.00  0.00     0.000 HD 
HETATM   40  O   UNL     1     -11.436   6.158  68.732  1.00  0.00    -0.259 OA 
BRANCH  38  41
HETATM   41  C   UNL     1     -10.286   5.643  66.706  1.00  0.00    -0.276 C  
HETATM   42  C   UNL     1      -8.872   5.412  66.226  1.00  0.00    -0.131 C  
HETATM   43  O   UNL     1      -7.953   5.313  67.210  1.00  0.00    -0.100 OA 
HETATM   44  O   UNL     1      -8.588   5.253  65.047  1.00  0.00    -0.146 OA 
ENDBRANCH  38  41
ENDBRANCH  37  38
ENDBRANCH  34  37
ENDBRANCH  33  34
ENDBRANCH  32  33
ENDBRANCH   6  32
TORSDOF 10
ENDMDL
MODEL        3
REMARK 921   NORMALIZED FREE ENERGY PREDICTED BY IDOCK:   -8.05 KCAL/MOL
REMARK 922        TOTAL FREE ENERGY PREDICTED BY IDOCK:  -15.51 KCAL/MOL
REMARK 923 INTER-LIGAND FREE ENERGY PREDICTED BY IDOCK:  -12.58 KCAL/MOL
REMARK 924 INTRA-LIGAND FREE ENERGY PREDICTED BY IDOCK:   -2.93 KCAL/MOL
REMARK 927      BINDING AFFINITY PREDICTED BY RF-SCORE:    0.00 PKD
ROOT
HETATM    1  C   UNL     1     -12.335  14.350  65.128  1.00  0.00    -0.383 C  
HETATM    2  C   UNL     1     -11.537  13.189  65.726  1.00  0.00    -0.383 C  
HETATM    3  C   UNL     1     -11.508  13.121  67.259  1.00  0.00    -0.331 A  
HETATM    4  C   UNL     1     -10.166  13.086  65.051  1.00  0.00    -0.287 C  
HETATM    5  C   UNL     1     -11.612  14.105  68.260  1.00  0.00    -0.356 A  
HETATM    6  N   UNL     1     -11.496  11.879  67.909  1.00  0.00    -0.296 NA 
HETATM    7  C   UNL     1     -11.897  13.400  69.517  1.00  0.00    -0.391 A  
HETATM    8  C   UNL     1     -11.739  12.021  69.286  1.00  0.00    -0.330 A  
ENDROOT
BRANCH   5   9
HETATM    9  C   UNL     1     -11.583  15.590  68.078  1.00  0.00    -0.268 C  
HETATM   10  O   UNL     1     -12.512  16.284  68.492  1.00  0.00     0.565 OA 
HETATM   11  N   UNL     1     -10.459  16.093  67.436  1.00  0.00    -0.305 N  
HETATM   12  H   UNL     1      -9.782  15.413  67.089  1.00  0.00     0.000 HD 
BRANCH  11  13
HETATM   13  C   UNL     1     -10.165  17.465  67.217  1.00  0.00    -0.324 A  
HETATM   14  C   UNL     1     -10.204  19.500  65.878  1.00  0.00    -0.508 A  
HETATM   15  C   UNL     1      -9.534  20.197  66.880  1.00  0.00    -0.543 A  
HETATM   16  C   UNL     1      -9.524  18.187  68.233  1.00  0.00    -0.315 A  
HETATM   17  C   UNL     1     -10.509  18.141  66.043  1.00  0.00    -0.346 A  
HETATM   18  C   UNL     1      -9.186  19.538  68.055  1.00  0.00    -0.400 A  
ENDBRANCH  11  13
ENDBRANCH   5   9
BRANCH   7  19
HETATM   19  C   UNL     1     -12.292  13.965  70.837  1.00  0.00    -0.451 A  
HETATM   20  C   UNL     1     -11.457  14.879  71.511  1.00  0.00    -0.307 A  
HETATM   21  C   UNL     1     -13.838  14.152  72.723  1.00  0.00    -0.356 A  
HETATM   22  C   UNL     1     -13.017  15.089  73.346  1.00  0.00    -0.622 A  
HETATM   23  C   UNL     1     -13.495  13.617  71.470  1.00  0.00    -0.332 A  
HETATM   24  C   UNL     1     -11.829  15.460  72.733  1.00  0.00    -0.563 A  
ENDBRANCH   7  19
BRANCH   8  25
HETATM   25  C   UNL     1     -11.760  10.861  70.251  1.00  0.00    -0.437 A  
HETATM   26  C   UNL     1     -12.952  10.396  70.832  1.00  0.00    -0.475 A  
HETATM   27  C   UNL     1     -10.619   9.095  71.507  1.00  0.00    -0.428 A  
HETATM   28  C   UNL     1     -10.585  10.187  70.622  1.00  0.00    -0.172 A  
HETATM   29  F   UNL     1     -11.873   7.542  72.773  1.00  0.00    -0.307 F  
HETATM   30  C   UNL     1     -13.008   9.253  71.633  1.00  0.00    -0.447 A  
HETATM   31  C   UNL     1     -11.834   8.615  71.975  1.00  0.00    -0.372 A  
ENDBRANCH   8  25
BRANCH   6  32
HETATM   32  C   UNL     1     -11.159  10.608  67.250  1.00  0.00    -0.243 C  
BRANCH  32  33
HETATM   33  C   UNL     1      -9.664  10.239  67.232  1.00  0.00    -0.199 C  
BRANCH  33  34
HETATM   34  C   UNL     1      -8.744  11.310  67.853  1.00  0.00    -0.138 C  
HETATM   35  O   UNL     1      -8.214  10.907  69.116  1.00  0.00    -0.242 OA 
HETATM   36  H   UNL     1      -7.647  11.566  69.499  1.00  0.00     0.000 HD 
BRANCH  34  37
HETATM   37  C   UNL     1      -7.541  11.579  66.932  1.00  0.00    -0.151 C  
BRANCH  37  38
HETATM   38  C   UNL     1      -6.490  12.516  67.553  1.00  0.00    -0.153 C  
HETATM   39  H   UNL     1      -4.643  13.124  67.146  1.00  0.00     0.000 HD 
HETATM   40  O   UNL     1      -5.291  12.546  66.763  1.00  0.00    -0.329 OA 
BRANCH  38  41
HETATM   41  C   UNL     1      -7.021  13.947  67.623  1.00  0.00    -0.189 C  
HETATM   42  C   UNL     1      -7.338  14.396  69.030  1.00  0.00    -0.127 C  
HETATM   43  O   UNL     1      -6.449  13.993  69.963  1.00  0.00    -0.136 OA 
HETATM   44  O   UNL     1      -8.281  15.128  69.298  1.00  0.00    -0.204 OA 
ENDBRANCH  38  41
ENDBRANCH  37  38
ENDBRANCH  34  37
ENDBRANCH  33  34
ENDBRANCH  32  33
ENDBRANCH   6  32
TORSDOF 10
ENDMDL
MODEL        4
REMARK 921   NORMALIZED FREE ENERGY PREDICTED BY IDOCK:   -7.76 KCAL/MOL
REMARK 922        TOTAL FREE ENERGY PREDICTED BY IDOCK:  -15.04 KCAL/MOL
REMARK 923 INTER-LIGAND FREE ENERGY PREDICTED BY IDOCK:  -12.39 KCAL/MOL
REMARK 924 INTRA-LIGAND FREE ENERGY PREDICTED BY IDOCK:   -2.65 KCAL/MOL
REMARK 927      BINDING AFFINITY PREDICTED BY RF-SCORE:    0.00 PKD
ROOT
HETATM    1  C   UNL     1     -12.486  14.134  65.167  1.00  0.00    -0.453 C  
HETATM    2  C   UNL     1     -11.679  12.969  65.743  1.00  0.00    -0.427 C  
HETATM    3  C   UNL     1     -11.594  12.910  67.274  1.00  0.00    -0.360 A  
HETATM    4  C   UNL     1     -10.337  12.844  65.018  1.00  0.00    -0.334 C  
HETATM    5  C   UNL     1     -11.650  13.902  68.272  1.00  0.00    -0.372 A  
HETATM    6  N   UNL     1     -11.572  11.672  67.932  1.00  0.00    -0.457 NA 
HETATM    7  C   UNL     1     -11.896  13.208  69.543  1.00  0.00    -0.383 A  
HETATM    8  C   UNL     1     -11.762  11.826  69.316  1.00  0.00    -0.335 A  
ENDROOT
BRANCH   5   9
HETATM    9  C   UNL     1     -11.610  15.385  68.078  1.00  0.00    -0.292 C  
HETATM   10  O   UNL     1     -12.629  16.059  68.234  1.00  0.00     0.800 OA 
HETATM   11  N   UNL     1     -10.373  15.912  67.730  1.00  0.00    -0.271 N  
HETATM   12  H   UNL     1      -9.614  15.247  67.575  1.00  0.00     0.000 HD 
BRANCH  11  13
HETATM   13  C   UNL     1     -10.065  17.288  67.569  1.00  0.00    -0.315 A  
HETATM   14  C   UNL     1      -9.501  19.237  66.219  1.00  0.00    -0.387 A  
HETATM   15  C   UNL     1      -9.463  20.040  67.356  1.00  0.00    -0.508 A  
HETATM   16  C   UNL     1     -10.060  18.115  68.701  1.00  0.00    -0.406 A  
HETATM   17  C   UNL     1      -9.791  17.868  66.327  1.00  0.00    -0.307 A  
HETATM   18  C   UNL     1      -9.734  19.476  68.600  1.00  0.00    -0.514 A  
ENDBRANCH  11  13
ENDBRANCH   5   9
BRANCH   7  19
HETATM   19  C   UNL     1     -12.234  13.788  70.873  1.00  0.00    -0.427 A  
HETATM   20  C   UNL     1     -11.412  14.766  71.466  1.00  0.00    -0.203 A  
HETATM   21  C   UNL     1     -13.659  13.939  72.855  1.00  0.00    -0.283 A  
HETATM   22  C   UNL     1     -12.855  14.938  73.397  1.00  0.00    -0.638 A  
HETATM   23  C   UNL     1     -13.369  13.389  71.595  1.00  0.00    -0.420 A  
HETATM   24  C   UNL     1     -11.735  15.359  72.695  1.00  0.00    -0.556 A  
ENDBRANCH   7  19
BRANCH   8  25
HETATM   25  C   UNL     1     -11.760  10.673  70.289  1.00  0.00    -0.433 A  
HETATM   26  C   UNL     1     -12.948  10.155  70.832  1.00  0.00    -0.432 A  
HETATM   27  C   UNL     1     -10.579   8.974  71.599  1.00  0.00    -0.434 A  
HETATM   28  C   UNL     1     -10.567  10.060  70.706  1.00  0.00    -0.209 A  
HETATM   29  F   UNL     1     -11.799   7.370  72.834  1.00  0.00    -0.260 F  
HETATM   30  C   UNL     1     -12.976   9.015  71.641  1.00  0.00    -0.418 A  
HETATM   31  C   UNL     1     -11.785   8.438  72.029  1.00  0.00    -0.352 A  
ENDBRANCH   8  25
BRANCH   6  32
HETATM   32  C   UNL     1     -11.275  10.393  67.270  1.00  0.00    -0.075 C  
BRANCH  32  33
HETATM   33  C   UNL     1      -9.782  10.055  67.107  1.00  0.00    -0.217 C  
BRANCH  33  34
HETATM   34  C   UNL     1      -9.488   8.547  66.967  1.00  0.00    -0.173 C  
HETATM   35  O   UNL     1      -8.303   8.291  66.213  1.00  0.00    -0.113 OA 
HETATM   36  H   UNL     1      -8.122   7.363  66.127  1.00  0.00     0.000 HD 
BRANCH  34  37
HETATM   37  C   UNL     1      -9.279   7.913  68.354  1.00  0.00    -0.134 C  
BRANCH  37  38
HETATM   38  C   UNL     1      -9.390   6.379  68.349  1.00  0.00    -0.121 C  
HETATM   39  H   UNL     1      -9.594   4.918  69.680  1.00  0.00     0.000 HD 
HETATM   40  O   UNL     1      -9.525   5.865  69.683  1.00  0.00    -0.140 OA 
BRANCH  38  41
HETATM   41  C   UNL     1     -10.624   5.933  67.567  1.00  0.00    -0.347 C  
HETATM   42  C   UNL     1     -10.325   4.864  66.542  1.00  0.00    -0.270 C  
HETATM   43  O   UNL     1      -9.447   3.923  66.950  1.00  0.00    -0.180 OA 
HETATM   44  O   UNL     1     -10.886   4.808  65.456  1.00  0.00    -0.239 OA 
ENDBRANCH  38  41
ENDBRANCH  37  38
ENDBRANCH  34  37
ENDBRANCH  33  34
ENDBRANCH  32  33
ENDBRANCH   6  32
TORSDOF 10
ENDMDL
MODEL        5
REMARK 921   NORMALIZED FREE ENERGY PREDICTED BY IDOCK:   -7.64 KCAL/MOL
REMARK 922        TOTAL FREE ENERGY PREDICTED BY IDOCK:  -14.85 KCAL/MOL
REMARK 923 INTER-LIGAND FREE ENERGY PREDICTED BY IDOCK:  -12.35 KCAL/MOL
REMARK 924 INTRA-LIGAND FREE ENERGY PREDICTED BY IDOCK:   -2.50 KCAL/MOL
REMARK 927      BINDING AFFINITY PREDICTED BY RF-SCORE:    0.00 PKD
ROOT
HETATM    1  C   UNL     1      -8.731  10.877  67.860  1.00  0.00    -0.131 C  
HETATM    2  C   UNL     1      -8.994  12.140  67.037  1.00  0.00    -0.201 C  
HETATM    3  C   UNL     1      -9.911  13.181  67.692  1.00  0.00    -0.219 A  
HETATM    4  C   UNL     1      -9.367  11.767  65.600  1.00  0.00    -0.165 C  
HETATM    5  C   UNL     1     -10.956  13.078  68.630  1.00  0.00    -0.297 A  
HETATM    6  N   UNL     1      -9.686  14.549  67.483  1.00  0.00    -0.209 NA 
HETATM    7  C   UNL     1     -11.191  14.432  69.151  1.00  0.00    -0.300 A  
HETATM    8  C   UNL     1     -10.448  15.333  68.366  1.00  0.00    -0.236 A  
ENDROOT
BRANCH   5   9
HETATM    9  C   UNL     1     -11.615  11.827  69.119  1.00  0.00    -0.310 C  
HETATM   10  O   UNL     1     -12.279  11.134  68.348  1.00  0.00    -0.610 OA 
HETATM   11  N   UNL     1     -11.412  11.527  70.460  1.00  0.00    -0.414 N  
HETATM   12  H   UNL     1     -10.889  12.207  71.012  1.00  0.00     0.000 HD 
BRANCH  11  13
HETATM   13  C   UNL     1     -11.865  10.362  71.133  1.00  0.00    -0.337 A  
HETATM   14  C   UNL     1     -11.571   8.090  71.964  1.00  0.00    -0.369 A  
HETATM   15  C   UNL     1     -12.859   8.094  72.493  1.00  0.00    -0.116 A  
HETATM   16  C   UNL     1     -13.146  10.366  71.702  1.00  0.00    -0.553 A  
HETATM   17  C   UNL     1     -11.081   9.214  71.282  1.00  0.00    -0.405 A  
HETATM   18  C   UNL     1     -13.651   9.230  72.353  1.00  0.00    -0.527 A  
ENDBRANCH  11  13
ENDBRANCH   5   9
BRANCH   7  19
HETATM   19  C   UNL     1     -12.041  14.857  70.297  1.00  0.00    -0.379 A  
HETATM   20  C   UNL     1     -11.461  15.307  71.500  1.00  0.00    -0.457 A  
HETATM   21  C   UNL     1     -14.223  15.217  71.341  1.00  0.00    -0.597 A  
HETATM   22  C   UNL     1     -13.625  15.701  72.502  1.00  0.00    -0.642 A  
HETATM   23  C   UNL     1     -13.442  14.825  70.241  1.00  0.00     0.316 A  
HETATM   24  C   UNL     1     -12.240  15.756  72.576  1.00  0.00    -0.570 A  
ENDBRANCH   7  19
BRANCH   8  25
HETATM   25  C   UNL     1     -10.437  16.842  68.361  1.00  0.00    -0.339 A  
HETATM   26  C   UNL     1      -9.925  17.586  69.437  1.00  0.00     0.002 A  
HETATM   27  C   UNL     1     -10.907  18.987  67.277  1.00  0.00    -0.494 A  
HETATM   28  C   UNL     1     -10.941  17.581  67.278  1.00  0.00    -0.016 A  
HETATM   29  F   UNL     1     -10.219  21.006  68.295  1.00  0.00    -0.253 F  
HETATM   30  C   UNL     1      -9.797  18.978  69.402  1.00  0.00    -0.090 A  
HETATM   31  C   UNL     1     -10.302  19.671  68.322  1.00  0.00    -0.420 A  
ENDBRANCH   8  25
BRANCH   6  32
HETATM   32  C   UNL     1      -8.846  15.090  66.403  1.00  0.00    -0.203 C  
BRANCH  32  33
HETATM   33  C   UNL     1      -7.462  15.613  66.831  1.00  0.00    -0.169 C  
BRANCH  33  34
HETATM   34  C   UNL     1      -7.137  17.030  66.314  1.00  0.00    -0.201 C  
HETATM   35  O   UNL     1      -8.236  17.623  65.623  1.00  0.00    -0.501 OA 
HETATM   36  H   UNL     1      -8.036  18.496  65.305  1.00  0.00     0.000 HD 
BRANCH  34  37
HETATM   37  C   UNL     1      -6.795  17.961  67.491  1.00  0.00    -0.192 C  
BRANCH  37  38
HETATM   38  C   UNL     1      -6.263  19.336  67.050  1.00  0.00    -0.181 C  
HETATM   39  H   UNL     1      -6.975  21.175  66.806  1.00  0.00     0.000 HD 
HETATM   40  O   UNL     1      -7.303  20.327  67.078  1.00  0.00    -0.256 OA 
BRANCH  38  41
HETATM   41  C   UNL     1      -5.161  19.813  67.994  1.00  0.00    -0.177 C  
HETATM   42  C   UNL     1      -5.690  20.379  69.290  1.00  0.00    -0.325 C  
HETATM   43  O   UNL     1      -6.737  19.704  69.812  1.00  0.00    -0.324 OA 
HETATM   44  O   UNL     1      -5.172  21.326  69.864  1.00  0.00    -0.483 OA 
ENDBRANCH  38  41
ENDBRANCH  37  38
ENDBRANCH  34  37
ENDBRANCH  33  34
ENDBRANCH  32  33
ENDBRANCH   6  32
TORSDOF 10
ENDMDL
MODEL        6
REMARK 921   NORMALIZED FREE ENERGY PREDICTED BY IDOCK:   -7.61 KCAL/MOL
REMARK 922        TOTAL FREE ENERGY PREDICTED BY IDOCK:  -14.81 KCAL/MOL
REMARK 923 INTER-LIGAND FREE ENERGY PREDICTED BY IDOCK:  -12.45 KCAL/MOL
REMARK 924 INTRA-LIGAND FREE ENERGY PREDICTED BY IDOCK:   -2.36 KCAL/MOL
REMARK 927      BINDING AFFINITY PREDICTED BY RF-SCORE:    0.00 PKD
ROOT
HETATM    1  C   UNL     1     -12.264  14.314  65.214  1.00  0.00    -0.414 C  
HETATM    2  C   UNL     1     -11.510  13.133  65.829  1.00  0.00    -0.355 C  
HETATM    3  C   UNL     1     -11.471  13.093  67.362  1.00  0.00    -0.332 A  
HETATM    4  C   UNL     1     -10.151  12.958  65.146  1.00  0.00    -0.241 C  
HETATM    5  C   UNL     1     -11.526  14.101  68.345  1.00  0.00    -0.334 A  
HETATM    6  N   UNL     1     -11.506  11.865  68.037  1.00  0.00    -0.299 NA 
HETATM    7  C   UNL     1     -11.829  13.433  69.617  1.00  0.00    -0.394 A  
HETATM    8  C   UNL     1     -11.731  12.044  69.413  1.00  0.00    -0.340 A  
ENDROOT
BRANCH   5   9
HETATM    9  C   UNL     1     -11.436  15.579  68.133  1.00  0.00    -0.326 C  
HETATM   10  O   UNL     1     -12.375  16.310  68.448  1.00  0.00     0.428 OA 
HETATM   11  N   UNL     1     -10.245  16.034  67.580  1.00  0.00    -0.268 N  
HETATM   12  H   UNL     1      -9.562  15.327  67.308  1.00  0.00     0.000 HD 
BRANCH  11  13
HETATM   13  C   UNL     1      -9.892  17.391  67.357  1.00  0.00    -0.281 A  
HETATM   14  C   UNL     1      -8.659  19.423  67.895  1.00  0.00    -0.351 A  
HETATM   15  C   UNL     1      -9.255  20.092  66.829  1.00  0.00    -0.494 A  
HETATM   16  C   UNL     1     -10.456  18.064  66.265  1.00  0.00    -0.340 A  
HETATM   17  C   UNL     1      -8.983  18.084  68.162  1.00  0.00    -0.287 A  
HETATM   18  C   UNL     1     -10.162  19.414  66.019  1.00  0.00    -0.540 A  
ENDBRANCH  11  13
ENDBRANCH   5   9
BRANCH   7  19
HETATM   19  C   UNL     1     -12.188  14.041  70.929  1.00  0.00    -0.436 A  
HETATM   20  C   UNL     1     -13.455  13.821  71.505  1.00  0.00    -0.356 A  
HETATM   21  C   UNL     1     -11.665  15.432  72.871  1.00  0.00    -0.508 A  
HETATM   22  C   UNL     1     -12.907  15.160  73.441  1.00  0.00    -0.661 A  
HETATM   23  C   UNL     1     -11.298  14.857  71.643  1.00  0.00    -0.205 A  
HETATM   24  C   UNL     1     -13.799  14.345  72.760  1.00  0.00    -0.368 A  
ENDBRANCH   7  19
BRANCH   8  25
HETATM   25  C   UNL     1     -11.792  10.906  70.401  1.00  0.00    -0.449 A  
HETATM   26  C   UNL     1     -12.962  10.604  71.118  1.00  0.00    -0.483 A  
HETATM   27  C   UNL     1     -10.753   9.019  71.567  1.00  0.00    -0.421 A  
HETATM   28  C   UNL     1     -10.678  10.089  70.658  1.00  0.00    -0.325 A  
HETATM   29  F   UNL     1     -12.046   7.652  72.997  1.00  0.00    -0.187 F  
HETATM   30  C   UNL     1     -13.073   9.484  71.947  1.00  0.00    -0.517 A  
HETATM   31  C   UNL     1     -11.960   8.704  72.175  1.00  0.00    -0.379 A  
ENDBRANCH   8  25
BRANCH   6  32
HETATM   32  C   UNL     1     -11.228  10.568  67.401  1.00  0.00    -0.173 C  
BRANCH  32  33
HETATM   33  C   UNL     1      -9.742  10.178  67.299  1.00  0.00    -0.203 C  
BRANCH  33  34
HETATM   34  C   UNL     1      -9.481   8.904  66.469  1.00  0.00    -0.211 C  
HETATM   35  O   UNL     1     -10.535   7.949  66.590  1.00  0.00    -0.439 OA 
HETATM   36  H   UNL     1     -10.374   7.165  66.078  1.00  0.00     0.000 HD 
BRANCH  34  37
HETATM   37  C   UNL     1      -9.367   9.255  64.975  1.00  0.00    -0.196 C  
BRANCH  37  38
HETATM   38  C   UNL     1      -8.006   8.884  64.361  1.00  0.00    -0.137 C  
HETATM   39  H   UNL     1      -7.329   8.042  62.693  1.00  0.00     0.000 HD 
HETATM   40  O   UNL     1      -8.169   8.272  63.072  1.00  0.00    -0.167 OA 
BRANCH  38  41
HETATM   41  C   UNL     1      -7.149  10.133  64.160  1.00  0.00    -0.100 C  
HETATM   42  C   UNL     1      -5.879  10.121  64.979  1.00  0.00    -0.120 C  
HETATM   43  O   UNL     1      -5.263   8.921  65.043  1.00  0.00    -0.037 OA 
HETATM   44  O   UNL     1      -5.403  11.129  65.483  1.00  0.00    -0.207 OA 
ENDBRANCH  38  41
ENDBRANCH  37  38
ENDBRANCH  34  37
ENDBRANCH  33  34
ENDBRANCH  32  33
ENDBRANCH   6  32
TORSDOF 10
ENDMDL
MODEL        7
REMARK 921   NORMALIZED FREE ENERGY PREDICTED BY IDOCK:   -7.45 KCAL/MOL
REMARK 922        TOTAL FREE ENERGY PREDICTED BY IDOCK:  -14.56 KCAL/MOL
REMARK 923 INTER-LIGAND FREE ENERGY PREDICTED BY IDOCK:  -12.45 KCAL/MOL
REMARK 924 INTRA-LIGAND FREE ENERGY PREDICTED BY IDOCK:   -2.12 KCAL/MOL
REMARK 927      BINDING AFFINITY PREDICTED BY RF-SCORE:    0.00 PKD
ROOT
HETATM    1  C   UNL     1      -7.292   9.971  65.935  1.00  0.00    -0.115 C  
HETATM    2  C   UNL     1      -8.630  10.702  66.063  1.00  0.00    -0.177 C  
HETATM    3  C   UNL     1      -9.492  10.307  67.269  1.00  0.00    -0.150 A  
HETATM    4  C   UNL     1      -9.365  10.700  64.720  1.00  0.00    -0.276 C  
HETATM    5  C   UNL     1      -9.601   9.118  68.017  1.00  0.00    -0.165 A  
HETATM    6  N   UNL     1     -10.280  11.268  67.918  1.00  0.00    -0.177 NA 
HETATM    7  C   UNL     1     -10.295   9.465  69.263  1.00  0.00    -0.217 A  
HETATM    8  C   UNL     1     -10.775  10.782  69.140  1.00  0.00    -0.227 A  
ENDROOT
BRANCH   5   9
HETATM    9  C   UNL     1      -9.009   7.783  67.688  1.00  0.00    -0.127 C  
HETATM   10  O   UNL     1      -8.132   7.300  68.404  1.00  0.00    -0.121 OA 
HETATM   11  N   UNL     1      -9.521   7.163  66.555  1.00  0.00    -0.232 N  
HETATM   12  H   UNL     1     -10.206   7.688  66.010  1.00  0.00     0.000 HD 
BRANCH  11  13
HETATM   13  C   UNL     1      -9.179   5.868  66.085  1.00  0.00    -0.150 A  
HETATM   14  C   UNL     1      -9.251   3.435  66.201  1.00  0.00    -0.169 A  
HETATM   15  C   UNL     1      -8.446   3.336  65.070  1.00  0.00    -0.099 A  
HETATM   16  C   UNL     1      -8.400   5.755  64.926  1.00  0.00    -0.127 A  
HETATM   17  C   UNL     1      -9.608   4.693  66.710  1.00  0.00    -0.195 A  
HETATM   18  C   UNL     1      -8.012   4.498  64.437  1.00  0.00    -0.095 A  
ENDBRANCH  11  13
ENDBRANCH   5   9
BRANCH   7  19
HETATM   19  C   UNL     1     -10.496   8.635  70.483  1.00  0.00    -0.237 A  
HETATM   20  C   UNL     1     -11.384   7.541  70.476  1.00  0.00    -0.279 A  
HETATM   21  C   UNL     1     -10.042   8.111  72.829  1.00  0.00    -0.367 A  
HETATM   22  C   UNL     1     -10.890   7.008  72.781  1.00  0.00    -0.321 A  
HETATM   23  C   UNL     1      -9.825   8.900  71.686  1.00  0.00    -0.387 A  
HETATM   24  C   UNL     1     -11.555   6.717  71.598  1.00  0.00    -0.350 A  
ENDBRANCH   7  19
BRANCH   8  25
HETATM   25  C   UNL     1     -11.677  11.581  70.049  1.00  0.00    -0.414 A  
HETATM   26  C   UNL     1     -12.543  10.965  70.967  1.00  0.00    -0.517 A  
HETATM   27  C   UNL     1     -12.528  13.719  70.887  1.00  0.00    -0.451 A  
HETATM   28  C   UNL     1     -11.698  12.985  70.021  1.00  0.00    -0.285 A  
HETATM   29  F   UNL     1     -14.040  13.763  72.702  1.00  0.00    -0.571 F  
HETATM   30  C   UNL     1     -13.297  11.686  71.897  1.00  0.00    -0.403 A  
HETATM   31  C   UNL     1     -13.292  13.064  71.842  1.00  0.00    -0.446 A  
ENDBRANCH   8  25
BRANCH   6  32
HETATM   32  C   UNL     1     -10.632  12.572  67.337  1.00  0.00    -0.223 C  
BRANCH  32  33
HETATM   33  C   UNL     1     -11.840  12.574  66.382  1.00  0.00    -0.445 C  
BRANCH  33  34
HETATM   34  C   UNL     1     -12.046  13.905  65.629  1.00  0.00    -0.421 C  
HETATM   35  O   UNL     1     -13.426  14.243  65.489  1.00  0.00    -0.683 OA 
HETATM   36  H   UNL     1     -13.553  15.063  65.026  1.00  0.00     0.000 HD 
BRANCH  34  37
HETATM   37  C   UNL     1     -11.379  15.060  66.396  1.00  0.00    -0.275 C  
BRANCH  37  38
HETATM   38  C   UNL     1     -10.614  16.038  65.487  1.00  0.00    -0.398 C  
HETATM   39  H   UNL     1     -10.899  16.954  63.747  1.00  0.00     0.000 HD 
HETATM   40  O   UNL     1     -11.372  16.351  64.308  1.00  0.00    -0.892 OA 
BRANCH  38  41
HETATM   41  C   UNL     1     -10.350  17.354  66.216  1.00  0.00    -0.330 C  
HETATM   42  C   UNL     1      -8.924  17.496  66.692  1.00  0.00    -0.263 C  
HETATM   43  O   UNL     1      -7.994  17.044  65.823  1.00  0.00    -0.428 OA 
HETATM   44  O   UNL     1      -8.624  18.042  67.744  1.00  0.00    -0.238 OA 
ENDBRANCH  38  41
ENDBRANCH  37  38
ENDBRANCH  34  37
ENDBRANCH  33  34
ENDBRANCH  32  33
ENDBRANCH   6  32
TORSDOF 10
ENDMDL
MODEL        8
REMARK 921   NORMALIZED FREE ENERGY PREDICTED BY IDOCK:   -7.28 KCAL/MOL
REMARK 922        TOTAL FREE ENERGY PREDICTED BY IDOCK:  -14.28 KCAL/MOL
REMARK 923 INTER-LIGAND FREE ENERGY PREDICTED BY IDOCK:  -12.33 KCAL/MOL
REMARK 924 INTRA-LIGAND FREE ENERGY PREDICTED BY IDOCK:   -1.95 KCAL/MOL
REMARK 927      BINDING AFFINITY PREDICTED BY RF-SCORE:    0.00 PKD
ROOT
HETATM    1  C   UNL     1      -7.620   9.517  65.828  1.00  0.00    -0.100 C  
HETATM    2  C   UNL     1      -8.960  10.239  65.983  1.00  0.00    -0.173 C  
HETATM    3  C   UNL     1      -9.742   9.923  67.265  1.00  0.00    -0.171 A  
HETATM    4  C   UNL     1      -9.772  10.132  64.690  1.00  0.00    -0.377 C  
HETATM    5  C   UNL     1      -9.788   8.790  68.100  1.00  0.00    -0.194 A  
HETATM    6  N   UNL     1     -10.505  10.920  67.889  1.00  0.00    -0.184 NA 
HETATM    7  C   UNL     1     -10.413   9.219  69.359  1.00  0.00    -0.229 A  
HETATM    8  C   UNL     1     -10.920  10.518  69.170  1.00  0.00    -0.240 A  
ENDROOT
BRANCH   5   9
HETATM    9  C   UNL     1      -9.196   7.442  67.833  1.00  0.00    -0.131 C  
HETATM   10  O   UNL     1      -8.048   7.186  68.195  1.00  0.00    -0.120 OA 
HETATM   11  N   UNL     1     -10.026   6.543  67.175  1.00  0.00    -0.145 N  
HETATM   12  H   UNL     1     -10.938   6.889  66.876  1.00  0.00     0.000 HD 
BRANCH  11  13
HETATM   13  C   UNL     1      -9.723   5.187  66.881  1.00  0.00    -0.161 A  
HETATM   14  C   UNL     1      -9.238   3.364  65.339  1.00  0.00    -0.152 A  
HETATM   15  C   UNL     1      -9.121   2.470  66.400  1.00  0.00    -0.110 A  
HETATM   16  C   UNL     1      -9.565   4.286  67.942  1.00  0.00    -0.207 A  
HETATM   17  C   UNL     1      -9.546   4.711  65.578  1.00  0.00    -0.187 A  
HETATM   18  C   UNL     1      -9.294   2.930  67.703  1.00  0.00    -0.234 A  
ENDBRANCH  11  13
ENDBRANCH   5   9
BRANCH   7  19
HETATM   19  C   UNL     1     -10.528   8.477  70.645  1.00  0.00    -0.234 A  
HETATM   20  C   UNL     1     -11.520   7.493  70.826  1.00  0.00    -0.305 A  
HETATM   21  C   UNL     1      -9.808   8.019  72.937  1.00  0.00    -0.357 A  
HETATM   22  C   UNL     1     -10.768   7.019  73.073  1.00  0.00    -0.337 A  
HETATM   23  C   UNL     1      -9.670   8.722  71.728  1.00  0.00    -0.380 A  
HETATM   24  C   UNL     1     -11.619   6.749  72.011  1.00  0.00    -0.327 A  
ENDBRANCH   7  19
BRANCH   8  25
HETATM   25  C   UNL     1     -11.778  11.371  70.072  1.00  0.00    -0.416 A  
HETATM   26  C   UNL     1     -12.667  10.809  71.004  1.00  0.00    -0.513 A  
HETATM   27  C   UNL     1     -12.525  13.558  70.884  1.00  0.00    -0.448 A  
HETATM   28  C   UNL     1     -11.735  12.774  70.024  1.00  0.00    -0.282 A  
HETATM   29  F   UNL     1     -14.023  13.697  72.706  1.00  0.00    -0.576 F  
HETATM   30  C   UNL     1     -13.381  11.577  71.927  1.00  0.00    -0.408 A  
HETATM   31  C   UNL     1     -13.313  12.952  71.852  1.00  0.00    -0.435 A  
ENDBRANCH   8  25
BRANCH   6  32
HETATM   32  C   UNL     1     -10.911  12.175  67.238  1.00  0.00    -0.260 C  
BRANCH  32  33
HETATM   33  C   UNL     1      -9.789  13.204  67.012  1.00  0.00    -0.244 C  
BRANCH  33  34
HETATM   34  C   UNL     1     -10.285  14.661  66.893  1.00  0.00    -0.262 C  
HETATM   35  O   UNL     1      -9.541  15.558  67.717  1.00  0.00    -0.208 OA 
HETATM   36  H   UNL     1      -9.846  16.455  67.644  1.00  0.00     0.000 HD 
BRANCH  34  37
HETATM   37  C   UNL     1     -10.135  15.158  65.444  1.00  0.00    -0.384 C  
BRANCH  37  38
HETATM   38  C   UNL     1     -11.463  15.608  64.810  1.00  0.00    -0.283 C  
HETATM   39  H   UNL     1     -12.113  17.097  63.667  1.00  0.00     0.000 HD 
HETATM   40  O   UNL     1     -11.294  16.820  64.058  1.00  0.00    -1.153 OA 
BRANCH  38  41
HETATM   41  C   UNL     1     -11.982  14.546  63.842  1.00  0.00    -0.092 C  
HETATM   42  C   UNL     1     -12.762  13.448  64.527  1.00  0.00    -0.127 C  
HETATM   43  O   UNL     1     -13.578  13.870  65.516  1.00  0.00    -0.579 OA 
HETATM   44  O   UNL     1     -12.720  12.279  64.169  1.00  0.00    -0.607 OA 
ENDBRANCH  38  41
ENDBRANCH  37  38
ENDBRANCH  34  37
ENDBRANCH  33  34
ENDBRANCH  32  33
ENDBRANCH   6  32
TORSDOF 10
ENDMDL
MODEL        9
REMARK 921   NORMALIZED FREE ENERGY PREDICTED BY IDOCK:   -7.25 KCAL/MOL
REMARK 922        TOTAL FREE ENERGY PREDICTED BY IDOCK:  -14.23 KCAL/MOL
REMARK 923 INTER-LIGAND FREE ENERGY PREDICTED BY IDOCK:  -12.49 KCAL/MOL
REMARK 924 INTRA-LIGAND FREE ENERGY PREDICTED BY IDOCK:   -1.74 KCAL/MOL
REMARK 927      BINDING AFFINITY PREDICTED BY RF-SCORE:    0.00 PKD
ROOT
HETATM    1  C   UNL     1     -11.250  12.098  64.795  1.00  0.00    -0.373 C  
HETATM    2  C   UNL     1     -10.383  11.234  65.714  1.00  0.00    -0.310 C  
HETATM    3  C   UNL     1     -10.612  11.426  67.219  1.00  0.00    -0.227 A  
HETATM    4  C   UNL     1      -8.918  11.297  65.273  1.00  0.00    -0.079 C  
HETATM    5  C   UNL     1     -11.057  12.521  67.985  1.00  0.00    -0.285 A  
HETATM    6  N   UNL     1     -10.503  10.335  68.093  1.00  0.00    -0.177 NA 
HETATM    7  C   UNL     1     -11.433  11.989  69.302  1.00  0.00    -0.361 A  
HETATM    8  C   UNL     1     -11.004  10.650  69.368  1.00  0.00    -0.255 A  
ENDROOT
BRANCH   5   9
HETATM    9  C   UNL     1     -11.249  13.931  67.524  1.00  0.00    -0.303 C  
HETATM   10  O   UNL     1     -12.246  14.240  66.872  1.00  0.00    -0.438 OA 
HETATM   11  N   UNL     1     -10.249  14.823  67.889  1.00  0.00    -0.228 N  
HETATM   12  H   UNL     1      -9.443  14.437  68.382  1.00  0.00     0.000 HD 
BRANCH  11  13
HETATM   13  C   UNL     1     -10.243  16.221  67.639  1.00  0.00    -0.272 A  
HETATM   14  C   UNL     1     -10.200  18.155  66.158  1.00  0.00    -0.372 A  
HETATM   15  C   UNL     1     -10.236  19.018  67.249  1.00  0.00    -0.476 A  
HETATM   16  C   UNL     1     -10.317  17.100  68.728  1.00  0.00    -0.353 A  
HETATM   17  C   UNL     1     -10.194  16.765  66.353  1.00  0.00    -0.329 A  
HETATM   18  C   UNL     1     -10.285  18.490  68.536  1.00  0.00    -0.389 A  
ENDBRANCH  11  13
ENDBRANCH   5   9
BRANCH   7  19
HETATM   19  C   UNL     1     -12.143  12.674  70.418  1.00  0.00    -0.381 A  
HETATM   20  C   UNL     1     -11.939  14.044  70.672  1.00  0.00    -0.376 A  
HETATM   21  C   UNL     1     -13.681  12.661  72.320  1.00  0.00    -0.429 A  
HETATM   22  C   UNL     1     -13.497  14.026  72.520  1.00  0.00    -0.661 A  
HETATM   23  C   UNL     1     -13.034  11.996  71.263  1.00  0.00    -0.315 A  
HETATM   24  C   UNL     1     -12.631  14.721  71.687  1.00  0.00    -0.394 A  
ENDBRANCH   7  19
BRANCH   8  25
HETATM   25  C   UNL     1     -10.996   9.684  70.527  1.00  0.00    -0.374 A  
HETATM   26  C   UNL     1      -9.813   9.337  71.199  1.00  0.00    -0.342 A  
HETATM   27  C   UNL     1     -12.158   8.195  72.086  1.00  0.00    -0.408 A  
HETATM   28  C   UNL     1     -12.175   9.079  70.992  1.00  0.00    -0.275 A  
HETATM   29  F   UNL     1     -10.970   7.166  73.850  1.00  0.00    -0.358 F  
HETATM   30  C   UNL     1      -9.800   8.539  72.347  1.00  0.00    -0.358 A  
HETATM   31  C   UNL     1     -10.977   7.963  72.776  1.00  0.00    -0.393 A  
ENDBRANCH   8  25
BRANCH   6  32
HETATM   32  C   UNL     1      -9.845   9.066  67.748  1.00  0.00    -0.168 C  
BRANCH  32  33
HETATM   33  C   UNL     1     -10.781   7.924  67.313  1.00  0.00    -0.299 C  
BRANCH  33  34
HETATM   34  C   UNL     1     -10.627   6.632  68.141  1.00  0.00    -0.241 C  
HETATM   35  O   UNL     1     -11.748   6.395  68.994  1.00  0.00    -0.552 OA 
HETATM   36  H   UNL     1     -11.653   5.599  69.504  1.00  0.00     0.000 HD 
BRANCH  34  37
HETATM   37  C   UNL     1     -10.510   5.412  67.211  1.00  0.00    -0.274 C  
BRANCH  37  38
HETATM   38  C   UNL     1      -9.290   4.524  67.514  1.00  0.00    -0.147 C  
HETATM   39  H   UNL     1      -7.424   4.322  66.863  1.00  0.00     0.000 HD 
HETATM   40  O   UNL     1      -8.176   4.870  66.676  1.00  0.00    -0.107 OA 
BRANCH  38  41
HETATM   41  C   UNL     1      -8.838   4.710  68.962  1.00  0.00    -0.122 C  
HETATM   42  C   UNL     1      -9.033   3.474  69.809  1.00  0.00    -0.109 C  
HETATM   43  O   UNL     1      -8.737   2.313  69.187  1.00  0.00    -0.067 OA 
HETATM   44  O   UNL     1      -9.360   3.520  70.987  1.00  0.00    -0.117 OA 
ENDBRANCH  38  41
ENDBRANCH  37  38
ENDBRANCH  34  37
ENDBRANCH  33  34
ENDBRANCH  32  33
ENDBRANCH   6  32
TORSDOF 10
ENDMDL
MODEL       10
REMARK 921   NORMALIZED FREE ENERGY PREDICTED BY IDOCK:   -7.19 KCAL/MOL
REMARK 922        TOTAL FREE ENERGY PREDICTED BY IDOCK:  -14.14 KCAL/MOL
REMARK 923 INTER-LIGAND FREE ENERGY PREDICTED BY IDOCK:  -11.82 KCAL/MOL
REMARK 924 INTRA-LIGAND FREE ENERGY PREDICTED BY IDOCK:   -2.32 KCAL/MOL
REMARK 927      BINDING AFFINITY PREDICTED BY RF-SCORE:    0.00 PKD
ROOT
HETATM    1  C   UNL     1     -12.480  14.347  65.195  1.00  0.00    -0.360 C  
HETATM    2  C   UNL     1     -11.727  13.141  65.760  1.00  0.00    -0.415 C  
HETATM    3  C   UNL     1     -11.654  13.058  67.290  1.00  0.00    -0.356 A  
HETATM    4  C   UNL     1     -10.386  12.971  65.041  1.00  0.00    -0.336 C  
HETATM    5  C   UNL     1     -11.675  14.038  68.301  1.00  0.00    -0.392 A  
HETATM    6  N   UNL     1     -11.689  11.811  67.931  1.00  0.00    -0.509 NA 
HETATM    7  C   UNL     1     -11.958  13.337  69.561  1.00  0.00    -0.366 A  
HETATM    8  C   UNL     1     -11.881  11.954  69.316  1.00  0.00    -0.318 A  
ENDROOT
BRANCH   5   9
HETATM    9  C   UNL     1     -11.572  15.520  68.129  1.00  0.00    -0.304 C  
HETATM   10  O   UNL     1     -12.521  16.247  68.424  1.00  0.00     0.661 OA 
HETATM   11  N   UNL     1     -10.360  15.984  67.634  1.00  0.00    -0.277 N  
HETATM   12  H   UNL     1      -9.668  15.280  67.373  1.00  0.00     0.000 HD 
BRANCH  11  13
HETATM   13  C   UNL     1      -9.993  17.344  67.458  1.00  0.00    -0.298 A  
HETATM   14  C   UNL     1      -9.875  19.403  66.162  1.00  0.00    -0.461 A  
HETATM   15  C   UNL     1      -9.224  20.050  67.208  1.00  0.00    -0.481 A  
HETATM   16  C   UNL     1      -9.371  18.017  68.518  1.00  0.00    -0.312 A  
HETATM   17  C   UNL     1     -10.249  18.057  66.283  1.00  0.00    -0.381 A  
HETATM   18  C   UNL     1      -8.963  19.353  68.385  1.00  0.00    -0.403 A  
ENDBRANCH  11  13
ENDBRANCH   5   9
BRANCH   7  19
HETATM   19  C   UNL     1     -12.281  13.912  70.897  1.00  0.00    -0.436 A  
HETATM   20  C   UNL     1     -11.475  14.919  71.465  1.00  0.00    -0.307 A  
HETATM   21  C   UNL     1     -13.659  14.027  72.914  1.00  0.00    -0.332 A  
HETATM   22  C   UNL     1     -12.874  15.054  73.432  1.00  0.00    -0.652 A  
HETATM   23  C   UNL     1     -13.384  13.481  71.649  1.00  0.00    -0.420 A  
HETATM   24  C   UNL     1     -11.785  15.507  72.700  1.00  0.00    -0.564 A  
ENDBRANCH   7  19
BRANCH   8  25
HETATM   25  C   UNL     1     -11.934  10.789  70.273  1.00  0.00    -0.438 A  
HETATM   26  C   UNL     1     -10.780  10.083  70.652  1.00  0.00    -0.325 A  
HETATM   27  C   UNL     1     -13.178   9.272  71.739  1.00  0.00    -0.472 A  
HETATM   28  C   UNL     1     -13.144  10.347  70.833  1.00  0.00    -0.412 A  
HETATM   29  F   UNL     1     -12.025   7.688  73.059  1.00  0.00    -0.247 F  
HETATM   30  C   UNL     1     -10.792   9.081  71.626  1.00  0.00    -0.437 A  
HETATM   31  C   UNL     1     -11.998   8.673  72.156  1.00  0.00    -0.379 A  
ENDBRANCH   8  25
BRANCH   6  32
HETATM   32  C   UNL     1     -11.441  10.530  67.253  1.00  0.00     0.247 C  
BRANCH  32  33
HETATM   33  C   UNL     1     -10.074  10.395  66.557  1.00  0.00    -0.285 C  
BRANCH  33  34
HETATM   34  C   UNL     1      -8.989   9.725  67.424  1.00  0.00    -0.135 C  
HETATM   35  O   UNL     1      -7.911   9.207  66.644  1.00  0.00    -0.099 OA 
HETATM   36  H   UNL     1      -7.242   8.794  67.178  1.00  0.00     0.000 HD 
BRANCH  34  37
HETATM   37  C   UNL     1      -8.380  10.746  68.401  1.00  0.00    -0.132 C  
BRANCH  37  38
HETATM   38  C   UNL     1      -6.920  10.441  68.777  1.00  0.00    -0.068 C  
HETATM   39  H   UNL     1      -5.118  11.185  68.388  1.00  0.00     0.000 HD 
HETATM   40  O   UNL     1      -6.019  11.373  68.157  1.00  0.00    -0.046 OA 
BRANCH  38  41
HETATM   41  C   UNL     1      -6.718  10.556  70.286  1.00  0.00    -0.127 C  
HETATM   42  C   UNL     1      -6.822   9.231  71.004  1.00  0.00    -0.089 C  
HETATM   43  O   UNL     1      -6.249   8.194  70.355  1.00  0.00    -0.035 OA 
HETATM   44  O   UNL     1      -7.317   9.113  72.115  1.00  0.00    -0.328 OA 
ENDBRANCH  38  41
ENDBRANCH  37  38
ENDBRANCH  34  37
ENDBRANCH  33  34
ENDBRANCH  32  33
ENDBRANCH   6  32
TORSDOF 10
ENDMDL
MODEL       11
REMARK 921   NORMALIZED FREE ENERGY PREDICTED BY IDOCK:   -7.18 KCAL/MOL
REMARK 922        TOTAL FREE ENERGY PREDICTED BY IDOCK:  -14.13 KCAL/MOL
REMARK 923 INTER-LIGAND FREE ENERGY PREDICTED BY IDOCK:  -12.05 KCAL/MOL
REMARK 924 INTRA-LIGAND FREE ENERGY PREDICTED BY IDOCK:   -2.08 KCAL/MOL
REMARK 927      BINDING AFFINITY PREDICTED BY RF-SCORE:    0.00 PKD
ROOT
HETATM    1  C   UNL     1      -8.806  10.639  65.248  1.00  0.00    -0.204 C  
HETATM    2  C   UNL     1     -10.030  11.443  65.690  1.00  0.00    -0.282 C  
HETATM    3  C   UNL     1     -10.574  11.115  67.086  1.00  0.00    -0.244 A  
HETATM    4  C   UNL     1     -11.082  11.460  64.577  1.00  0.00    -0.302 C  
HETATM    5  C   UNL     1     -10.547   9.946  67.871  1.00  0.00    -0.303 A  
HETATM    6  N   UNL     1     -11.123  12.128  67.885  1.00  0.00    -0.229 NA 
HETATM    7  C   UNL     1     -10.883  10.351  69.243  1.00  0.00    -0.280 A  
HETATM    8  C   UNL     1     -11.314  11.690  69.207  1.00  0.00    -0.290 A  
ENDROOT
BRANCH   5   9
HETATM    9  C   UNL     1     -10.124   8.576  67.442  1.00  0.00    -0.234 C  
HETATM   10  O   UNL     1     -10.924   7.828  66.881  1.00  0.00    -0.217 OA 
HETATM   11  N   UNL     1      -8.804   8.243  67.716  1.00  0.00    -0.137 N  
HETATM   12  H   UNL     1      -8.253   8.926  68.236  1.00  0.00     0.000 HD 
BRANCH  11  13
HETATM   13  C   UNL     1      -8.150   7.040  67.339  1.00  0.00    -0.116 A  
HETATM   14  C   UNL     1      -7.459   4.737  67.733  1.00  0.00    -0.078 A  
HETATM   15  C   UNL     1      -6.822   4.694  66.496  1.00  0.00    -0.058 A  
HETATM   16  C   UNL     1      -7.537   6.972  66.081  1.00  0.00    -0.095 A  
HETATM   17  C   UNL     1      -8.111   5.906  68.155  1.00  0.00    -0.109 A  
HETATM   18  C   UNL     1      -6.853   5.816  65.673  1.00  0.00    -0.056 A  
ENDBRANCH  11  13
ENDBRANCH   5   9
BRANCH   7  19
HETATM   19  C   UNL     1     -10.807   9.552  70.498  1.00  0.00    -0.352 A  
HETATM   20  C   UNL     1      -9.572   9.326  71.137  1.00  0.00    -0.305 A  
HETATM   21  C   UNL     1     -11.845   8.224  72.270  1.00  0.00    -0.451 A  
HETATM   22  C   UNL     1     -10.618   8.055  72.907  1.00  0.00    -0.399 A  
HETATM   23  C   UNL     1     -11.944   8.987  71.094  1.00  0.00    -0.356 A  
HETATM   24  C   UNL     1      -9.480   8.616  72.343  1.00  0.00    -0.295 A  
ENDBRANCH   7  19
BRANCH   8  25
HETATM   25  C   UNL     1     -11.914  12.551  70.291  1.00  0.00    -0.364 A  
HETATM   26  C   UNL     1     -11.455  13.853  70.547  1.00  0.00    -0.009 A  
HETATM   27  C   UNL     1     -13.529  12.910  72.097  1.00  0.00    -0.619 A  
HETATM   28  C   UNL     1     -12.964  12.091  71.103  1.00  0.00    -0.252 A  
HETATM   29  F   UNL     1     -13.678  15.020  73.151  1.00  0.00    -0.513 F  
HETATM   30  C   UNL     1     -12.074  14.707  71.464  1.00  0.00    -0.413 A  
HETATM   31  C   UNL     1     -13.104  14.223  72.243  1.00  0.00    -0.405 A  
ENDBRANCH   8  25
BRANCH   6  32
HETATM   32  C   UNL     1     -11.548  13.440  67.374  1.00  0.00    -0.354 C  
BRANCH  32  33
HETATM   33  C   UNL     1     -10.422  14.467  67.150  1.00  0.00    -0.263 C  
BRANCH  33  34
HETATM   34  C   UNL     1     -10.905  15.931  67.101  1.00  0.00    -0.267 C  
HETATM   35  O   UNL     1     -11.547  16.333  68.312  1.00  0.00    -0.301 OA 
HETATM   36  H   UNL     1     -11.844  17.235  68.282  1.00  0.00     0.000 HD 
BRANCH  34  37
HETATM   37  C   UNL     1      -9.712  16.880  66.894  1.00  0.00    -0.264 C  
BRANCH  37  38
HETATM   38  C   UNL     1     -10.026  18.066  65.965  1.00  0.00    -0.216 C  
HETATM   39  H   UNL     1     -11.092  18.401  64.322  1.00  0.00     0.000 HD 
HETATM   40  O   UNL     1     -10.899  17.669  64.895  1.00  0.00    -0.831 OA 
BRANCH  38  41
HETATM   41  C   UNL     1     -10.734  19.178  66.736  1.00  0.00    -0.488 C  
HETATM   42  C   UNL     1      -9.870  19.806  67.804  1.00  0.00    -0.398 C  
HETATM   43  O   UNL     1      -8.580  19.990  67.448  1.00  0.00    -0.319 OA 
HETATM   44  O   UNL     1     -10.312  20.186  68.879  1.00  0.00    -0.382 OA 
ENDBRANCH  38  41
ENDBRANCH  37  38
ENDBRANCH  34  37
ENDBRANCH  33  34
ENDBRANCH  32  33
ENDBRANCH   6  32
TORSDOF 10
ENDMDL
MODEL       12
REMARK 921   NORMALIZED FREE ENERGY PREDICTED BY IDOCK:   -7.17 KCAL/MOL
REMARK 922        TOTAL FREE ENERGY PREDICTED BY IDOCK:  -14.12 KCAL/MOL
REMARK 923 INTER-LIGAND FREE ENERGY PREDICTED BY IDOCK:  -11.58 KCAL/MOL
REMARK 924 INTRA-LIGAND FREE ENERGY PREDICTED BY IDOCK:   -2.54 KCAL/MOL
REMARK 927      BINDING AFFINITY PREDICTED BY RF-SCORE:    0.00 PKD
ROOT
HETATM    1  C   UNL     1      -7.996  10.316  64.965  1.00  0.00    -0.144 C  
HETATM    2  C   UNL     1      -9.397  10.811  65.328  1.00  0.00    -0.247 C  
HETATM    3  C   UNL     1      -9.948  10.323  66.674  1.00  0.00    -0.216 A  
HETATM    4  C   UNL     1     -10.347  10.630  64.141  1.00  0.00    -0.293 C  
HETATM    5  C   UNL     1      -9.713   9.164  67.439  1.00  0.00    -0.211 A  
HETATM    6  N   UNL     1     -10.764  11.161  67.447  1.00  0.00    -0.233 NA 
HETATM    7  C   UNL     1     -10.225   9.438  68.788  1.00  0.00    -0.221 A  
HETATM    8  C   UNL     1     -10.942  10.647  68.743  1.00  0.00    -0.246 A  
ENDROOT
BRANCH   5   9
HETATM    9  C   UNL     1      -8.964   7.939  67.019  1.00  0.00    -0.128 C  
HETATM   10  O   UNL     1      -7.794   7.776  67.367  1.00  0.00    -0.113 OA 
HETATM   11  N   UNL     1      -9.679   7.037  66.242  1.00  0.00    -0.404 N  
HETATM   12  H   UNL     1     -10.624   7.307  65.970  1.00  0.00     0.000 HD 
BRANCH  11  13
HETATM   13  C   UNL     1      -9.216   5.773  65.789  1.00  0.00    -0.070 A  
HETATM   14  C   UNL     1      -7.968   4.347  64.258  1.00  0.00    -0.091 A  
HETATM   15  C   UNL     1      -8.347   3.213  64.971  1.00  0.00    -0.095 A  
HETATM   16  C   UNL     1      -9.560   4.628  66.519  1.00  0.00    -0.190 A  
HETATM   17  C   UNL     1      -8.407   5.617  64.659  1.00  0.00    -0.119 A  
HETATM   18  C   UNL     1      -9.151   3.353  66.098  1.00  0.00    -0.155 A  
ENDBRANCH  11  13
ENDBRANCH   5   9
BRANCH   7  19
HETATM   19  C   UNL     1     -10.057   8.634  70.031  1.00  0.00    -0.195 A  
HETATM   20  C   UNL     1      -9.195   9.065  71.059  1.00  0.00    -0.331 A  
HETATM   21  C   UNL     1     -10.547   6.674  71.410  1.00  0.00    -0.255 A  
HETATM   22  C   UNL     1      -9.725   7.146  72.430  1.00  0.00    -0.173 A  
HETATM   23  C   UNL     1     -10.734   7.423  70.235  1.00  0.00    -0.250 A  
HETATM   24  C   UNL     1      -9.056   8.349  72.258  1.00  0.00    -0.313 A  
ENDBRANCH   7  19
BRANCH   8  25
HETATM   25  C   UNL     1     -11.794  11.316  69.794  1.00  0.00    -0.437 A  
HETATM   26  C   UNL     1     -12.610  10.581  70.670  1.00  0.00    -0.457 A  
HETATM   27  C   UNL     1     -12.600  13.322  70.944  1.00  0.00    -0.386 A  
HETATM   28  C   UNL     1     -11.817  12.712  69.948  1.00  0.00    -0.364 A  
HETATM   29  F   UNL     1     -14.012  13.122  72.828  1.00  0.00    -0.593 F  
HETATM   30  C   UNL     1     -13.313  11.171  71.724  1.00  0.00    -0.378 A  
HETATM   31  C   UNL     1     -13.311  12.544  71.846  1.00  0.00    -0.368 A  
ENDBRANCH   8  25
BRANCH   6  32
HETATM   32  C   UNL     1     -11.438  12.362  66.929  1.00  0.00    -0.360 C  
BRANCH  32  33
HETATM   33  C   UNL     1     -10.511  13.510  66.488  1.00  0.00    -0.284 C  
BRANCH  33  34
HETATM   34  C   UNL     1      -9.371  13.817  67.481  1.00  0.00    -0.222 C  
HETATM   35  O   UNL     1      -8.131  14.075  66.824  1.00  0.00    -0.386 OA 
HETATM   36  H   UNL     1      -7.429  14.264  67.435  1.00  0.00     0.000 HD 
BRANCH  34  37
HETATM   37  C   UNL     1      -9.707  15.071  68.308  1.00  0.00    -0.215 C  
BRANCH  37  38
HETATM   38  C   UNL     1     -10.907  15.863  67.759  1.00  0.00    -0.324 C  
HETATM   39  H   UNL     1     -12.727  16.377  68.367  1.00  0.00     0.000 HD 
HETATM   40  O   UNL     1     -11.987  15.889  68.706  1.00  0.00    -0.368 OA 
BRANCH  38  41
HETATM   41  C   UNL     1     -10.513  17.314  67.487  1.00  0.00    -0.356 C  
HETATM   42  C   UNL     1      -9.993  17.536  66.086  1.00  0.00    -0.270 C  
HETATM   43  O   UNL     1     -10.658  16.858  65.125  1.00  0.00    -0.679 OA 
HETATM   44  O   UNL     1      -9.093  18.321  65.827  1.00  0.00    -0.443 OA 
ENDBRANCH  38  41
ENDBRANCH  37  38
ENDBRANCH  34  37
ENDBRANCH  33  34
ENDBRANCH  32  33
ENDBRANCH   6  32
TORSDOF 10
ENDMDL
MODEL       13
REMARK 921   NORMALIZED FREE ENERGY PREDICTED BY IDOCK:   -7.14 KCAL/MOL
REMARK 922        TOTAL FREE ENERGY PREDICTED BY IDOCK:  -14.07 KCAL/MOL
REMARK 923 INTER-LIGAND FREE ENERGY PREDICTED BY IDOCK:  -10.92 KCAL/MOL
REMARK 924 INTRA-LIGAND FREE ENERGY PREDICTED BY IDOCK:   -3.15 KCAL/MOL
REMARK 927      BINDING AFFINITY PREDICTED BY RF-SCORE:    0.00 PKD
ROOT
HETATM    1  C   UNL     1     -11.131   6.136  69.378  1.00  0.00    -0.479 C  
HETATM    2  C   UNL     1     -10.781   7.517  69.935  1.00  0.00    -0.254 C  
HETATM    3  C   UNL     1     -10.292   8.546  68.906  1.00  0.00    -0.210 A  
HETATM    4  C   UNL     1      -9.896   7.378  71.176  1.00  0.00    -0.177 C  
HETATM    5  C   UNL     1      -9.623   8.419  67.673  1.00  0.00    -0.188 A  
HETATM    6  N   UNL     1     -10.619   9.901  69.055  1.00  0.00    -0.212 NA 
HETATM    7  C   UNL     1      -9.767   9.707  66.982  1.00  0.00    -0.232 A  
HETATM    8  C   UNL     1     -10.316  10.630  67.892  1.00  0.00    -0.199 A  
ENDROOT
BRANCH   5   9
HETATM    9  C   UNL     1      -9.004   7.184  67.101  1.00  0.00    -0.125 C  
HETATM   10  O   UNL     1      -8.060   6.640  67.675  1.00  0.00    -0.116 OA 
HETATM   11  N   UNL     1      -9.570   6.721  65.920  1.00  0.00    -0.384 N  
HETATM   12  H   UNL     1     -10.312   7.288  65.510  1.00  0.00     0.000 HD 
BRANCH  11  13
HETATM   13  C   UNL     1      -9.211   5.532  65.231  1.00  0.00     0.053 A  
HETATM   14  C   UNL     1      -7.797   4.252  63.715  1.00  0.00    -0.087 A  
HETATM   15  C   UNL     1      -8.581   3.118  63.907  1.00  0.00    -0.089 A  
HETATM   16  C   UNL     1      -9.970   4.374  65.444  1.00  0.00    -0.231 A  
HETATM   17  C   UNL     1      -8.116   5.453  64.366  1.00  0.00    -0.123 A  
HETATM   18  C   UNL     1      -9.675   3.182  64.766  1.00  0.00    -0.105 A  
ENDBRANCH  11  13
ENDBRANCH   5   9
BRANCH   7  19
HETATM   19  C   UNL     1      -9.423  10.055  65.575  1.00  0.00    -0.296 A  
HETATM   20  C   UNL     1      -8.102   9.929  65.101  1.00  0.00    -0.138 A  
HETATM   21  C   UNL     1     -10.030  10.864  63.348  1.00  0.00    -0.414 A  
HETATM   22  C   UNL     1      -8.726  10.685  62.892  1.00  0.00    -0.229 A  
HETATM   23  C   UNL     1     -10.382  10.527  64.666  1.00  0.00    -0.290 A  
HETATM   24  C   UNL     1      -7.763  10.207  63.769  1.00  0.00    -0.141 A  
ENDBRANCH   7  19
BRANCH   8  25
HETATM   25  C   UNL     1     -10.533  12.117  67.762  1.00  0.00    -0.222 A  
HETATM   26  C   UNL     1      -9.570  13.050  68.182  1.00  0.00    -0.227 A  
HETATM   27  C   UNL     1     -11.895  14.035  67.080  1.00  0.00    -0.444 A  
HETATM   28  C   UNL     1     -11.713  12.647  67.215  1.00  0.00    -0.435 A  
HETATM   29  F   UNL     1     -11.024  16.225  67.242  1.00  0.00    -0.319 F  
HETATM   30  C   UNL     1      -9.701  14.424  67.963  1.00  0.00    -0.221 A  
HETATM   31  C   UNL     1     -10.872  14.908  67.421  1.00  0.00    -0.304 A  
ENDBRANCH   8  25
BRANCH   6  32
HETATM   32  C   UNL     1     -11.109  10.498  70.306  1.00  0.00    -0.285 C  
BRANCH  32  33
HETATM   33  C   UNL     1     -12.640  10.593  70.447  1.00  0.00    -0.395 C  
BRANCH  33  34
HETATM   34  C   UNL     1     -13.142  11.957  70.964  1.00  0.00     0.057 C  
HETATM   35  O   UNL     1     -13.485  11.922  72.349  1.00  0.00    -0.611 OA 
HETATM   36  H   UNL     1     -13.794  12.763  72.667  1.00  0.00     0.000 HD 
BRANCH  34  37
HETATM   37  C   UNL     1     -12.044  13.024  70.804  1.00  0.00    -0.268 C  
BRANCH  37  38
HETATM   38  C   UNL     1     -12.592  14.460  70.724  1.00  0.00    -0.357 C  
HETATM   39  H   UNL     1     -14.309  15.397  71.073  1.00  0.00     0.000 HD 
HETATM   40  O   UNL     1     -13.971  14.511  71.123  1.00  0.00    -0.333 OA 
BRANCH  38  41
HETATM   41  C   UNL     1     -11.817  15.383  71.663  1.00  0.00    -0.468 C  
HETATM   42  C   UNL     1     -12.452  15.512  73.028  1.00  0.00    -0.442 C  
HETATM   43  O   UNL     1     -12.954  14.362  73.526  1.00  0.00    -0.514 OA 
HETATM   44  O   UNL     1     -12.449  16.555  73.667  1.00  0.00    -0.463 OA 
ENDBRANCH  38  41
ENDBRANCH  37  38
ENDBRANCH  34  37
ENDBRANCH  33  34
ENDBRANCH  32  33
ENDBRANCH   6  32
TORSDOF 10
ENDMDL
MODEL       14
REMARK 921   NORMALIZED FREE ENERGY PREDICTED BY IDOCK:   -7.13 KCAL/MOL
REMARK 922        TOTAL FREE ENERGY PREDICTED BY IDOCK:  -14.06 KCAL/MOL
REMARK 923 INTER-LIGAND FREE ENERGY PREDICTED BY IDOCK:  -11.86 KCAL/MOL
REMARK 924 INTRA-LIGAND FREE ENERGY PREDICTED BY IDOCK:   -2.20 KCAL/MOL
REMARK 927      BINDING AFFINITY PREDICTED BY RF-SCORE:    0.00 PKD
ROOT
HETATM    1  C   UNL     1      -8.903  10.657  65.063  1.00  0.00    -0.212 C  
HETATM    2  C   UNL     1     -10.173  11.391  65.498  1.00  0.00    -0.312 C  
HETATM    3  C   UNL     1     -10.704  11.034  66.892  1.00  0.00    -0.274 A  
HETATM    4  C   UNL     1     -11.219  11.347  64.380  1.00  0.00    -0.277 C  
HETATM    5  C   UNL     1     -10.614   9.870  67.679  1.00  0.00    -0.325 A  
HETATM    6  N   UNL     1     -11.313  12.015  67.687  1.00  0.00    -0.285 NA 
HETATM    7  C   UNL     1     -10.979  10.256  69.048  1.00  0.00    -0.274 A  
HETATM    8  C   UNL     1     -11.485  11.568  69.008  1.00  0.00    -0.291 A  
ENDROOT
BRANCH   5   9
HETATM    9  C   UNL     1     -10.112   8.525  67.254  1.00  0.00    -0.251 C  
HETATM   10  O   UNL     1     -10.854   7.748  66.654  1.00  0.00    -0.143 OA 
HETATM   11  N   UNL     1      -8.790   8.250  67.576  1.00  0.00    -0.135 N  
HETATM   12  H   UNL     1      -8.292   8.951  68.125  1.00  0.00     0.000 HD 
BRANCH  11  13
HETATM   13  C   UNL     1      -8.067   7.082  67.214  1.00  0.00    -0.115 A  
HETATM   14  C   UNL     1      -6.750   5.748  65.658  1.00  0.00    -0.048 A  
HETATM   15  C   UNL     1      -6.649   4.721  66.591  1.00  0.00    -0.050 A  
HETATM   16  C   UNL     1      -7.927   6.056  68.158  1.00  0.00    -0.110 A  
HETATM   17  C   UNL     1      -7.462   6.918  65.965  1.00  0.00    -0.080 A  
HETATM   18  C   UNL     1      -7.246   4.871  67.840  1.00  0.00    -0.070 A  
ENDBRANCH  11  13
ENDBRANCH   5   9
BRANCH   7  19
HETATM   19  C   UNL     1     -10.863   9.464  70.305  1.00  0.00    -0.303 A  
HETATM   20  C   UNL     1     -11.983   8.808  70.852  1.00  0.00    -0.235 A  
HETATM   21  C   UNL     1      -9.569   8.600  72.192  1.00  0.00    -0.378 A  
HETATM   22  C   UNL     1     -10.681   7.923  72.686  1.00  0.00    -0.411 A  
HETATM   23  C   UNL     1      -9.651   9.340  71.000  1.00  0.00    -0.329 A  
HETATM   24  C   UNL     1     -11.888   8.020  72.008  1.00  0.00    -0.376 A  
ENDBRANCH   7  19
BRANCH   8  25
HETATM   25  C   UNL     1     -12.139  12.395  70.088  1.00  0.00    -0.366 A  
HETATM   26  C   UNL     1     -12.047  13.797  70.112  1.00  0.00    -0.429 A  
HETATM   27  C   UNL     1     -13.492  12.586  72.120  1.00  0.00    -0.523 A  
HETATM   28  C   UNL     1     -12.871  11.804  71.130  1.00  0.00    -0.365 A  
HETATM   29  F   UNL     1     -14.089  14.716  72.951  1.00  0.00    -0.461 F  
HETATM   30  C   UNL     1     -12.741  14.586  71.033  1.00  0.00    -0.413 A  
HETATM   31  C   UNL     1     -13.453  13.971  72.041  1.00  0.00    -0.439 A  
ENDBRANCH   8  25
BRANCH   6  32
HETATM   32  C   UNL     1     -11.810  13.301  67.172  1.00  0.00    -0.374 C  
BRANCH  32  33
HETATM   33  C   UNL     1     -10.736  14.369  66.894  1.00  0.00    -0.292 C  
BRANCH  33  34
HETATM   34  C   UNL     1      -9.414  14.148  67.657  1.00  0.00    -0.213 C  
HETATM   35  O   UNL     1      -8.289  14.058  66.782  1.00  0.00    -0.409 OA 
HETATM   36  H   UNL     1      -7.475  13.922  67.252  1.00  0.00     0.000 HD 
BRANCH  34  37
HETATM   37  C   UNL     1      -9.145  15.326  68.610  1.00  0.00    -0.193 C  
BRANCH  37  38
HETATM   38  C   UNL     1      -9.971  16.581  68.281  1.00  0.00    -0.250 C  
HETATM   39  H   UNL     1     -11.191  17.827  69.234  1.00  0.00     0.000 HD 
HETATM   40  O   UNL     1     -10.681  17.052  69.437  1.00  0.00    -0.322 OA 
BRANCH  38  41
HETATM   41  C   UNL     1      -9.060  17.717  67.818  1.00  0.00    -0.249 C  
HETATM   42  C   UNL     1      -9.001  17.859  66.315  1.00  0.00    -0.168 C  
HETATM   43  O   UNL     1     -10.184  17.686  65.687  1.00  0.00    -0.593 OA 
HETATM   44  O   UNL     1      -7.984  18.177  65.717  1.00  0.00    -0.521 OA 
ENDBRANCH  38  41
ENDBRANCH  37  38
ENDBRANCH  34  37
ENDBRANCH  33  34
ENDBRANCH  32  33
ENDBRANCH   6  32
TORSDOF 10
ENDMDL
MODEL       15
REMARK 921   NORMALIZED FREE ENERGY PREDICTED BY IDOCK:   -7.00 KCAL/MOL
REMARK 922        TOTAL FREE ENERGY PREDICTED BY IDOCK:  -13.85 KCAL/MOL
REMARK 923 INTER-LIGAND FREE ENERGY PREDICTED BY IDOCK:  -10.71 KCAL/MOL
REMARK 924 INTRA-LIGAND FREE ENERGY PREDICTED BY IDOCK:   -3.13 KCAL/MOL
REMARK 927      BINDING AFFINITY PREDICTED BY RF-SCORE:    0.00 PKD
ROOT
HETATM    1  C   UNL     1     -11.447  11.665  64.441  1.00  0.00    -0.302 C  
HETATM    2  C   UNL     1     -10.503  10.829  65.307  1.00  0.00    -0.282 C  
HETATM    3  C   UNL     1     -10.687  10.974  66.824  1.00  0.00    -0.266 A  
HETATM    4  C   UNL     1      -9.061  10.980  64.817  1.00  0.00    -0.154 C  
HETATM    5  C   UNL     1     -11.161  12.026  67.632  1.00  0.00    -0.343 A  
HETATM    6  N   UNL     1     -10.489   9.871  67.666  1.00  0.00    -0.227 NA 
HETATM    7  C   UNL     1     -11.461  11.445  68.947  1.00  0.00    -0.363 A  
HETATM    8  C   UNL     1     -10.960  10.130  68.965  1.00  0.00    -0.226 A  
ENDROOT
BRANCH   5   9
HETATM    9  C   UNL     1     -11.444  13.434  67.212  1.00  0.00    -0.340 C  
HETATM   10  O   UNL     1     -12.532  13.726  66.714  1.00  0.00    -0.366 OA 
HETATM   11  N   UNL     1     -10.418  14.343  67.434  1.00  0.00    -0.259 N  
HETATM   12  H   UNL     1      -9.542  13.971  67.802  1.00  0.00     0.000 HD 
BRANCH  11  13
HETATM   13  C   UNL     1     -10.475  15.742  67.195  1.00  0.00    -0.309 A  
HETATM   14  C   UNL     1     -10.659  18.057  67.930  1.00  0.00    -0.387 A  
HETATM   15  C   UNL     1     -10.576  18.504  66.615  1.00  0.00    -0.383 A  
HETATM   16  C   UNL     1     -10.355  16.206  65.878  1.00  0.00    -0.384 A  
HETATM   17  C   UNL     1     -10.618  16.684  68.217  1.00  0.00    -0.338 A  
HETATM   18  C   UNL     1     -10.433  17.577  65.586  1.00  0.00    -0.156 A  
ENDBRANCH  11  13
ENDBRANCH   5   9
BRANCH   7  19
HETATM   19  C   UNL     1     -12.166  12.065  70.103  1.00  0.00    -0.309 A  
HETATM   20  C   UNL     1     -12.133  13.459  70.307  1.00  0.00    -0.419 A  
HETATM   21  C   UNL     1     -13.526  11.909  72.130  1.00  0.00    -0.300 A  
HETATM   22  C   UNL     1     -13.517  13.293  72.282  1.00  0.00    -0.679 A  
HETATM   23  C   UNL     1     -12.882  11.302  71.038  1.00  0.00    -0.395 A  
HETATM   24  C   UNL     1     -12.826  14.070  71.362  1.00  0.00    -0.434 A  
ENDBRANCH   7  19
BRANCH   8  25
HETATM   25  C   UNL     1     -10.859   9.140  70.099  1.00  0.00    -0.269 A  
HETATM   26  C   UNL     1      -9.912   9.280  71.128  1.00  0.00    -0.356 A  
HETATM   27  C   UNL     1     -11.616   7.118  71.255  1.00  0.00    -0.327 A  
HETATM   28  C   UNL     1     -11.706   8.023  70.183  1.00  0.00     0.176 A  
HETATM   29  F   UNL     1     -10.681   6.526  73.343  1.00  0.00    -0.235 F  
HETATM   30  C   UNL     1      -9.881   8.442  72.247  1.00  0.00    -0.383 A  
HETATM   31  C   UNL     1     -10.729   7.356  72.296  1.00  0.00    -0.235 A  
ENDBRANCH   8  25
BRANCH   6  32
HETATM   32  C   UNL     1      -9.777   8.647  67.268  1.00  0.00    -0.185 C  
BRANCH  32  33
HETATM   33  C   UNL     1      -8.240   8.728  67.297  1.00  0.00    -0.104 C  
BRANCH  33  34
HETATM   34  C   UNL     1      -7.673   9.501  68.506  1.00  0.00    -0.081 C  
HETATM   35  O   UNL     1      -6.743   8.725  69.261  1.00  0.00    -0.048 OA 
HETATM   36  H   UNL     1      -6.393   9.201  70.005  1.00  0.00     0.000 HD 
BRANCH  34  37
HETATM   37  C   UNL     1      -6.922  10.758  68.031  1.00  0.00    -0.073 C  
BRANCH  37  38
HETATM   38  C   UNL     1      -6.930  11.902  69.060  1.00  0.00    -0.098 C  
HETATM   39  H   UNL     1      -6.449  12.161  70.971  1.00  0.00     0.000 HD 
HETATM   40  O   UNL     1      -6.444  11.455  70.336  1.00  0.00    -0.253 OA 
BRANCH  38  41
HETATM   41  C   UNL     1      -6.019  13.040  68.605  1.00  0.00    -0.071 C  
HETATM   42  C   UNL     1      -6.773  14.296  68.238  1.00  0.00    -0.108 C  
HETATM   43  O   UNL     1      -7.809  14.589  69.054  1.00  0.00    -0.137 OA 
HETATM   44  O   UNL     1      -6.434  15.033  67.323  1.00  0.00    -0.305 OA 
ENDBRANCH  38  41
ENDBRANCH  37  38
ENDBRANCH  34  37
ENDBRANCH  33  34
ENDBRANCH  32  33
ENDBRANCH   6  32
TORSDOF 10
ENDMDL
MODEL       16
REMARK 921   NORMALIZED FREE ENERGY PREDICTED BY IDOCK:   -7.00 KCAL/MOL
REMARK 922        TOTAL FREE ENERGY PREDICTED BY IDOCK:  -13.84 KCAL/MOL
REMARK 923 INTER-LIGAND FREE ENERGY PREDICTED BY IDOCK:  -10.28 KCAL/MOL
REMARK 924 INTRA-LIGAND FREE ENERGY PREDICTED BY IDOCK:   -3.56 KCAL/MOL
REMARK 927      BINDING AFFINITY PREDICTED BY RF-SCORE:    0.00 PKD
ROOT
HETATM    1  C   UNL     1      -6.465   6.474  65.661  1.00  0.00    -0.042 C  
HETATM    2  C   UNL     1      -7.467   7.563  65.275  1.00  0.00    -0.084 C  
HETATM    3  C   UNL     1      -8.420   8.017  66.389  1.00  0.00    -0.136 A  
HETATM    4  C   UNL     1      -8.148   7.211  63.949  1.00  0.00    -0.009 C  
HETATM    5  C   UNL     1      -8.941   7.366  67.524  1.00  0.00    -0.126 A  
HETATM    6  N   UNL     1      -8.829   9.356  66.465  1.00  0.00    -0.133 NA 
HETATM    7  C   UNL     1      -9.479   8.414  68.401  1.00  0.00    -0.145 A  
HETATM    8  C   UNL     1      -9.470   9.625  67.686  1.00  0.00    -0.133 A  
ENDROOT
BRANCH   5   9
HETATM    9  C   UNL     1      -8.847   5.910  67.856  1.00  0.00    -0.105 C  
HETATM   10  O   UNL     1      -9.439   5.078  67.167  1.00  0.00    -0.123 OA 
HETATM   11  N   UNL     1      -8.062   5.595  68.957  1.00  0.00    -0.096 N  
HETATM   12  H   UNL     1      -7.667   6.376  69.482  1.00  0.00     0.000 HD 
BRANCH  11  13
HETATM   13  C   UNL     1      -7.757   4.287  69.420  1.00  0.00    -0.054 A  
HETATM   14  C   UNL     1      -8.212   2.307  70.765  1.00  0.00    -0.068 A  
HETATM   15  C   UNL     1      -7.065   1.687  70.279  1.00  0.00    -0.033 A  
HETATM   16  C   UNL     1      -6.626   3.638  68.910  1.00  0.00    -0.040 A  
HETATM   17  C   UNL     1      -8.551   3.603  70.345  1.00  0.00    -0.109 A  
HETATM   18  C   UNL     1      -6.265   2.357  69.356  1.00  0.00    -0.025 A  
ENDBRANCH  11  13
ENDBRANCH   5   9
BRANCH   7  19
HETATM   19  C   UNL     1      -9.964   8.298  69.805  1.00  0.00    -0.191 A  
HETATM   20  C   UNL     1     -11.241   7.776  70.088  1.00  0.00    -0.168 A  
HETATM   21  C   UNL     1      -9.671   8.601  72.214  1.00  0.00    -0.357 A  
HETATM   22  C   UNL     1     -10.919   8.037  72.469  1.00  0.00    -0.430 A  
HETATM   23  C   UNL     1      -9.186   8.705  70.899  1.00  0.00    -0.234 A  
HETATM   24  C   UNL     1     -11.701   7.615  71.404  1.00  0.00    -0.310 A  
ENDBRANCH   7  19
BRANCH   8  25
HETATM   25  C   UNL     1     -10.044  10.974  68.045  1.00  0.00    -0.198 A  
HETATM   26  C   UNL     1      -9.228  12.093  68.278  1.00  0.00    -0.192 A  
HETATM   27  C   UNL     1     -11.952  12.446  68.482  1.00  0.00    -0.273 A  
HETATM   28  C   UNL     1     -11.429  11.179  68.167  1.00  0.00    -0.373 A  
HETATM   29  F   UNL     1     -11.608  14.754  68.852  1.00  0.00    -0.271 F  
HETATM   30  C   UNL     1      -9.742  13.374  68.495  1.00  0.00    -0.156 A  
HETATM   31  C   UNL     1     -11.107  13.539  68.607  1.00  0.00    -0.269 A  
ENDBRANCH   8  25
BRANCH   6  32
HETATM   32  C   UNL     1      -8.702  10.320  65.361  1.00  0.00    -0.169 C  
BRANCH  32  33
HETATM   33  C   UNL     1      -9.778  10.224  64.263  1.00  0.00    -0.373 C  
BRANCH  33  34
HETATM   34  C   UNL     1     -10.226  11.589  63.700  1.00  0.00    -0.405 C  
HETATM   35  O   UNL     1     -11.486  11.515  63.033  1.00  0.00    -0.828 OA 
HETATM   36  H   UNL     1     -11.762  12.355  62.686  1.00  0.00     0.000 HD 
BRANCH  34  37
HETATM   37  C   UNL     1     -10.385  12.610  64.840  1.00  0.00    -0.330 C  
BRANCH  37  38
HETATM   38  C   UNL     1     -11.549  13.593  64.624  1.00  0.00    -0.371 C  
HETATM   39  H   UNL     1     -13.530  13.578  64.783  1.00  0.00     0.000 HD 
HETATM   40  O   UNL     1     -12.812  12.972  64.916  1.00  0.00    -0.706 OA 
BRANCH  38  41
HETATM   41  C   UNL     1     -11.414  14.797  65.554  1.00  0.00    -0.329 C  
HETATM   42  C   UNL     1     -11.308  16.111  64.816  1.00  0.00    -0.249 C  
HETATM   43  O   UNL     1     -12.116  16.217  63.738  1.00  0.00    -0.946 OA 
HETATM   44  O   UNL     1     -10.606  17.035  65.200  1.00  0.00    -0.688 OA 
ENDBRANCH  38  41
ENDBRANCH  37  38
ENDBRANCH  34  37
ENDBRANCH  33  34
ENDBRANCH  32  33
ENDBRANCH   6  32
TORSDOF 10
ENDMDL
MODEL       17
REMARK 921   NORMALIZED FREE ENERGY PREDICTED BY IDOCK:   -6.89 KCAL/MOL
REMARK 922        TOTAL FREE ENERGY PREDICTED BY IDOCK:  -13.67 KCAL/MOL
REMARK 923 INTER-LIGAND FREE ENERGY PREDICTED BY IDOCK:  -10.44 KCAL/MOL
REMARK 924 INTRA-LIGAND FREE ENERGY PREDICTED BY IDOCK:   -3.23 KCAL/MOL
REMARK 927      BINDING AFFINITY PREDICTED BY RF-SCORE:    0.00 PKD
ROOT
HETATM    1  C   UNL     1     -10.594   9.254  71.685  1.00  0.00    -0.360 C  
HETATM    2  C   UNL     1     -10.259   8.435  70.437  1.00  0.00    -0.212 C  
HETATM    3  C   UNL     1     -10.132   9.232  69.132  1.00  0.00    -0.199 A  
HETATM    4  C   UNL     1     -11.164   7.203  70.354  1.00  0.00    -0.320 C  
HETATM    5  C   UNL     1     -10.713  10.436  68.688  1.00  0.00    -0.250 A  
HETATM    6  N   UNL     1      -9.197   8.849  68.161  1.00  0.00    -0.139 NA 
HETATM    7  C   UNL     1      -9.926  10.882  67.531  1.00  0.00    -0.201 A  
HETATM    8  C   UNL     1      -9.047   9.842  67.177  1.00  0.00    -0.135 A  
ENDROOT
BRANCH   5   9
HETATM    9  C   UNL     1     -11.823  11.200  69.338  1.00  0.00    -0.345 C  
HETATM   10  O   UNL     1     -12.960  10.728  69.378  1.00  0.00    -0.078 OA 
HETATM   11  N   UNL     1     -11.471  12.431  69.875  1.00  0.00    -0.513 N  
HETATM   12  H   UNL     1     -10.509  12.740  69.730  1.00  0.00     0.000 HD 
BRANCH  11  13
HETATM   13  C   UNL     1     -12.323  13.300  70.605  1.00  0.00    -0.339 A  
HETATM   14  C   UNL     1     -13.882  13.786  72.413  1.00  0.00    -0.681 A  
HETATM   15  C   UNL     1     -13.992  15.108  71.992  1.00  0.00    -0.629 A  
HETATM   16  C   UNL     1     -12.414  14.642  70.214  1.00  0.00    -0.401 A  
HETATM   17  C   UNL     1     -13.060  12.886  71.719  1.00  0.00    -0.458 A  
HETATM   18  C   UNL     1     -13.264  15.534  70.885  1.00  0.00    -0.474 A  
ENDBRANCH  11  13
ENDBRANCH   5   9
BRANCH   7  19
HETATM   19  C   UNL     1      -9.984  12.183  66.807  1.00  0.00    -0.218 A  
HETATM   20  C   UNL     1     -10.784  12.336  65.658  1.00  0.00    -0.302 A  
HETATM   21  C   UNL     1      -9.309  14.515  66.517  1.00  0.00    -0.307 A  
HETATM   22  C   UNL     1     -10.144  14.653  65.411  1.00  0.00    -0.403 A  
HETATM   23  C   UNL     1      -9.250  13.303  67.225  1.00  0.00    -0.222 A  
HETATM   24  C   UNL     1     -10.890  13.563  64.987  1.00  0.00    -0.348 A  
ENDBRANCH   7  19
BRANCH   8  25
HETATM   25  C   UNL     1      -8.129   9.702  65.987  1.00  0.00    -0.112 A  
HETATM   26  C   UNL     1      -6.735   9.826  66.104  1.00  0.00    -0.085 A  
HETATM   27  C   UNL     1      -7.758   9.297  63.601  1.00  0.00    -0.116 A  
HETATM   28  C   UNL     1      -8.624   9.445  64.698  1.00  0.00    -0.209 A  
HETATM   29  F   UNL     1      -5.557   9.137  62.754  1.00  0.00    -0.078 F  
HETATM   30  C   UNL     1      -5.862   9.584  65.039  1.00  0.00    -0.066 A  
HETATM   31  C   UNL     1      -6.383   9.332  63.788  1.00  0.00    -0.091 A  
ENDBRANCH   8  25
BRANCH   6  32
HETATM   32  C   UNL     1      -8.545   7.531  68.119  1.00  0.00    -0.123 C  
BRANCH  32  33
HETATM   33  C   UNL     1      -8.971   6.611  66.960  1.00  0.00    -0.120 C  
BRANCH  33  34
HETATM   34  C   UNL     1     -10.359   5.965  67.145  1.00  0.00    -0.233 C  
HETATM   35  O   UNL     1     -11.422   6.837  66.760  1.00  0.00    -0.733 OA 
HETATM   36  H   UNL     1     -12.277   6.438  66.873  1.00  0.00     0.000 HD 
BRANCH  34  37
HETATM   37  C   UNL     1     -10.480   4.702  66.274  1.00  0.00    -0.249 C  
BRANCH  37  38
HETATM   38  C   UNL     1      -9.310   3.719  66.453  1.00  0.00    -0.186 C  
HETATM   39  H   UNL     1      -8.891   2.122  67.558  1.00  0.00     0.000 HD 
HETATM   40  O   UNL     1      -9.613   2.728  67.447  1.00  0.00    -0.132 OA 
BRANCH  38  41
HETATM   41  C   UNL     1      -9.028   2.977  65.148  1.00  0.00    -0.143 C  
HETATM   42  C   UNL     1      -8.223   3.791  64.162  1.00  0.00    -0.090 C  
HETATM   43  O   UNL     1      -7.231   4.522  64.714  1.00  0.00    -0.061 OA 
HETATM   44  O   UNL     1      -8.403   3.739  62.953  1.00  0.00    -0.079 OA 
ENDBRANCH  38  41
ENDBRANCH  37  38
ENDBRANCH  34  37
ENDBRANCH  33  34
ENDBRANCH  32  33
ENDBRANCH   6  32
TORSDOF 10
ENDMDL
MODEL       18
REMARK 921   NORMALIZED FREE ENERGY PREDICTED BY IDOCK:   -6.86 KCAL/MOL
REMARK 922        TOTAL FREE ENERGY PREDICTED BY IDOCK:  -13.63 KCAL/MOL
REMARK 923 INTER-LIGAND FREE ENERGY PREDICTED BY IDOCK:  -10.20 KCAL/MOL
REMARK 924 INTRA-LIGAND FREE ENERGY PREDICTED BY IDOCK:   -3.43 KCAL/MOL
REMARK 927      BINDING AFFINITY PREDICTED BY RF-SCORE:    0.00 PKD
ROOT
HETATM    1  C   UNL     1     -10.961   7.367  69.486  1.00  0.00    -0.155 C  
HETATM    2  C   UNL     1     -10.991   8.893  69.596  1.00  0.00    -0.132 C  
HETATM    3  C   UNL     1     -10.420   9.658  68.395  1.00  0.00    -0.223 A  
HETATM    4  C   UNL     1     -10.450   9.337  70.957  1.00  0.00    -0.384 C  
HETATM    5  C   UNL     1      -9.442   9.336  67.434  1.00  0.00    -0.165 A  
HETATM    6  N   UNL     1     -10.985  10.881  68.005  1.00  0.00    -0.242 NA 
HETATM    7  C   UNL     1      -9.602  10.292  66.331  1.00  0.00    -0.233 A  
HETATM    8  C   UNL     1     -10.508  11.285  66.746  1.00  0.00    -0.248 A  
ENDROOT
BRANCH   5   9
HETATM    9  C   UNL     1      -8.507   8.167  67.451  1.00  0.00    -0.126 C  
HETATM   10  O   UNL     1      -7.500   8.189  68.158  1.00  0.00    -0.093 OA 
HETATM   11  N   UNL     1      -8.866   7.101  66.637  1.00  0.00    -0.126 N  
HETATM   12  H   UNL     1      -9.695   7.222  66.054  1.00  0.00     0.000 HD 
BRANCH  11  13
HETATM   13  C   UNL     1      -8.188   5.857  66.541  1.00  0.00    -0.110 A  
HETATM   14  C   UNL     1      -7.667   3.610  67.326  1.00  0.00    -0.079 A  
HETATM   15  C   UNL     1      -6.792   3.418  66.261  1.00  0.00    -0.053 A  
HETATM   16  C   UNL     1      -7.333   5.637  65.454  1.00  0.00    -0.072 A  
HETATM   17  C   UNL     1      -8.353   4.825  67.470  1.00  0.00    -0.104 A  
HETATM   18  C   UNL     1      -6.618   4.436  65.328  1.00  0.00    -0.047 A  
ENDBRANCH  11  13
ENDBRANCH   5   9
BRANCH   7  19
HETATM   19  C   UNL     1      -8.962  10.281  64.986  1.00  0.00    -0.225 A  
HETATM   20  C   UNL     1      -9.741  10.355  63.814  1.00  0.00    -0.351 A  
HETATM   21  C   UNL     1      -6.992  10.169  63.540  1.00  0.00    -0.116 A  
HETATM   22  C   UNL     1      -7.782  10.290  62.400  1.00  0.00    -0.163 A  
HETATM   23  C   UNL     1      -7.572  10.192  64.820  1.00  0.00    -0.139 A  
HETATM   24  C   UNL     1      -9.159  10.394  62.538  1.00  0.00    -0.312 A  
ENDBRANCH   7  19
BRANCH   8  25
HETATM   25  C   UNL     1     -10.916  12.575  66.076  1.00  0.00    -0.318 A  
HETATM   26  C   UNL     1     -10.003  13.619  65.853  1.00  0.00    -0.304 A  
HETATM   27  C   UNL     1     -12.597  13.996  65.004  1.00  0.00    -0.416 A  
HETATM   28  C   UNL     1     -12.234  12.798  65.644  1.00  0.00    -0.503 A  
HETATM   29  F   UNL     1     -11.968  16.070  64.062  1.00  0.00    -0.482 F  
HETATM   30  C   UNL     1     -10.332  14.770  65.131  1.00  0.00    -0.439 A  
HETATM   31  C   UNL     1     -11.635  14.955  64.720  1.00  0.00    -0.410 A  
ENDBRANCH   8  25
BRANCH   6  32
HETATM   32  C   UNL     1     -11.872  11.687  68.856  1.00  0.00    -0.329 C  
BRANCH  32  33
HETATM   33  C   UNL     1     -11.175  12.724  69.756  1.00  0.00     0.010 C  
BRANCH  33  34
HETATM   34  C   UNL     1     -11.961  14.040  69.928  1.00  0.00    -0.336 C  
HETATM   35  O   UNL     1     -11.580  14.752  71.105  1.00  0.00    -0.395 OA 
HETATM   36  H   UNL     1     -12.064  15.562  71.211  1.00  0.00     0.000 HD 
BRANCH  34  37
HETATM   37  C   UNL     1     -11.699  14.978  68.736  1.00  0.00    -0.360 C  
BRANCH  37  38
HETATM   38  C   UNL     1     -10.765  16.153  69.075  1.00  0.00    -0.287 C  
HETATM   39  H   UNL     1      -8.931  16.409  69.794  1.00  0.00     0.000 HD 
HETATM   40  O   UNL     1      -9.507  15.684  69.585  1.00  0.00    -0.282 OA 
BRANCH  38  41
HETATM   41  C   UNL     1     -10.466  16.978  67.825  1.00  0.00    -0.349 C  
HETATM   42  C   UNL     1     -10.562  18.468  68.058  1.00  0.00    -0.310 C  
HETATM   43  O   UNL     1     -10.061  18.885  69.240  1.00  0.00    -0.305 OA 
HETATM   44  O   UNL     1     -10.990  19.246  67.218  1.00  0.00    -0.483 OA 
ENDBRANCH  38  41
ENDBRANCH  37  38
ENDBRANCH  34  37
ENDBRANCH  33  34
ENDBRANCH  32  33
ENDBRANCH   6  32
TORSDOF 10
ENDMDL
MODEL       19
REMARK 921   NORMALIZED FREE ENERGY PREDICTED BY IDOCK:   -6.86 KCAL/MOL
REMARK 922        TOTAL FREE ENERGY PREDICTED BY IDOCK:  -13.63 KCAL/MOL
REMARK 923 INTER-LIGAND FREE ENERGY PREDICTED BY IDOCK:  -11.87 KCAL/MOL
REMARK 924 INTRA-LIGAND FREE ENERGY PREDICTED BY IDOCK:   -1.76 KCAL/MOL
REMARK 927      BINDING AFFINITY PREDICTED BY RF-SCORE:    0.00 PKD
ROOT
HETATM    1  C   UNL     1     -12.736  13.793  65.492  1.00  0.00    -0.530 C  
HETATM    2  C   UNL     1     -11.492  12.923  65.301  1.00  0.00    -0.348 C  
HETATM    3  C   UNL     1     -11.163  11.968  66.456  1.00  0.00    -0.334 A  
HETATM    4  C   UNL     1     -10.317  13.776  64.816  1.00  0.00    -0.422 C  
HETATM    5  C   UNL     1     -11.417  12.023  67.841  1.00  0.00    -0.396 A  
HETATM    6  N   UNL     1     -10.607  10.709  66.194  1.00  0.00    -0.187 NA 
HETATM    7  C   UNL     1     -11.208  10.665  68.361  1.00  0.00    -0.347 A  
HETATM    8  C   UNL     1     -10.629   9.892  67.337  1.00  0.00    -0.277 A  
ENDROOT
BRANCH   5   9
HETATM    9  C   UNL     1     -11.934  13.189  68.622  1.00  0.00    -0.284 C  
HETATM   10  O   UNL     1     -12.516  14.110  68.050  1.00  0.00    -0.104 OA 
HETATM   11  N   UNL     1     -11.713  13.138  69.993  1.00  0.00    -0.502 N  
HETATM   12  H   UNL     1     -11.169  12.350  70.344  1.00  0.00     0.000 HD 
BRANCH  11  13
HETATM   13  C   UNL     1     -12.175  14.080  70.949  1.00  0.00    -0.362 A  
HETATM   14  C   UNL     1     -11.917  16.082  72.315  1.00  0.00    -0.633 A  
HETATM   15  C   UNL     1     -13.185  15.899  72.859  1.00  0.00    -0.619 A  
HETATM   16  C   UNL     1     -13.464  13.928  71.478  1.00  0.00    -0.383 A  
HETATM   17  C   UNL     1     -11.412  15.173  71.372  1.00  0.00    -0.405 A  
HETATM   18  C   UNL     1     -13.956  14.816  72.448  1.00  0.00    -0.575 A  
ENDBRANCH  11  13
ENDBRANCH   5   9
BRANCH   7  19
HETATM   19  C   UNL     1     -11.526  10.123  69.712  1.00  0.00    -0.288 A  
HETATM   20  C   UNL     1     -12.821  10.243  70.252  1.00  0.00    -0.125 A  
HETATM   21  C   UNL     1     -10.883   8.992  71.783  1.00  0.00    -0.437 A  
HETATM   22  C   UNL     1     -12.183   9.082  72.274  1.00  0.00    -0.387 A  
HETATM   23  C   UNL     1     -10.563   9.481  70.505  1.00  0.00    -0.358 A  
HETATM   24  C   UNL     1     -13.156   9.701  71.502  1.00  0.00    -0.488 A  
ENDBRANCH   7  19
BRANCH   8  25
HETATM   25  C   UNL     1     -10.074   8.490  67.369  1.00  0.00    -0.298 A  
HETATM   26  C   UNL     1      -8.729   8.228  67.681  1.00  0.00    -0.133 A  
HETATM   27  C   UNL     1     -10.351   6.067  67.138  1.00  0.00    -0.284 A  
HETATM   28  C   UNL     1     -10.875   7.371  67.086  1.00  0.00    -0.340 A  
HETATM   29  F   UNL     1      -8.558   4.615  67.650  1.00  0.00    -0.103 F  
HETATM   30  C   UNL     1      -8.226   6.933  67.831  1.00  0.00    -0.114 A  
HETATM   31  C   UNL     1      -9.041   5.858  67.546  1.00  0.00    -0.106 A  
ENDBRANCH   8  25
BRANCH   6  32
HETATM   32  C   UNL     1      -9.979  10.336  64.917  1.00  0.00    -0.323 C  
BRANCH  32  33
HETATM   33  C   UNL     1      -8.615  10.989  64.627  1.00  0.00     0.108 C  
BRANCH  33  34
HETATM   34  C   UNL     1      -7.509  10.613  65.633  1.00  0.00    -0.093 C  
HETATM   35  O   UNL     1      -6.203  10.686  65.060  1.00  0.00    -0.293 OA 
HETATM   36  H   UNL     1      -5.522  10.455  65.680  1.00  0.00     0.000 HD 
BRANCH  34  37
HETATM   37  C   UNL     1      -7.525  11.581  66.830  1.00  0.00    -0.145 C  
BRANCH  37  38
HETATM   38  C   UNL     1      -6.174  11.674  67.560  1.00  0.00    -0.083 C  
HETATM   39  H   UNL     1      -4.610  12.900  67.603  1.00  0.00     0.000 HD 
HETATM   40  O   UNL     1      -5.444  12.842  67.153  1.00  0.00    -0.345 OA 
BRANCH  38  41
HETATM   41  C   UNL     1      -6.385  11.780  69.070  1.00  0.00    -0.078 C  
HETATM   42  C   UNL     1      -6.452  10.436  69.757  1.00  0.00    -0.089 C  
HETATM   43  O   UNL     1      -5.571   9.523  69.293  1.00  0.00    -0.035 OA 
HETATM   44  O   UNL     1      -7.188  10.210  70.706  1.00  0.00    -0.320 OA 
ENDBRANCH  38  41
ENDBRANCH  37  38
ENDBRANCH  34  37
ENDBRANCH  33  34
ENDBRANCH  32  33
ENDBRANCH   6  32
TORSDOF 10
ENDMDL
MODEL       20
REMARK 921   NORMALIZED FREE ENERGY PREDICTED BY IDOCK:   -6.82 KCAL/MOL
REMARK 922        TOTAL FREE ENERGY PREDICTED BY IDOCK:  -13.56 KCAL/MOL
REMARK 923 INTER-LIGAND FREE ENERGY PREDICTED BY IDOCK:  -11.24 KCAL/MOL
REMARK 924 INTRA-LIGAND FREE ENERGY PREDICTED BY IDOCK:   -2.32 KCAL/MOL
REMARK 927      BINDING AFFINITY PREDICTED BY RF-SCORE:    0.00 PKD
ROOT
HETATM    1  C   UNL     1     -11.071  11.401  64.608  1.00  0.00    -0.277 C  
HETATM    2  C   UNL     1     -10.231  10.536  65.549  1.00  0.00    -0.325 C  
HETATM    3  C   UNL     1     -10.488  10.738  67.048  1.00  0.00    -0.247 A  
HETATM    4  C   UNL     1      -8.757  10.583  65.137  1.00  0.00    -0.197 C  
HETATM    5  C   UNL     1     -10.939  11.841  67.799  1.00  0.00    -0.277 A  
HETATM    6  N   UNL     1     -10.406   9.652  67.930  1.00  0.00    -0.209 NA 
HETATM    7  C   UNL     1     -11.346  11.320  69.111  1.00  0.00    -0.349 A  
HETATM    8  C   UNL     1     -10.930   9.979  69.193  1.00  0.00    -0.220 A  
ENDROOT
BRANCH   5   9
HETATM    9  C   UNL     1     -11.110  13.251  67.326  1.00  0.00    -0.279 C  
HETATM   10  O   UNL     1     -12.148  13.593  66.760  1.00  0.00    -0.401 OA 
HETATM   11  N   UNL     1     -10.042  14.102  67.579  1.00  0.00    -0.235 N  
HETATM   12  H   UNL     1      -9.212  13.689  68.006  1.00  0.00     0.000 HD 
BRANCH  11  13
HETATM   13  C   UNL     1      -9.997  15.493  67.299  1.00  0.00    -0.238 A  
HETATM   14  C   UNL     1     -10.657  17.804  67.702  1.00  0.00    -0.385 A  
HETATM   15  C   UNL     1      -9.838  18.241  66.664  1.00  0.00    -0.354 A  
HETATM   16  C   UNL     1      -9.149  15.949  66.282  1.00  0.00    -0.379 A  
HETATM   17  C   UNL     1     -10.742  16.438  68.011  1.00  0.00    -0.334 A  
HETATM   18  C   UNL     1      -9.090  17.311  65.947  1.00  0.00     0.001 A  
ENDBRANCH  11  13
ENDBRANCH   5   9
BRANCH   7  19
HETATM   19  C   UNL     1     -12.073  12.018  70.208  1.00  0.00    -0.395 A  
HETATM   20  C   UNL     1     -11.986  13.416  70.358  1.00  0.00    -0.358 A  
HETATM   21  C   UNL     1     -13.527  12.005  72.174  1.00  0.00    -0.338 A  
HETATM   22  C   UNL     1     -13.462  13.392  72.272  1.00  0.00    -0.683 A  
HETATM   23  C   UNL     1     -12.863  11.326  71.138  1.00  0.00    -0.452 A  
HETATM   24  C   UNL     1     -12.698  14.100  71.355  1.00  0.00    -0.439 A  
ENDBRANCH   7  19
BRANCH   8  25
HETATM   25  C   UNL     1     -10.953   9.020  70.358  1.00  0.00    -0.283 A  
HETATM   26  C   UNL     1      -9.976   9.049  71.367  1.00  0.00    -0.388 A  
HETATM   27  C   UNL     1     -11.977   7.168  71.591  1.00  0.00    -0.353 A  
HETATM   28  C   UNL     1     -11.954   8.044  70.491  1.00  0.00     0.051 A  
HETATM   29  F   UNL     1     -11.098   6.509  73.683  1.00  0.00    -0.234 F  
HETATM   30  C   UNL     1     -10.046   8.251  72.512  1.00  0.00    -0.376 A  
HETATM   31  C   UNL     1     -11.044   7.305  72.610  1.00  0.00    -0.313 A  
ENDBRANCH   8  25
BRANCH   6  32
HETATM   32  C   UNL     1      -9.752   8.375  67.606  1.00  0.00    -0.160 C  
BRANCH  32  33
HETATM   33  C   UNL     1     -10.692   7.228  67.192  1.00  0.00    -0.413 C  
BRANCH  33  34
HETATM   34  C   UNL     1      -9.963   5.928  66.796  1.00  0.00    -0.175 C  
HETATM   35  O   UNL     1     -10.691   5.167  65.832  1.00  0.00    -0.526 OA 
HETATM   36  H   UNL     1     -10.242   4.366  65.588  1.00  0.00     0.000 HD 
BRANCH  34  37
HETATM   37  C   UNL     1      -8.596   6.252  66.167  1.00  0.00    -0.143 C  
BRANCH  37  38
HETATM   38  C   UNL     1      -8.435   5.705  64.738  1.00  0.00    -0.102 C  
HETATM   39  H   UNL     1      -7.935   6.405  62.946  1.00  0.00     0.000 HD 
HETATM   40  O   UNL     1      -8.034   6.742  63.828  1.00  0.00    -0.117 OA 
BRANCH  38  41
HETATM   41  C   UNL     1      -7.353   4.627  64.695  1.00  0.00    -0.071 C  
HETATM   42  C   UNL     1      -7.863   3.257  65.078  1.00  0.00    -0.082 C  
HETATM   43  O   UNL     1      -9.089   2.959  64.596  1.00  0.00    -0.122 OA 
HETATM   44  O   UNL     1      -7.195   2.451  65.709  1.00  0.00    -0.062 OA 
ENDBRANCH  38  41
ENDBRANCH  37  38
ENDBRANCH  34  37
ENDBRANCH  33  34
ENDBRANCH  32  33
ENDBRANCH   6  32
TORSDOF 10
ENDMDL
MODEL       21
REMARK 921   NORMALIZED FREE ENERGY PREDICTED BY IDOCK:   -6.79 KCAL/MOL
REMARK 922        TOTAL FREE ENERGY PREDICTED BY IDOCK:  -13.52 KCAL/MOL
REMARK 923 INTER-LIGAND FREE ENERGY PREDICTED BY IDOCK:  -10.80 KCAL/MOL
REMARK 924 INTRA-LIGAND FREE ENERGY PREDICTED BY IDOCK:   -2.72 KCAL/MOL
REMARK 927      BINDING AFFINITY PREDICTED BY RF-SCORE:    0.00 PKD
ROOT
HETATM    1  C   UNL     1     -13.388   9.408  71.397  1.00  0.00    -0.417 C  
HETATM    2  C   UNL     1     -12.711  10.496  70.561  1.00  0.00    -0.385 C  
HETATM    3  C   UNL     1     -11.551  10.027  69.673  1.00  0.00    -0.096 A  
HETATM    4  C   UNL     1     -12.402  11.717  71.432  1.00  0.00    -0.201 C  
HETATM    5  C   UNL     1     -10.634   8.964  69.781  1.00  0.00    -0.230 A  
HETATM    6  N   UNL     1     -11.336  10.623  68.422  1.00  0.00    -0.287 NA 
HETATM    7  C   UNL     1     -10.021   8.798  68.457  1.00  0.00    -0.200 A  
HETATM    8  C   UNL     1     -10.413   9.889  67.658  1.00  0.00    -0.244 A  
ENDROOT
BRANCH   5   9
HETATM    9  C   UNL     1     -10.415   8.073  70.964  1.00  0.00    -0.203 C  
HETATM   10  O   UNL     1     -10.109   8.555  72.055  1.00  0.00    -0.258 OA 
HETATM   11  N   UNL     1     -10.588   6.715  70.732  1.00  0.00    -0.220 N  
HETATM   12  H   UNL     1     -10.787   6.431  69.772  1.00  0.00     0.000 HD 
BRANCH  11  13
HETATM   13  C   UNL     1     -10.514   5.684  71.706  1.00  0.00    -0.228 A  
HETATM   14  C   UNL     1      -9.377   3.845  72.829  1.00  0.00    -0.145 A  
HETATM   15  C   UNL     1     -10.464   3.663  73.678  1.00  0.00    -0.262 A  
HETATM   16  C   UNL     1     -11.587   5.515  72.591  1.00  0.00    -0.293 A  
HETATM   17  C   UNL     1      -9.405   4.844  71.844  1.00  0.00    -0.180 A  
HETATM   18  C   UNL     1     -11.575   4.493  73.553  1.00  0.00    -0.185 A  
ENDBRANCH  11  13
ENDBRANCH   5   9
BRANCH   7  19
HETATM   19  C   UNL     1      -9.137   7.704  67.967  1.00  0.00    -0.135 A  
HETATM   20  C   UNL     1      -7.809   7.589  68.421  1.00  0.00    -0.122 A  
HETATM   21  C   UNL     1      -8.719   5.735  66.577  1.00  0.00    -0.123 A  
HETATM   22  C   UNL     1      -7.425   5.617  67.077  1.00  0.00    -0.084 A  
HETATM   23  C   UNL     1      -9.576   6.750  67.037  1.00  0.00    -0.188 A  
HETATM   24  C   UNL     1      -6.973   6.540  68.009  1.00  0.00    -0.077 A  
ENDBRANCH   7  19
BRANCH   8  25
HETATM   25  C   UNL     1      -9.961  10.299  66.278  1.00  0.00    -0.295 A  
HETATM   26  C   UNL     1     -10.873  10.631  65.264  1.00  0.00     0.020 A  
HETATM   27  C   UNL     1      -8.190  10.770  64.653  1.00  0.00     0.069 A  
HETATM   28  C   UNL     1      -8.600  10.367  65.936  1.00  0.00    -0.165 A  
HETATM   29  F   UNL     1      -8.738  11.617  62.516  1.00  0.00    -0.312 F  
HETATM   30  C   UNL     1     -10.474  11.126  64.019  1.00  0.00    -0.447 A  
HETATM   31  C   UNL     1      -9.130  11.181  63.718  1.00  0.00    -0.071 A  
ENDBRANCH   8  25
BRANCH   6  32
HETATM   32  C   UNL     1     -11.916  11.911  68.013  1.00  0.00    -0.133 C  
BRANCH  32  33
HETATM   33  C   UNL     1     -11.202  13.166  68.548  1.00  0.00    -0.307 C  
BRANCH  33  34
HETATM   34  C   UNL     1     -11.698  14.487  67.924  1.00  0.00    -0.351 C  
HETATM   35  O   UNL     1     -12.475  15.262  68.838  1.00  0.00    -0.589 OA 
HETATM   36  H   UNL     1     -12.781  16.076  68.454  1.00  0.00     0.000 HD 
BRANCH  34  37
HETATM   37  C   UNL     1     -10.503  15.361  67.504  1.00  0.00    -0.275 C  
BRANCH  37  38
HETATM   38  C   UNL     1     -10.605  15.887  66.062  1.00  0.00    -0.323 C  
HETATM   39  H   UNL     1      -9.479  16.923  64.794  1.00  0.00     0.000 HD 
HETATM   40  O   UNL     1      -9.416  16.598  65.684  1.00  0.00    -0.511 OA 
BRANCH  38  41
HETATM   41  C   UNL     1     -10.770  14.730  65.079  1.00  0.00    -0.452 C  
HETATM   42  C   UNL     1     -11.966  14.886  64.170  1.00  0.00    -0.235 C  
HETATM   43  O   UNL     1     -12.173  16.144  63.724  1.00  0.00    -0.934 OA 
HETATM   44  O   UNL     1     -12.652  13.942  63.804  1.00  0.00    -0.721 OA 
ENDBRANCH  38  41
ENDBRANCH  37  38
ENDBRANCH  34  37
ENDBRANCH  33  34
ENDBRANCH  32  33
ENDBRANCH   6  32
TORSDOF 10
ENDMDL
MODEL       22
REMARK 921   NORMALIZED FREE ENERGY PREDICTED BY IDOCK:   -6.73 KCAL/MOL
REMARK 922        TOTAL FREE ENERGY PREDICTED BY IDOCK:  -13.42 KCAL/MOL
REMARK 923 INTER-LIGAND FREE ENERGY PREDICTED BY IDOCK:  -10.16 KCAL/MOL
REMARK 924 INTRA-LIGAND FREE ENERGY PREDICTED BY IDOCK:   -3.26 KCAL/MOL
REMARK 927      BINDING AFFINITY PREDICTED BY RF-SCORE:    0.00 PKD
ROOT
HETATM    1  C   UNL     1      -5.588  14.745  67.811  1.00  0.00    -0.067 C  
HETATM    2  C   UNL     1      -6.142  13.516  68.533  1.00  0.00    -0.090 C  
HETATM    3  C   UNL     1      -7.427  12.920  67.944  1.00  0.00    -0.131 A  
HETATM    4  C   UNL     1      -6.180  13.761  70.044  1.00  0.00    -0.120 C  
HETATM    5  C   UNL     1      -8.493  13.482  67.215  1.00  0.00    -0.200 A  
HETATM    6  N   UNL     1      -7.638  11.534  67.969  1.00  0.00    -0.106 NA 
HETATM    7  C   UNL     1      -9.225  12.363  66.607  1.00  0.00    -0.218 A  
HETATM    8  C   UNL     1      -8.724  11.168  67.156  1.00  0.00    -0.141 A  
ENDROOT
BRANCH   5   9
HETATM    9  C   UNL     1      -8.762  14.935  66.979  1.00  0.00    -0.238 C  
HETATM   10  O   UNL     1      -8.811  15.378  65.831  1.00  0.00    -0.212 OA 
HETATM   11  N   UNL     1      -8.952  15.703  68.120  1.00  0.00    -0.178 N  
HETATM   12  H   UNL     1      -8.833  15.234  69.018  1.00  0.00     0.000 HD 
BRANCH  11  13
HETATM   13  C   UNL     1      -9.297  17.080  68.153  1.00  0.00    -0.254 A  
HETATM   14  C   UNL     1      -8.896  19.397  68.792  1.00  0.00    -0.385 A  
HETATM   15  C   UNL     1     -10.070  19.797  68.161  1.00  0.00    -0.574 A  
HETATM   16  C   UNL     1     -10.457  17.501  67.490  1.00  0.00    -0.355 A  
HETATM   17  C   UNL     1      -8.517  18.046  68.796  1.00  0.00    -0.217 A  
HETATM   18  C   UNL     1     -10.857  18.846  67.517  1.00  0.00    -0.440 A  
ENDBRANCH  11  13
ENDBRANCH   5   9
BRANCH   7  19
HETATM   19  C   UNL     1     -10.310  12.401  65.587  1.00  0.00    -0.284 A  
HETATM   20  C   UNL     1     -10.019  12.252  64.217  1.00  0.00    -0.244 A  
HETATM   21  C   UNL     1     -12.660  12.638  64.953  1.00  0.00    -0.525 A  
HETATM   22  C   UNL     1     -12.351  12.442  63.609  1.00  0.00    -0.647 A  
HETATM   23  C   UNL     1     -11.656  12.591  65.935  1.00  0.00    -0.454 A  
HETATM   24  C   UNL     1     -11.028  12.238  63.242  1.00  0.00    -0.373 A  
ENDBRANCH   7  19
BRANCH   8  25
HETATM   25  C   UNL     1      -9.208   9.747  67.004  1.00  0.00    -0.166 A  
HETATM   26  C   UNL     1     -10.366   9.282  67.648  1.00  0.00    -0.311 A  
HETATM   27  C   UNL     1      -8.993   7.497  66.061  1.00  0.00    -0.164 A  
HETATM   28  C   UNL     1      -8.521   8.813  66.210  1.00  0.00    -0.130 A  
HETATM   29  F   UNL     1     -10.672   5.882  66.453  1.00  0.00    -0.289 F  
HETATM   30  C   UNL     1     -10.895   8.007  67.426  1.00  0.00    -0.146 A  
HETATM   31  C   UNL     1     -10.195   7.117  66.640  1.00  0.00    -0.153 A  
ENDBRANCH   8  25
BRANCH   6  32
HETATM   32  C   UNL     1      -6.889  10.603  68.826  1.00  0.00    -0.062 C  
BRANCH  32  33
HETATM   33  C   UNL     1      -7.467  10.381  70.236  1.00  0.00     0.140 C  
BRANCH  33  34
HETATM   34  C   UNL     1      -8.163   9.017  70.424  1.00  0.00    -0.151 C  
HETATM   35  O   UNL     1      -7.337   8.073  71.104  1.00  0.00    -0.059 OA 
HETATM   36  H   UNL     1      -7.766   7.233  71.221  1.00  0.00     0.000 HD 
BRANCH  34  37
HETATM   37  C   UNL     1      -9.439   9.182  71.270  1.00  0.00    -0.313 C  
BRANCH  37  38
HETATM   38  C   UNL     1      -9.704   7.998  72.216  1.00  0.00    -0.229 C  
HETATM   39  H   UNL     1      -9.130   7.407  74.024  1.00  0.00     0.000 HD 
HETATM   40  O   UNL     1      -8.966   8.137  73.440  1.00  0.00    -0.254 OA 
BRANCH  38  41
HETATM   41  C   UNL     1     -11.185   7.930  72.588  1.00  0.00    -0.459 C  
HETATM   42  C   UNL     1     -12.043   7.323  71.504  1.00  0.00    -0.331 C  
HETATM   43  O   UNL     1     -11.489   6.265  70.873  1.00  0.00    -0.327 OA 
HETATM   44  O   UNL     1     -13.179   7.706  71.262  1.00  0.00    -0.306 OA 
ENDBRANCH  38  41
ENDBRANCH  37  38
ENDBRANCH  34  37
ENDBRANCH  33  34
ENDBRANCH  32  33
ENDBRANCH   6  32
TORSDOF 10
ENDMDL
MODEL       23
REMARK 921   NORMALIZED FREE ENERGY PREDICTED BY IDOCK:   -6.73 KCAL/MOL
REMARK 922        TOTAL FREE ENERGY PREDICTED BY IDOCK:  -13.42 KCAL/MOL
REMARK 923 INTER-LIGAND FREE ENERGY PREDICTED BY IDOCK:   -9.76 KCAL/MOL
REMARK 924 INTRA-LIGAND FREE ENERGY PREDICTED BY IDOCK:   -3.65 KCAL/MOL
REMARK 927      BINDING AFFINITY PREDICTED BY RF-SCORE:    0.00 PKD
ROOT
HETATM    1  C   UNL     1     -13.628  14.607  70.632  1.00  0.00     0.018 C  
HETATM    2  C   UNL     1     -12.254  15.269  70.748  1.00  0.00    -0.411 C  
HETATM    3  C   UNL     1     -11.186  14.764  69.769  1.00  0.00    -0.273 A  
HETATM    4  C   UNL     1     -11.812  15.319  72.213  1.00  0.00    -0.529 C  
HETATM    5  C   UNL     1     -10.991  13.527  69.124  1.00  0.00    -0.220 A  
HETATM    6  N   UNL     1     -10.230  15.648  69.250  1.00  0.00    -0.232 NA 
HETATM    7  C   UNL     1     -10.037  13.767  68.033  1.00  0.00    -0.245 A  
HETATM    8  C   UNL     1      -9.521  15.067  68.185  1.00  0.00    -0.196 A  
ENDROOT
BRANCH   5   9
HETATM    9  C   UNL     1     -11.710  12.243  69.391  1.00  0.00    -0.330 C  
HETATM   10  O   UNL     1     -12.395  11.721  68.511  1.00  0.00    -0.348 OA 
HETATM   11  N   UNL     1     -11.537  11.712  70.662  1.00  0.00    -0.368 N  
HETATM   12  H   UNL     1     -10.991  12.264  71.324  1.00  0.00     0.000 HD 
BRANCH  11  13
HETATM   13  C   UNL     1     -12.048  10.471  71.128  1.00  0.00    -0.370 A  
HETATM   14  C   UNL     1     -13.724   9.107  72.253  1.00  0.00    -0.548 A  
HETATM   15  C   UNL     1     -12.980   7.956  72.011  1.00  0.00    -0.270 A  
HETATM   16  C   UNL     1     -11.327   9.301  70.858  1.00  0.00    -0.373 A  
HETATM   17  C   UNL     1     -13.257  10.357  71.822  1.00  0.00    -0.529 A  
HETATM   18  C   UNL     1     -11.775   8.054  71.321  1.00  0.00    -0.311 A  
ENDBRANCH  11  13
ENDBRANCH   5   9
BRANCH   7  19
HETATM   19  C   UNL     1      -9.636  12.854  66.926  1.00  0.00    -0.240 A  
HETATM   20  C   UNL     1     -10.426  12.736  65.765  1.00  0.00    -0.294 A  
HETATM   21  C   UNL     1      -8.123  11.208  65.935  1.00  0.00    -0.017 A  
HETATM   22  C   UNL     1      -8.896  11.145  64.779  1.00  0.00     0.038 A  
HETATM   23  C   UNL     1      -8.473  12.073  66.986  1.00  0.00    -0.183 A  
HETATM   24  C   UNL     1     -10.045  11.918  64.690  1.00  0.00    -0.301 A  
ENDBRANCH   7  19
BRANCH   8  25
HETATM   25  C   UNL     1      -8.410  15.768  67.443  1.00  0.00    -0.189 A  
HETATM   26  C   UNL     1      -8.662  16.627  66.361  1.00  0.00    -0.345 A  
HETATM   27  C   UNL     1      -6.036  16.269  67.111  1.00  0.00    -0.128 A  
HETATM   28  C   UNL     1      -7.061  15.595  67.797  1.00  0.00    -0.174 A  
HETATM   29  F   UNL     1      -5.376  17.865  65.498  1.00  0.00    -0.186 F  
HETATM   30  C   UNL     1      -7.660  17.376  65.739  1.00  0.00     0.097 A  
HETATM   31  C   UNL     1      -6.347  17.182  66.113  1.00  0.00     0.003 A  
ENDBRANCH   8  25
BRANCH   6  32
HETATM   32  C   UNL     1      -9.933  16.970  69.824  1.00  0.00     0.277 C  
BRANCH  32  33
HETATM   33  C   UNL     1     -10.523  18.175  69.068  1.00  0.00     0.004 C  
BRANCH  33  34
HETATM   34  C   UNL     1      -9.464  19.137  68.492  1.00  0.00    -0.389 C  
HETATM   35  O   UNL     1     -10.021  20.397  68.116  1.00  0.00    -0.339 OA 
HETATM   36  H   UNL     1      -9.369  20.990  67.762  1.00  0.00     0.000 HD 
BRANCH  34  37
HETATM   37  C   UNL     1      -8.379  19.427  69.544  1.00  0.00     0.234 C  
BRANCH  37  38
HETATM   38  C   UNL     1      -6.962  19.527  68.951  1.00  0.00    -0.351 C  
HETATM   39  H   UNL     1      -6.047  20.527  67.498  1.00  0.00     0.000 HD 
HETATM   40  O   UNL     1      -6.921  20.466  67.864  1.00  0.00    -0.288 OA 
BRANCH  38  41
HETATM   41  C   UNL     1      -5.972  20.016  70.006  1.00  0.00    -0.373 C  
HETATM   42  C   UNL     1      -5.520  18.925  70.948  1.00  0.00    -0.217 C  
HETATM   43  O   UNL     1      -5.296  17.730  70.359  1.00  0.00    -0.233 OA 
HETATM   44  O   UNL     1      -5.301  19.120  72.135  1.00  0.00    -0.635 OA 
ENDBRANCH  38  41
ENDBRANCH  37  38
ENDBRANCH  34  37
ENDBRANCH  33  34
ENDBRANCH  32  33
ENDBRANCH   6  32
TORSDOF 10
ENDMDL
MODEL       24
REMARK 921   NORMALIZED FREE ENERGY PREDICTED BY IDOCK:   -6.71 KCAL/MOL
REMARK 922        TOTAL FREE ENERGY PREDICTED BY IDOCK:  -13.39 KCAL/MOL
REMARK 923 INTER-LIGAND FREE ENERGY PREDICTED BY IDOCK:  -10.53 KCAL/MOL
REMARK 924 INTRA-LIGAND FREE ENERGY PREDICTED BY IDOCK:   -2.86 KCAL/MOL
REMARK 927      BINDING AFFINITY PREDICTED BY RF-SCORE:    0.00 PKD
ROOT
HETATM    1  C   UNL     1     -11.710  12.339  66.904  1.00  0.00    -0.404 C  
HETATM    2  C   UNL     1     -10.238  11.987  67.124  1.00  0.00    -0.221 C  
HETATM    3  C   UNL     1      -9.957  10.961  68.230  1.00  0.00    -0.175 A  
HETATM    4  C   UNL     1      -9.394  13.262  67.200  1.00  0.00    -0.240 C  
HETATM    5  C   UNL     1     -10.640  10.621  69.413  1.00  0.00    -0.270 A  
HETATM    6  N   UNL     1      -8.906  10.043  68.089  1.00  0.00    -0.121 NA 
HETATM    7  C   UNL     1     -10.104   9.326  69.853  1.00  0.00    -0.230 A  
HETATM    8  C   UNL     1      -8.978   9.032  69.062  1.00  0.00    -0.140 A  
ENDROOT
BRANCH   5   9
HETATM    9  C   UNL     1     -11.787  11.351  70.038  1.00  0.00    -0.359 C  
HETATM   10  O   UNL     1     -12.858  10.775  70.230  1.00  0.00    -0.299 OA 
HETATM   11  N   UNL     1     -11.543  12.676  70.375  1.00  0.00    -0.500 N  
HETATM   12  H   UNL     1     -10.633  13.058  70.116  1.00  0.00     0.000 HD 
BRANCH  11  13
HETATM   13  C   UNL     1     -12.441  13.547  71.047  1.00  0.00    -0.369 A  
HETATM   14  C   UNL     1     -14.326  13.992  72.525  1.00  0.00    -0.221 A  
HETATM   15  C   UNL     1     -14.175  15.363  72.339  1.00  0.00    -0.584 A  
HETATM   16  C   UNL     1     -12.277  14.930  70.897  1.00  0.00    -0.389 A  
HETATM   17  C   UNL     1     -13.470  13.090  71.876  1.00  0.00    -0.498 A  
HETATM   18  C   UNL     1     -13.155  15.833  71.517  1.00  0.00    -0.471 A  
ENDBRANCH  11  13
ENDBRANCH   5   9
BRANCH   7  19
HETATM   19  C   UNL     1     -10.604   8.425  70.928  1.00  0.00    -0.243 A  
HETATM   20  C   UNL     1     -11.650   7.514  70.680  1.00  0.00    -0.272 A  
HETATM   21  C   UNL     1     -10.569   7.592  73.228  1.00  0.00    -0.438 A  
HETATM   22  C   UNL     1     -11.572   6.669  72.943  1.00  0.00    -0.017 A  
HETATM   23  C   UNL     1     -10.070   8.441  72.225  1.00  0.00    -0.382 A  
HETATM   24  C   UNL     1     -12.107   6.624  71.664  1.00  0.00    -0.404 A  
ENDBRANCH   7  19
BRANCH   8  25
HETATM   25  C   UNL     1      -7.968   7.917  69.180  1.00  0.00    -0.118 A  
HETATM   26  C   UNL     1      -6.751   8.083  69.863  1.00  0.00    -0.037 A  
HETATM   27  C   UNL     1      -7.251   5.617  68.741  1.00  0.00    -0.081 A  
HETATM   28  C   UNL     1      -8.191   6.654  68.608  1.00  0.00    -0.119 A  
HETATM   29  F   UNL     1      -5.243   4.801  69.682  1.00  0.00     0.000 F  
HETATM   30  C   UNL     1      -5.858   7.031  70.084  1.00  0.00    -0.024 A  
HETATM   31  C   UNL     1      -6.111   5.804  69.509  1.00  0.00    -0.028 A  
ENDBRANCH   8  25
BRANCH   6  32
HETATM   32  C   UNL     1      -7.810  10.189  67.120  1.00  0.00    -0.099 C  
BRANCH  32  33
HETATM   33  C   UNL     1      -7.867   9.251  65.900  1.00  0.00    -0.099 C  
BRANCH  33  34
HETATM   34  C   UNL     1      -8.071   9.979  64.554  1.00  0.00    -0.156 C  
HETATM   35  O   UNL     1      -7.581   9.223  63.447  1.00  0.00    -0.105 OA 
HETATM   36  H   UNL     1      -7.706   9.671  62.619  1.00  0.00     0.000 HD 
BRANCH  34  37
HETATM   37  C   UNL     1      -9.570  10.220  64.300  1.00  0.00    -0.375 C  
BRANCH  37  38
HETATM   38  C   UNL     1      -9.859  11.522  63.533  1.00  0.00    -0.383 C  
HETATM   39  H   UNL     1      -9.105  12.510  61.982  1.00  0.00     0.000 HD 
HETATM   40  O   UNL     1      -8.927  11.707  62.456  1.00  0.00    -0.302 OA 
BRANCH  38  41
HETATM   41  C   UNL     1     -11.257  11.483  62.917  1.00  0.00     0.290 C  
HETATM   42  C   UNL     1     -12.221  12.447  63.568  1.00  0.00    -0.563 C  
HETATM   43  O   UNL     1     -11.689  13.648  63.882  1.00  0.00    -0.389 OA 
HETATM   44  O   UNL     1     -13.406  12.194  63.732  1.00  0.00    -0.701 OA 
ENDBRANCH  38  41
ENDBRANCH  37  38
ENDBRANCH  34  37
ENDBRANCH  33  34
ENDBRANCH  32  33
ENDBRANCH   6  32
TORSDOF 10
ENDMDL
MODEL       25
REMARK 921   NORMALIZED FREE ENERGY PREDICTED BY IDOCK:   -6.68 KCAL/MOL
REMARK 922        TOTAL FREE ENERGY PREDICTED BY IDOCK:  -13.34 KCAL/MOL
REMARK 923 INTER-LIGAND FREE ENERGY PREDICTED BY IDOCK:  -10.21 KCAL/MOL
REMARK 924 INTRA-LIGAND FREE ENERGY PREDICTED BY IDOCK:   -3.13 KCAL/MOL
REMARK 927      BINDING AFFINITY PREDICTED BY RF-SCORE:    0.00 PKD
ROOT
HETATM    1  C   UNL     1     -11.342  11.599  64.577  1.00  0.00    -0.310 C  
HETATM    2  C   UNL     1     -10.428  10.757  65.469  1.00  0.00    -0.264 C  
HETATM    3  C   UNL     1     -10.634  10.925  66.980  1.00  0.00    -0.257 A  
HETATM    4  C   UNL     1      -8.976  10.875  65.000  1.00  0.00    -0.184 C  
HETATM    5  C   UNL     1     -11.101  11.996  67.767  1.00  0.00    -0.303 A  
HETATM    6  N   UNL     1     -10.470   9.830  67.840  1.00  0.00    -0.224 NA 
HETATM    7  C   UNL     1     -11.433  11.438  69.084  1.00  0.00    -0.365 A  
HETATM    8  C   UNL     1     -10.956  10.114  69.128  1.00  0.00    -0.230 A  
ENDROOT
BRANCH   5   9
HETATM    9  C   UNL     1     -11.352  13.403  67.324  1.00  0.00    -0.319 C  
HETATM   10  O   UNL     1     -12.440  13.717  66.841  1.00  0.00    -0.320 OA 
HETATM   11  N   UNL     1     -10.296  14.286  67.507  1.00  0.00    -0.247 N  
HETATM   12  H   UNL     1      -9.424  13.896  67.865  1.00  0.00     0.000 HD 
BRANCH  11  13
HETATM   13  C   UNL     1     -10.316  15.681  67.241  1.00  0.00    -0.277 A  
HETATM   14  C   UNL     1     -10.395  17.596  65.738  1.00  0.00    -0.194 A  
HETATM   15  C   UNL     1     -10.354  18.473  66.818  1.00  0.00    -0.435 A  
HETATM   16  C   UNL     1     -10.313  16.573  68.321  1.00  0.00    -0.293 A  
HETATM   17  C   UNL     1     -10.367  16.209  65.948  1.00  0.00    -0.384 A  
HETATM   18  C   UNL     1     -10.304  17.961  68.112  1.00  0.00    -0.395 A  
ENDBRANCH  11  13
ENDBRANCH   5   9
BRANCH   7  19
HETATM   19  C   UNL     1     -12.145  12.086  70.221  1.00  0.00    -0.395 A  
HETATM   20  C   UNL     1     -12.063  13.477  70.426  1.00  0.00    -0.415 A  
HETATM   21  C   UNL     1     -13.566  11.985  72.209  1.00  0.00    -0.164 A  
HETATM   22  C   UNL     1     -13.507  13.368  72.362  1.00  0.00    -0.685 A  
HETATM   23  C   UNL     1     -12.916  11.353  71.135  1.00  0.00    -0.349 A  
HETATM   24  C   UNL     1     -12.762  14.116  71.461  1.00  0.00    -0.436 A  
ENDBRANCH   7  19
BRANCH   8  25
HETATM   25  C   UNL     1     -10.892   9.138  70.276  1.00  0.00    -0.282 A  
HETATM   26  C   UNL     1     -11.752   8.031  70.363  1.00  0.00    -0.001 A  
HETATM   27  C   UNL     1      -9.902   8.361  72.377  1.00  0.00    -0.378 A  
HETATM   28  C   UNL     1      -9.966   9.288  71.322  1.00  0.00    -0.341 A  
HETATM   29  F   UNL     1     -10.611   6.321  73.338  1.00  0.00    -0.214 F  
HETATM   30  C   UNL     1     -11.630   7.053  71.353  1.00  0.00    -0.329 A  
HETATM   31  C   UNL     1     -10.709   7.232  72.363  1.00  0.00    -0.246 A  
ENDBRANCH   8  25
BRANCH   6  32
HETATM   32  C   UNL     1      -9.774   8.588  67.469  1.00  0.00    -0.162 C  
BRANCH  32  33
HETATM   33  C   UNL     1      -8.287   8.513  67.860  1.00  0.00    -0.126 C  
BRANCH  33  34
HETATM   34  C   UNL     1      -7.774   7.081  68.117  1.00  0.00    -0.113 C  
HETATM   35  O   UNL     1      -6.357   6.977  67.980  1.00  0.00    -0.039 OA 
HETATM   36  H   UNL     1      -6.042   6.095  68.139  1.00  0.00     0.000 HD 
BRANCH  34  37
HETATM   37  C   UNL     1      -8.117   6.641  69.551  1.00  0.00    -0.126 C  
BRANCH  37  38
HETATM   38  C   UNL     1      -6.884   6.509  70.462  1.00  0.00    -0.062 C  
HETATM   39  H   UNL     1      -5.523   7.708  71.273  1.00  0.00     0.000 HD 
HETATM   40  O   UNL     1      -6.284   7.790  70.711  1.00  0.00    -0.034 OA 
BRANCH  38  41
HETATM   41  C   UNL     1      -7.279   5.926  71.818  1.00  0.00    -0.091 C  
HETATM   42  C   UNL     1      -7.708   4.479  71.742  1.00  0.00    -0.091 C  
HETATM   43  O   UNL     1      -6.973   3.718  70.903  1.00  0.00    -0.032 OA 
HETATM   44  O   UNL     1      -8.600   4.013  72.436  1.00  0.00    -0.100 OA 
ENDBRANCH  38  41
ENDBRANCH  37  38
ENDBRANCH  34  37
ENDBRANCH  33  34
ENDBRANCH  32  33
ENDBRANCH   6  32
TORSDOF 10
ENDMDL
MODEL       26
REMARK 921   NORMALIZED FREE ENERGY PREDICTED BY IDOCK:   -6.67 KCAL/MOL
REMARK 922        TOTAL FREE ENERGY PREDICTED BY IDOCK:  -13.31 KCAL/MOL
REMARK 923 INTER-LIGAND FREE ENERGY PREDICTED BY IDOCK:  -10.60 KCAL/MOL
REMARK 924 INTRA-LIGAND FREE ENERGY PREDICTED BY IDOCK:   -2.72 KCAL/MOL
REMARK 927      BINDING AFFINITY PREDICTED BY RF-SCORE:    0.00 PKD
ROOT
HETATM    1  C   UNL     1     -10.479   9.238  71.438  1.00  0.00    -0.408 C  
HETATM    2  C   UNL     1     -10.158   8.451  70.166  1.00  0.00    -0.193 C  
HETATM    3  C   UNL     1     -10.117   9.268  68.869  1.00  0.00    -0.195 A  
HETATM    4  C   UNL     1     -11.010   7.180  70.100  1.00  0.00    -0.293 C  
HETATM    5  C   UNL     1     -10.767  10.451  68.465  1.00  0.00    -0.255 A  
HETATM    6  N   UNL     1      -9.205   8.940  67.857  1.00  0.00    -0.138 NA 
HETATM    7  C   UNL     1     -10.047  10.946  67.285  1.00  0.00    -0.225 A  
HETATM    8  C   UNL     1      -9.137   9.951  66.882  1.00  0.00    -0.142 A  
ENDROOT
BRANCH   5   9
HETATM    9  C   UNL     1     -11.884  11.156  69.168  1.00  0.00    -0.350 C  
HETATM   10  O   UNL     1     -13.015  10.670  69.180  1.00  0.00     0.099 OA 
HETATM   11  N   UNL     1     -11.543  12.353  69.785  1.00  0.00    -0.469 N  
HETATM   12  H   UNL     1     -10.586  12.682  69.658  1.00  0.00     0.000 HD 
BRANCH  11  13
HETATM   13  C   UNL     1     -12.403  13.161  70.575  1.00  0.00    -0.304 A  
HETATM   14  C   UNL     1     -13.944  13.511  72.430  1.00  0.00    -0.638 A  
HETATM   15  C   UNL     1     -14.089  14.851  72.084  1.00  0.00    -0.616 A  
HETATM   16  C   UNL     1     -12.529  14.520  70.260  1.00  0.00    -0.405 A  
HETATM   17  C   UNL     1     -13.114  12.669  71.675  1.00  0.00    -0.421 A  
HETATM   18  C   UNL     1     -13.388  15.355  70.992  1.00  0.00    -0.545 A  
ENDBRANCH  11  13
ENDBRANCH   5   9
BRANCH   7  19
HETATM   19  C   UNL     1     -10.190  12.252  66.583  1.00  0.00    -0.235 A  
HETATM   20  C   UNL     1     -11.069  12.394  65.491  1.00  0.00    -0.338 A  
HETATM   21  C   UNL     1      -9.604  14.607  66.278  1.00  0.00    -0.333 A  
HETATM   22  C   UNL     1     -10.514  14.732  65.231  1.00  0.00    -0.427 A  
HETATM   23  C   UNL     1      -9.463  13.390  66.965  1.00  0.00    -0.247 A  
HETATM   24  C   UNL     1     -11.255  13.625  64.844  1.00  0.00    -0.349 A  
ENDBRANCH   7  19
BRANCH   8  25
HETATM   25  C   UNL     1      -8.262   9.868  65.656  1.00  0.00    -0.138 A  
HETATM   26  C   UNL     1      -6.960  10.395  65.634  1.00  0.00    -0.132 A  
HETATM   27  C   UNL     1      -7.874   9.172  63.340  1.00  0.00    -0.132 A  
HETATM   28  C   UNL     1      -8.706   9.261  64.470  1.00  0.00    -0.218 A  
HETATM   29  F   UNL     1      -5.753   9.487  62.347  1.00  0.00    -0.085 F  
HETATM   30  C   UNL     1      -6.093  10.224  64.551  1.00  0.00    -0.126 A  
HETATM   31  C   UNL     1      -6.563   9.621  63.403  1.00  0.00    -0.109 A  
ENDBRANCH   8  25
BRANCH   6  32
HETATM   32  C   UNL     1      -8.498   7.653  67.771  1.00  0.00    -0.122 C  
BRANCH  32  33
HETATM   33  C   UNL     1      -8.993   6.690  66.676  1.00  0.00    -0.150 C  
BRANCH  33  34
HETATM   34  C   UNL     1     -10.160   5.782  67.116  1.00  0.00    -0.181 C  
HETATM   35  O   UNL     1     -11.407   6.185  66.549  1.00  0.00    -0.745 OA 
HETATM   36  H   UNL     1     -12.125   5.625  66.819  1.00  0.00     0.000 HD 
BRANCH  34  37
HETATM   37  C   UNL     1      -9.910   4.334  66.660  1.00  0.00    -0.236 C  
BRANCH  37  38
HETATM   38  C   UNL     1      -9.176   3.480  67.709  1.00  0.00    -0.184 C  
HETATM   39  H   UNL     1      -7.305   2.957  68.126  1.00  0.00     0.000 HD 
HETATM   40  O   UNL     1      -7.758   3.484  67.480  1.00  0.00    -0.076 OA 
BRANCH  38  41
HETATM   41  C   UNL     1      -9.407   4.037  69.112  1.00  0.00    -0.236 C  
HETATM   42  C   UNL     1      -9.285   2.990  70.195  1.00  0.00    -0.144 C  
HETATM   43  O   UNL     1      -8.282   2.105  70.011  1.00  0.00    -0.041 OA 
HETATM   44  O   UNL     1      -9.986   2.985  71.197  1.00  0.00    -0.114 OA 
ENDBRANCH  38  41
ENDBRANCH  37  38
ENDBRANCH  34  37
ENDBRANCH  33  34
ENDBRANCH  32  33
ENDBRANCH   6  32
TORSDOF 10
ENDMDL
MODEL       27
REMARK 921   NORMALIZED FREE ENERGY PREDICTED BY IDOCK:   -6.59 KCAL/MOL
REMARK 922        TOTAL FREE ENERGY PREDICTED BY IDOCK:  -13.20 KCAL/MOL
REMARK 923 INTER-LIGAND FREE ENERGY PREDICTED BY IDOCK:  -11.14 KCAL/MOL
REMARK 924 INTRA-LIGAND FREE ENERGY PREDICTED BY IDOCK:   -2.06 KCAL/MOL
REMARK 927      BINDING AFFINITY PREDICTED BY RF-SCORE:    0.00 PKD
ROOT
HETATM    1  C   UNL     1     -12.663  13.836  65.445  1.00  0.00    -0.513 C  
HETATM    2  C   UNL     1     -11.429  12.950  65.263  1.00  0.00    -0.348 C  
HETATM    3  C   UNL     1     -11.120  11.993  66.422  1.00  0.00    -0.318 A  
HETATM    4  C   UNL     1     -10.241  13.789  64.787  1.00  0.00    -0.362 C  
HETATM    5  C   UNL     1     -11.382  12.051  67.804  1.00  0.00    -0.370 A  
HETATM    6  N   UNL     1     -10.576  10.726  66.164  1.00  0.00    -0.214 NA 
HETATM    7  C   UNL     1     -11.193  10.692  68.327  1.00  0.00    -0.362 A  
HETATM    8  C   UNL     1     -10.616   9.911  67.308  1.00  0.00    -0.252 A  
ENDROOT
BRANCH   5   9
HETATM    9  C   UNL     1     -11.891  13.224  68.581  1.00  0.00    -0.345 C  
HETATM   10  O   UNL     1     -12.387  14.188  67.996  1.00  0.00    -0.233 OA 
HETATM   11  N   UNL     1     -11.766  13.130  69.961  1.00  0.00    -0.502 N  
HETATM   12  H   UNL     1     -11.286  12.306  70.326  1.00  0.00     0.000 HD 
BRANCH  11  13
HETATM   13  C   UNL     1     -12.242  14.072  70.910  1.00  0.00    -0.362 A  
HETATM   14  C   UNL     1     -12.000  16.065  72.290  1.00  0.00    -0.633 A  
HETATM   15  C   UNL     1     -13.282  15.892  72.803  1.00  0.00    -0.590 A  
HETATM   16  C   UNL     1     -13.545  13.930  71.406  1.00  0.00    -0.287 A  
HETATM   17  C   UNL     1     -11.480  15.156  71.357  1.00  0.00    -0.405 A  
HETATM   18  C   UNL     1     -14.052  14.817  72.368  1.00  0.00    -0.548 A  
ENDBRANCH  11  13
ENDBRANCH   5   9
BRANCH   7  19
HETATM   19  C   UNL     1     -11.527  10.155  69.676  1.00  0.00    -0.256 A  
HETATM   20  C   UNL     1     -12.850  10.190  70.160  1.00  0.00     0.037 A  
HETATM   21  C   UNL     1     -10.891   9.115  71.797  1.00  0.00    -0.416 A  
HETATM   22  C   UNL     1     -12.214   9.120  72.232  1.00  0.00    -0.348 A  
HETATM   23  C   UNL     1     -10.554   9.602  70.522  1.00  0.00    -0.369 A  
HETATM   24  C   UNL     1     -13.196   9.649  71.408  1.00  0.00    -0.469 A  
ENDBRANCH   7  19
BRANCH   8  25
HETATM   25  C   UNL     1     -10.078   8.502  67.345  1.00  0.00    -0.298 A  
HETATM   26  C   UNL     1      -8.788   8.210  67.819  1.00  0.00    -0.130 A  
HETATM   27  C   UNL     1     -10.335   6.097  66.962  1.00  0.00    -0.295 A  
HETATM   28  C   UNL     1     -10.840   7.408  66.904  1.00  0.00    -0.223 A  
HETATM   29  F   UNL     1      -8.634   4.601  67.635  1.00  0.00    -0.103 F  
HETATM   30  C   UNL     1      -8.316   6.903  67.971  1.00  0.00    -0.121 A  
HETATM   31  C   UNL     1      -9.092   5.853  67.529  1.00  0.00    -0.106 A  
ENDBRANCH   8  25
BRANCH   6  32
HETATM   32  C   UNL     1      -9.944  10.345  64.892  1.00  0.00    -0.339 C  
BRANCH  32  33
HETATM   33  C   UNL     1      -8.415  10.521  64.827  1.00  0.00    -0.150 C  
BRANCH  33  34
HETATM   34  C   UNL     1      -7.708   9.534  63.875  1.00  0.00    -0.123 C  
HETATM   35  O   UNL     1      -6.366   9.926  63.583  1.00  0.00    -0.112 OA 
HETATM   36  H   UNL     1      -5.930   9.319  62.997  1.00  0.00     0.000 HD 
BRANCH  34  37
HETATM   37  C   UNL     1      -7.633   8.136  64.515  1.00  0.00    -0.113 C  
BRANCH  37  38
HETATM   38  C   UNL     1      -7.494   6.999  63.488  1.00  0.00    -0.099 C  
HETATM   39  H   UNL     1      -6.232   6.469  62.048  1.00  0.00     0.000 HD 
HETATM   40  O   UNL     1      -6.318   7.170  62.682  1.00  0.00    -0.051 OA 
BRANCH  38  41
HETATM   41  C   UNL     1      -7.363   5.651  64.195  1.00  0.00    -0.062 C  
HETATM   42  C   UNL     1      -8.421   4.656  63.780  1.00  0.00    -0.126 C  
HETATM   43  O   UNL     1      -8.716   4.666  62.462  1.00  0.00    -0.108 OA 
HETATM   44  O   UNL     1      -8.919   3.853  64.556  1.00  0.00    -0.121 OA 
ENDBRANCH  38  41
ENDBRANCH  37  38
ENDBRANCH  34  37
ENDBRANCH  33  34
ENDBRANCH  32  33
ENDBRANCH   6  32
TORSDOF 10
ENDMDL
MODEL       28
REMARK 921   NORMALIZED FREE ENERGY PREDICTED BY IDOCK:   -6.54 KCAL/MOL
REMARK 922        TOTAL FREE ENERGY PREDICTED BY IDOCK:  -13.11 KCAL/MOL
REMARK 923 INTER-LIGAND FREE ENERGY PREDICTED BY IDOCK:   -9.87 KCAL/MOL
REMARK 924 INTRA-LIGAND FREE ENERGY PREDICTED BY IDOCK:   -3.24 KCAL/MOL
REMARK 927      BINDING AFFINITY PREDICTED BY RF-SCORE:    0.00 PKD
ROOT
HETATM    1  C   UNL     1     -12.657  14.022  65.895  1.00  0.00    -0.484 C  
HETATM    2  C   UNL     1     -11.795  12.789  65.614  1.00  0.00    -0.472 C  
HETATM    3  C   UNL     1     -10.369  12.831  66.177  1.00  0.00    -0.269 A  
HETATM    4  C   UNL     1     -11.892  12.402  64.136  1.00  0.00    -0.492 C  
HETATM    5  C   UNL     1      -9.486  13.890  66.465  1.00  0.00    -0.288 A  
HETATM    6  N   UNL     1      -9.761  11.657  66.644  1.00  0.00    -0.198 NA 
HETATM    7  C   UNL     1      -8.434  13.339  67.329  1.00  0.00    -0.203 A  
HETATM    8  C   UNL     1      -8.583  11.940  67.356  1.00  0.00    -0.164 A  
ENDROOT
BRANCH   5   9
HETATM    9  C   UNL     1      -9.647  15.330  66.092  1.00  0.00    -0.321 C  
HETATM   10  O   UNL     1      -9.958  15.642  64.942  1.00  0.00    -0.331 OA 
HETATM   11  N   UNL     1      -9.431  16.243  67.116  1.00  0.00    -0.221 N  
HETATM   12  H   UNL     1      -9.123  15.866  68.013  1.00  0.00     0.000 HD 
BRANCH  11  13
HETATM   13  C   UNL     1      -9.598  17.650  67.031  1.00  0.00    -0.276 A  
HETATM   14  C   UNL     1     -10.881  19.699  67.334  1.00  0.00    -0.497 A  
HETATM   15  C   UNL     1      -9.832  20.457  66.822  1.00  0.00    -0.541 A  
HETATM   16  C   UNL     1      -8.536  18.428  66.552  1.00  0.00    -0.287 A  
HETATM   17  C   UNL     1     -10.768  18.304  67.430  1.00  0.00    -0.377 A  
HETATM   18  C   UNL     1      -8.661  19.820  66.422  1.00  0.00    -0.398 A  
ENDBRANCH  11  13
ENDBRANCH   5   9
BRANCH   7  19
HETATM   19  C   UNL     1      -7.367  14.061  68.078  1.00  0.00    -0.142 A  
HETATM   20  C   UNL     1      -7.511  14.339  69.452  1.00  0.00     0.026 A  
HETATM   21  C   UNL     1      -5.201  15.191  68.185  1.00  0.00    -0.119 A  
HETATM   22  C   UNL     1      -5.348  15.413  69.552  1.00  0.00    -0.099 A  
HETATM   23  C   UNL     1      -6.186  14.499  67.460  1.00  0.00     0.004 A  
HETATM   24  C   UNL     1      -6.501  14.976  70.188  1.00  0.00    -0.136 A  
ENDBRANCH   7  19
BRANCH   8  25
HETATM   25  C   UNL     1      -7.697  10.876  67.955  1.00  0.00    -0.101 A  
HETATM   26  C   UNL     1      -7.728  10.564  69.325  1.00  0.00    -0.144 A  
HETATM   27  C   UNL     1      -5.982   9.140  67.739  1.00  0.00    -0.049 A  
HETATM   28  C   UNL     1      -6.789  10.143  67.173  1.00  0.00    -0.082 A  
HETATM   29  F   UNL     1      -5.396   7.814  69.605  1.00  0.00    -0.022 F  
HETATM   30  C   UNL     1      -7.003   9.505  69.877  1.00  0.00    -0.078 A  
HETATM   31  C   UNL     1      -6.124   8.805  69.078  1.00  0.00    -0.043 A  
ENDBRANCH   8  25
BRANCH   6  32
HETATM   32  C   UNL     1     -10.237  10.301  66.328  1.00  0.00    -0.221 C  
BRANCH  32  33
HETATM   33  C   UNL     1     -10.857   9.521  67.501  1.00  0.00    -0.239 C  
BRANCH  33  34
HETATM   34  C   UNL     1     -10.723   7.989  67.380  1.00  0.00    -0.190 C  
HETATM   35  O   UNL     1     -10.101   7.592  66.158  1.00  0.00    -0.454 OA 
HETATM   36  H   UNL     1     -10.018   6.648  66.083  1.00  0.00     0.000 HD 
BRANCH  34  37
HETATM   37  C   UNL     1      -9.853   7.437  68.523  1.00  0.00    -0.164 C  
BRANCH  37  38
HETATM   38  C   UNL     1     -10.626   7.228  69.836  1.00  0.00    -0.231 C  
HETATM   39  H   UNL     1     -11.828   5.859  70.630  1.00  0.00     0.000 HD 
HETATM   40  O   UNL     1     -11.350   5.988  69.820  1.00  0.00    -0.409 OA 
BRANCH  38  41
HETATM   41  C   UNL     1      -9.665   7.173  71.022  1.00  0.00    -0.165 C  
HETATM   42  C   UNL     1      -9.880   8.291  72.015  1.00  0.00    -0.257 C  
HETATM   43  O   UNL     1     -11.175   8.594  72.250  1.00  0.00    -0.353 OA 
HETATM   44  O   UNL     1      -8.963   8.832  72.617  1.00  0.00    -0.380 OA 
ENDBRANCH  38  41
ENDBRANCH  37  38
ENDBRANCH  34  37
ENDBRANCH  33  34
ENDBRANCH  32  33
ENDBRANCH   6  32
TORSDOF 10
ENDMDL
MODEL       29
REMARK 921   NORMALIZED FREE ENERGY PREDICTED BY IDOCK:   -6.52 KCAL/MOL
REMARK 922        TOTAL FREE ENERGY PREDICTED BY IDOCK:  -13.08 KCAL/MOL
REMARK 923 INTER-LIGAND FREE ENERGY PREDICTED BY IDOCK:   -9.76 KCAL/MOL
REMARK 924 INTRA-LIGAND FREE ENERGY PREDICTED BY IDOCK:   -3.32 KCAL/MOL
REMARK 927      BINDING AFFINITY PREDICTED BY RF-SCORE:    0.00 PKD
ROOT
HETATM    1  C   UNL     1     -10.817   9.049  71.695  1.00  0.00    -0.437 C  
HETATM    2  C   UNL     1     -10.514   8.289  70.402  1.00  0.00    -0.223 C  
HETATM    3  C   UNL     1     -10.375   9.151  69.140  1.00  0.00    -0.212 A  
HETATM    4  C   UNL     1     -11.453   7.088  70.260  1.00  0.00    -0.333 C  
HETATM    5  C   UNL     1     -10.925  10.393  68.767  1.00  0.00    -0.287 A  
HETATM    6  N   UNL     1      -9.457   8.796  68.141  1.00  0.00    -0.139 NA 
HETATM    7  C   UNL     1     -10.134  10.879  67.628  1.00  0.00    -0.206 A  
HETATM    8  C   UNL     1      -9.287   9.836  67.211  1.00  0.00    -0.138 A  
ENDROOT
BRANCH   5   9
HETATM    9  C   UNL     1     -12.009  11.151  69.466  1.00  0.00    -0.355 C  
HETATM   10  O   UNL     1     -13.132  10.659  69.585  1.00  0.00    -0.052 OA 
HETATM   11  N   UNL     1     -11.648  12.400  69.954  1.00  0.00    -0.499 N  
HETATM   12  H   UNL     1     -10.703  12.723  69.745  1.00  0.00     0.000 HD 
BRANCH  11  13
HETATM   13  C   UNL     1     -12.472  13.269  70.717  1.00  0.00    -0.324 A  
HETATM   14  C   UNL     1     -13.975  13.751  72.573  1.00  0.00    -0.572 A  
HETATM   15  C   UNL     1     -14.085  15.078  72.167  1.00  0.00    -0.629 A  
HETATM   16  C   UNL     1     -12.563  14.615  70.340  1.00  0.00    -0.399 A  
HETATM   17  C   UNL     1     -13.180  12.851  71.848  1.00  0.00    -0.521 A  
HETATM   18  C   UNL     1     -13.386  15.509  71.043  1.00  0.00    -0.495 A  
ENDBRANCH  11  13
ENDBRANCH   5   9
BRANCH   7  19
HETATM   19  C   UNL     1     -10.161  12.218  66.976  1.00  0.00    -0.230 A  
HETATM   20  C   UNL     1      -9.183  13.187  67.274  1.00  0.00    -0.221 A  
HETATM   21  C   UNL     1     -11.166  13.854  65.460  1.00  0.00    -0.307 A  
HETATM   22  C   UNL     1     -10.160  14.777  65.737  1.00  0.00    -0.364 A  
HETATM   23  C   UNL     1     -11.152  12.579  66.051  1.00  0.00    -0.329 A  
HETATM   24  C   UNL     1      -9.161  14.438  66.639  1.00  0.00    -0.283 A  
ENDBRANCH   7  19
BRANCH   8  25
HETATM   25  C   UNL     1      -8.382   9.736  66.008  1.00  0.00    -0.123 A  
HETATM   26  C   UNL     1      -7.102  10.314  65.988  1.00  0.00    -0.128 A  
HETATM   27  C   UNL     1      -7.916   8.958  63.732  1.00  0.00    -0.154 A  
HETATM   28  C   UNL     1      -8.776   9.061  64.840  1.00  0.00    -0.200 A  
HETATM   29  F   UNL     1      -5.788   9.316  62.770  1.00  0.00    -0.087 F  
HETATM   30  C   UNL     1      -6.205  10.132  64.932  1.00  0.00    -0.125 A  
HETATM   31  C   UNL     1      -6.625   9.462  63.802  1.00  0.00    -0.095 A  
ENDBRANCH   8  25
BRANCH   6  32
HETATM   32  C   UNL     1      -8.842   7.465  68.023  1.00  0.00    -0.126 C  
BRANCH  32  33
HETATM   33  C   UNL     1      -7.456   7.309  68.674  1.00  0.00    -0.102 C  
BRANCH  33  34
HETATM   34  C   UNL     1      -7.322   6.067  69.580  1.00  0.00    -0.076 C  
HETATM   35  O   UNL     1      -5.999   5.530  69.575  1.00  0.00    -0.016 OA 
HETATM   36  H   UNL     1      -5.916   4.765  70.133  1.00  0.00     0.000 HD 
BRANCH  34  37
HETATM   37  C   UNL     1      -7.648   6.433  71.039  1.00  0.00    -0.090 C  
BRANCH  37  38
HETATM   38  C   UNL     1      -7.854   5.208  71.946  1.00  0.00    -0.110 C  
HETATM   39  H   UNL     1      -6.729   3.968  73.017  1.00  0.00     0.000 HD 
HETATM   40  O   UNL     1      -6.602   4.724  72.457  1.00  0.00    -0.043 OA 
BRANCH  38  41
HETATM   41  C   UNL     1      -8.721   5.572  73.151  1.00  0.00    -0.120 C  
HETATM   42  C   UNL     1     -10.161   5.142  72.998  1.00  0.00    -0.183 C  
HETATM   43  O   UNL     1     -10.330   3.930  72.427  1.00  0.00    -0.174 OA 
HETATM   44  O   UNL     1     -11.100   5.801  73.424  1.00  0.00    -0.254 OA 
ENDBRANCH  38  41
ENDBRANCH  37  38
ENDBRANCH  34  37
ENDBRANCH  33  34
ENDBRANCH  32  33
ENDBRANCH   6  32
TORSDOF 10
ENDMDL
MODEL       30
REMARK 921   NORMALIZED FREE ENERGY PREDICTED BY IDOCK:   -6.52 KCAL/MOL
REMARK 922        TOTAL FREE ENERGY PREDICTED BY IDOCK:  -13.08 KCAL/MOL
REMARK 923 INTER-LIGAND FREE ENERGY PREDICTED BY IDOCK:  -11.75 KCAL/MOL
REMARK 924 INTRA-LIGAND FREE ENERGY PREDICTED BY IDOCK:   -1.33 KCAL/MOL
REMARK 927      BINDING AFFINITY PREDICTED BY RF-SCORE:    0.00 PKD
ROOT
HETATM    1  C   UNL     1      -9.594  11.350  64.300  1.00  0.00    -0.214 C  
HETATM    2  C   UNL     1     -10.834  11.901  65.007  1.00  0.00    -0.351 C  
HETATM    3  C   UNL     1     -11.021  11.458  66.464  1.00  0.00    -0.272 A  
HETATM    4  C   UNL     1     -12.069  11.732  64.118  1.00  0.00    -0.311 C  
HETATM    5  C   UNL     1     -10.625  10.305  67.170  1.00  0.00    -0.320 A  
HETATM    6  N   UNL     1     -11.579  12.338  67.402  1.00  0.00    -0.385 NA 
HETATM    7  C   UNL     1     -10.753  10.621  68.598  1.00  0.00    -0.239 A  
HETATM    8  C   UNL     1     -11.421  11.854  68.712  1.00  0.00    -0.290 A  
ENDROOT
BRANCH   5   9
HETATM    9  C   UNL     1     -10.051   9.046  66.600  1.00  0.00    -0.285 C  
HETATM   10  O   UNL     1      -9.277   9.095  65.644  1.00  0.00    -0.210 OA 
HETATM   11  N   UNL     1     -10.446   7.870  67.224  1.00  0.00    -0.308 N  
HETATM   12  H   UNL     1     -11.136   7.953  67.972  1.00  0.00     0.000 HD 
BRANCH  11  13
HETATM   13  C   UNL     1      -9.980   6.564  66.920  1.00  0.00    -0.173 A  
HETATM   14  C   UNL     1     -10.232   4.353  65.929  1.00  0.00    -0.252 A  
HETATM   15  C   UNL     1      -8.961   3.990  66.363  1.00  0.00    -0.128 A  
HETATM   16  C   UNL     1      -8.687   6.200  67.319  1.00  0.00    -0.108 A  
HETATM   17  C   UNL     1     -10.742   5.629  66.214  1.00  0.00    -0.142 A  
HETATM   18  C   UNL     1      -8.190   4.911  67.067  1.00  0.00    -0.107 A  
ENDBRANCH  11  13
ENDBRANCH   5   9
BRANCH   7  19
HETATM   19  C   UNL     1     -10.284   9.835  69.774  1.00  0.00    -0.271 A  
HETATM   20  C   UNL     1      -8.913   9.752  70.088  1.00  0.00    -0.235 A  
HETATM   21  C   UNL     1     -10.704   8.395  71.706  1.00  0.00    -0.355 A  
HETATM   22  C   UNL     1      -9.348   8.368  72.022  1.00  0.00    -0.332 A  
HETATM   23  C   UNL     1     -11.172   9.143  70.612  1.00  0.00    -0.322 A  
HETATM   24  C   UNL     1      -8.453   9.057  71.216  1.00  0.00    -0.196 A  
ENDBRANCH   7  19
BRANCH   8  25
HETATM   25  C   UNL     1     -11.944  12.571  69.933  1.00  0.00    -0.371 A  
HETATM   26  C   UNL     1     -11.578  13.894  70.233  1.00  0.00    -0.217 A  
HETATM   27  C   UNL     1     -13.318  12.635  71.959  1.00  0.00    -0.555 A  
HETATM   28  C   UNL     1     -12.823  11.950  70.835  1.00  0.00    -0.220 A  
HETATM   29  F   UNL     1     -13.518  14.640  73.193  1.00  0.00    -0.531 F  
HETATM   30  C   UNL     1     -12.142  14.613  71.290  1.00  0.00    -0.410 A  
HETATM   31  C   UNL     1     -13.003  13.972  72.155  1.00  0.00    -0.369 A  
ENDBRANCH   8  25
BRANCH   6  32
HETATM   32  C   UNL     1     -12.330  13.551  67.048  1.00  0.00    -0.211 C  
BRANCH  32  33
HETATM   33  C   UNL     1     -11.513  14.672  66.379  1.00  0.00    -0.348 C  
BRANCH  33  34
HETATM   34  C   UNL     1     -10.096  14.852  66.960  1.00  0.00    -0.244 C  
HETATM   35  O   UNL     1      -9.083  14.785  65.956  1.00  0.00    -0.486 OA 
HETATM   36  H   UNL     1      -8.210  14.896  66.314  1.00  0.00     0.000 HD 
BRANCH  34  37
HETATM   37  C   UNL     1      -9.966  16.230  67.632  1.00  0.00    -0.247 C  
BRANCH  37  38
HETATM   38  C   UNL     1      -9.225  17.266  66.768  1.00  0.00    -0.255 C  
HETATM   39  H   UNL     1      -9.658  18.529  65.296  1.00  0.00     0.000 HD 
HETATM   40  O   UNL     1     -10.115  17.890  65.830  1.00  0.00    -0.563 OA 
BRANCH  38  41
HETATM   41  C   UNL     1      -8.641  18.374  67.642  1.00  0.00    -0.268 C  
HETATM   42  C   UNL     1      -7.193  18.676  67.332  1.00  0.00    -0.206 C  
HETATM   43  O   UNL     1      -6.885  18.663  66.017  1.00  0.00    -0.225 OA 
HETATM   44  O   UNL     1      -6.379  18.982  68.191  1.00  0.00    -0.213 OA 
ENDBRANCH  38  41
ENDBRANCH  37  38
ENDBRANCH  34  37
ENDBRANCH  33  34
ENDBRANCH  32  33
ENDBRANCH   6  32
TORSDOF 10
ENDMDL
MODEL       31
REMARK 921   NORMALIZED FREE ENERGY PREDICTED BY IDOCK:   -6.49 KCAL/MOL
REMARK 922        TOTAL FREE ENERGY PREDICTED BY IDOCK:  -13.04 KCAL/MOL
REMARK 923 INTER-LIGAND FREE ENERGY PREDICTED BY IDOCK:   -9.91 KCAL/MOL
REMARK 924 INTRA-LIGAND FREE ENERGY PREDICTED BY IDOCK:   -3.13 KCAL/MOL
REMARK 927      BINDING AFFINITY PREDICTED BY RF-SCORE:    0.00 PKD
ROOT
HETATM    1  C   UNL     1     -10.469   9.173  71.503  1.00  0.00    -0.422 C  
HETATM    2  C   UNL     1     -10.156   8.440  70.198  1.00  0.00    -0.193 C  
HETATM    3  C   UNL     1     -10.086   9.317  68.941  1.00  0.00    -0.195 A  
HETATM    4  C   UNL     1     -11.036   7.194  70.065  1.00  0.00    -0.287 C  
HETATM    5  C   UNL     1     -10.706  10.532  68.589  1.00  0.00    -0.247 A  
HETATM    6  N   UNL     1      -9.173   9.016  67.920  1.00  0.00    -0.140 NA 
HETATM    7  C   UNL     1      -9.965  11.066  67.439  1.00  0.00    -0.209 A  
HETATM    8  C   UNL     1      -9.075  10.070  66.996  1.00  0.00    -0.142 A  
ENDROOT
BRANCH   5   9
HETATM    9  C   UNL     1     -11.812  11.229  69.317  1.00  0.00    -0.354 C  
HETATM   10  O   UNL     1     -12.910  10.687  69.442  1.00  0.00    -0.144 OA 
HETATM   11  N   UNL     1     -11.500  12.484  69.823  1.00  0.00    -0.492 N  
HETATM   12  H   UNL     1     -10.573  12.852  69.608  1.00  0.00     0.000 HD 
BRANCH  11  13
HETATM   13  C   UNL     1     -12.350  13.302  70.613  1.00  0.00    -0.339 A  
HETATM   14  C   UNL     1     -13.490  15.399  71.104  1.00  0.00    -0.565 A  
HETATM   15  C   UNL     1     -14.055  14.847  72.250  1.00  0.00    -0.600 A  
HETATM   16  C   UNL     1     -12.954  12.748  71.749  1.00  0.00    -0.416 A  
HETATM   17  C   UNL     1     -12.636  14.633  70.296  1.00  0.00    -0.370 A  
HETATM   18  C   UNL     1     -13.780  13.523  72.579  1.00  0.00    -0.664 A  
ENDBRANCH  11  13
ENDBRANCH   5   9
BRANCH   7  19
HETATM   19  C   UNL     1     -10.073  12.407  66.799  1.00  0.00    -0.226 A  
HETATM   20  C   UNL     1     -11.099  12.686  65.874  1.00  0.00    -0.323 A  
HETATM   21  C   UNL     1      -9.281  14.694  66.449  1.00  0.00    -0.280 A  
HETATM   22  C   UNL     1     -10.332  14.958  65.573  1.00  0.00    -0.388 A  
HETATM   23  C   UNL     1      -9.168  13.442  67.077  1.00  0.00    -0.242 A  
HETATM   24  C   UNL     1     -11.248  13.954  65.294  1.00  0.00    -0.313 A  
ENDBRANCH   7  19
BRANCH   8  25
HETATM   25  C   UNL     1      -8.192  10.025  65.773  1.00  0.00    -0.130 A  
HETATM   26  C   UNL     1      -6.845  10.422  65.812  1.00  0.00    -0.132 A  
HETATM   27  C   UNL     1      -7.836   9.529  63.401  1.00  0.00    -0.132 A  
HETATM   28  C   UNL     1      -8.674   9.585  64.529  1.00  0.00    -0.232 A  
HETATM   29  F   UNL     1      -5.679   9.734  62.459  1.00  0.00    -0.087 F  
HETATM   30  C   UNL     1      -5.981  10.277  64.723  1.00  0.00    -0.132 A  
HETATM   31  C   UNL     1      -6.489   9.840  63.518  1.00  0.00    -0.117 A  
ENDBRANCH   8  25
BRANCH   6  32
HETATM   32  C   UNL     1      -8.495   7.719  67.778  1.00  0.00    -0.121 C  
BRANCH  32  33
HETATM   33  C   UNL     1      -7.111   7.611  68.445  1.00  0.00    -0.081 C  
BRANCH  33  34
HETATM   34  C   UNL     1      -6.867   6.276  69.178  1.00  0.00    -0.062 C  
HETATM   35  O   UNL     1      -6.555   6.462  70.558  1.00  0.00    -0.042 OA 
HETATM   36  H   UNL     1      -6.404   5.639  71.010  1.00  0.00     0.000 HD 
BRANCH  34  37
HETATM   37  C   UNL     1      -8.129   5.397  69.121  1.00  0.00    -0.094 C  
BRANCH  37  38
HETATM   38  C   UNL     1      -7.985   4.175  68.197  1.00  0.00    -0.081 C  
HETATM   39  H   UNL     1      -7.339   2.301  68.334  1.00  0.00     0.000 HD 
HETATM   40  O   UNL     1      -7.428   3.055  68.904  1.00  0.00    -0.048 OA 
BRANCH  38  41
HETATM   41  C   UNL     1      -9.349   3.740  67.665  1.00  0.00    -0.240 C  
HETATM   42  C   UNL     1      -9.709   4.390  66.350  1.00  0.00    -0.215 C  
HETATM   43  O   UNL     1      -8.684   4.501  65.478  1.00  0.00    -0.120 OA 
HETATM   44  O   UNL     1     -10.851   4.722  66.063  1.00  0.00    -0.287 OA 
ENDBRANCH  38  41
ENDBRANCH  37  38
ENDBRANCH  34  37
ENDBRANCH  33  34
ENDBRANCH  32  33
ENDBRANCH   6  32
TORSDOF 10
ENDMDL
MODEL       32
REMARK 921   NORMALIZED FREE ENERGY PREDICTED BY IDOCK:   -6.46 KCAL/MOL
REMARK 922        TOTAL FREE ENERGY PREDICTED BY IDOCK:  -12.99 KCAL/MOL
REMARK 923 INTER-LIGAND FREE ENERGY PREDICTED BY IDOCK:  -10.00 KCAL/MOL
REMARK 924 INTRA-LIGAND FREE ENERGY PREDICTED BY IDOCK:   -2.99 KCAL/MOL
REMARK 927      BINDING AFFINITY PREDICTED BY RF-SCORE:    0.00 PKD
ROOT
HETATM    1  C   UNL     1      -5.792  14.508  68.289  1.00  0.00    -0.117 C  
HETATM    2  C   UNL     1      -6.136  13.083  68.727  1.00  0.00    -0.075 C  
HETATM    3  C   UNL     1      -7.340  12.443  68.024  1.00  0.00    -0.108 A  
HETATM    4  C   UNL     1      -6.158  12.990  70.255  1.00  0.00    -0.071 C  
HETATM    5  C   UNL     1      -8.501  12.983  67.438  1.00  0.00    -0.200 A  
HETATM    6  N   UNL     1      -7.347  11.068  67.748  1.00  0.00    -0.091 NA 
HETATM    7  C   UNL     1      -9.083  11.924  66.602  1.00  0.00    -0.203 A  
HETATM    8  C   UNL     1      -8.395  10.727  66.877  1.00  0.00    -0.132 A  
ENDROOT
BRANCH   5   9
HETATM    9  C   UNL     1      -8.987  14.395  67.523  1.00  0.00    -0.190 C  
HETATM   10  O   UNL     1      -9.608  14.779  68.514  1.00  0.00    -0.205 OA 
HETATM   11  N   UNL     1      -8.680  15.202  66.435  1.00  0.00    -0.446 N  
HETATM   12  H   UNL     1      -8.209  14.756  65.647  1.00  0.00     0.000 HD 
BRANCH  11  13
HETATM   13  C   UNL     1      -8.962  16.588  66.316  1.00  0.00    -0.324 A  
HETATM   14  C   UNL     1     -10.472  18.469  65.972  1.00  0.00    -0.433 A  
HETATM   15  C   UNL     1      -9.417  19.367  66.096  1.00  0.00    -0.361 A  
HETATM   16  C   UNL     1      -7.914  17.505  66.476  1.00  0.00    -0.309 A  
HETATM   17  C   UNL     1     -10.244  17.088  66.072  1.00  0.00    -0.337 A  
HETATM   18  C   UNL     1      -8.134  18.884  66.339  1.00  0.00    -0.306 A  
ENDBRANCH  11  13
ENDBRANCH   5   9
BRANCH   7  19
HETATM   19  C   UNL     1     -10.196  12.017  65.617  1.00  0.00    -0.284 A  
HETATM   20  C   UNL     1     -11.475  12.457  66.010  1.00  0.00    -0.431 A  
HETATM   21  C   UNL     1     -11.100  11.752  63.359  1.00  0.00    -0.448 A  
HETATM   22  C   UNL     1     -12.341  12.234  63.764  1.00  0.00    -0.637 A  
HETATM   23  C   UNL     1     -10.030  11.670  64.267  1.00  0.00    -0.303 A  
HETATM   24  C   UNL     1     -12.526  12.597  65.091  1.00  0.00    -0.531 A  
ENDBRANCH   7  19
BRANCH   8  25
HETATM   25  C   UNL     1      -8.672   9.316  66.420  1.00  0.00    -0.148 A  
HETATM   26  C   UNL     1      -7.859   8.665  65.478  1.00  0.00    -0.099 A  
HETATM   27  C   UNL     1      -9.999   7.259  66.495  1.00  0.00    -0.182 A  
HETATM   28  C   UNL     1      -9.763   8.580  66.913  1.00  0.00    -0.286 A  
HETATM   29  F   UNL     1      -9.303   5.355  65.282  1.00  0.00    -0.156 F  
HETATM   30  C   UNL     1      -8.029   7.321  65.132  1.00  0.00    -0.128 A  
HETATM   31  C   UNL     1      -9.109   6.629  65.637  1.00  0.00     0.110 A  
ENDBRANCH   8  25
BRANCH   6  32
HETATM   32  C   UNL     1      -6.441  10.097  68.381  1.00  0.00    -0.053 C  
BRANCH  32  33
HETATM   33  C   UNL     1      -7.117   8.863  69.007  1.00  0.00    -0.064 C  
BRANCH  33  34
HETATM   34  C   UNL     1      -7.708   9.112  70.410  1.00  0.00    -0.127 C  
HETATM   35  O   UNL     1      -6.849   9.905  71.230  1.00  0.00    -0.331 OA 
HETATM   36  H   UNL     1      -7.213  10.059  72.094  1.00  0.00     0.000 HD 
BRANCH  34  37
HETATM   37  C   UNL     1      -9.043   9.870  70.300  1.00  0.00    -0.108 C  
BRANCH  37  38
HETATM   38  C   UNL     1     -10.276   8.969  70.487  1.00  0.00    -0.219 C  
HETATM   39  H   UNL     1     -10.740   7.299  71.460  1.00  0.00     0.000 HD 
HETATM   40  O   UNL     1      -9.979   7.855  71.345  1.00  0.00    -0.170 OA 
BRANCH  38  41
HETATM   41  C   UNL     1     -11.416   9.748  71.141  1.00  0.00    -0.472 C  
HETATM   42  C   UNL     1     -11.913  10.897  70.295  1.00  0.00    -0.361 C  
HETATM   43  O   UNL     1     -11.990  10.630  68.974  1.00  0.00    -0.287 OA 
HETATM   44  O   UNL     1     -12.286  11.960  70.770  1.00  0.00    -0.374 OA 
ENDBRANCH  38  41
ENDBRANCH  37  38
ENDBRANCH  34  37
ENDBRANCH  33  34
ENDBRANCH  32  33
ENDBRANCH   6  32
TORSDOF 10
ENDMDL
MODEL       33
REMARK 921   NORMALIZED FREE ENERGY PREDICTED BY IDOCK:   -6.44 KCAL/MOL
REMARK 922        TOTAL FREE ENERGY PREDICTED BY IDOCK:  -12.96 KCAL/MOL
REMARK 923 INTER-LIGAND FREE ENERGY PREDICTED BY IDOCK:   -9.71 KCAL/MOL
REMARK 924 INTRA-LIGAND FREE ENERGY PREDICTED BY IDOCK:   -3.25 KCAL/MOL
REMARK 927      BINDING AFFINITY PREDICTED BY RF-SCORE:    0.00 PKD
ROOT
HETATM    1  C   UNL     1     -11.902  12.322  66.212  1.00  0.00    -0.387 C  
HETATM    2  C   UNL     1     -10.414  11.994  66.347  1.00  0.00    -0.267 C  
HETATM    3  C   UNL     1     -10.052  10.980  67.439  1.00  0.00    -0.186 A  
HETATM    4  C   UNL     1      -9.587  13.283  66.366  1.00  0.00    -0.260 C  
HETATM    5  C   UNL     1     -10.659  10.636  68.663  1.00  0.00    -0.229 A  
HETATM    6  N   UNL     1      -8.997  10.078  67.243  1.00  0.00    -0.135 NA 
HETATM    7  C   UNL     1     -10.078   9.353  69.077  1.00  0.00    -0.202 A  
HETATM    8  C   UNL     1      -8.995   9.071  68.224  1.00  0.00    -0.133 A  
ENDROOT
BRANCH   5   9
HETATM    9  C   UNL     1     -11.779  11.352  69.350  1.00  0.00    -0.338 C  
HETATM   10  O   UNL     1     -12.905  10.855  69.383  1.00  0.00    -0.201 OA 
HETATM   11  N   UNL     1     -11.447  12.570  69.929  1.00  0.00    -0.515 N  
HETATM   12  H   UNL     1     -10.494  12.904  69.787  1.00  0.00     0.000 HD 
BRANCH  11  13
HETATM   13  C   UNL     1     -12.311  13.393  70.699  1.00  0.00    -0.348 A  
HETATM   14  C   UNL     1     -13.349  15.529  71.243  1.00  0.00    -0.588 A  
HETATM   15  C   UNL     1     -14.054  14.944  72.290  1.00  0.00    -0.600 A  
HETATM   16  C   UNL     1     -13.055  12.808  71.732  1.00  0.00    -0.455 A  
HETATM   17  C   UNL     1     -12.476  14.760  70.458  1.00  0.00    -0.411 A  
HETATM   18  C   UNL     1     -13.900  13.583  72.541  1.00  0.00    -0.624 A  
ENDBRANCH  11  13
ENDBRANCH   5   9
BRANCH   7  19
HETATM   19  C   UNL     1     -10.500   8.450  70.185  1.00  0.00    -0.230 A  
HETATM   20  C   UNL     1     -11.026   7.172  69.915  1.00  0.00    -0.278 A  
HETATM   21  C   UNL     1     -10.820   7.963  72.560  1.00  0.00    -0.403 A  
HETATM   22  C   UNL     1     -11.293   6.687  72.268  1.00  0.00    -0.311 A  
HETATM   23  C   UNL     1     -10.401   8.826  71.533  1.00  0.00    -0.374 A  
HETATM   24  C   UNL     1     -11.387   6.287  70.942  1.00  0.00    -0.389 A  
ENDBRANCH   7  19
BRANCH   8  25
HETATM   25  C   UNL     1      -7.962   7.973  68.288  1.00  0.00    -0.128 A  
HETATM   26  C   UNL     1      -6.844   8.051  69.135  1.00  0.00    -0.052 A  
HETATM   27  C   UNL     1      -7.106   5.789  67.583  1.00  0.00    -0.074 A  
HETATM   28  C   UNL     1      -8.065   6.815  67.500  1.00  0.00    -0.115 A  
HETATM   29  F   UNL     1      -5.194   4.873  68.625  1.00  0.00    -0.003 F  
HETATM   30  C   UNL     1      -5.942   6.996  69.296  1.00  0.00    -0.019 A  
HETATM   31  C   UNL     1      -6.074   5.873  68.507  1.00  0.00    -0.024 A  
ENDBRANCH   8  25
BRANCH   6  32
HETATM   32  C   UNL     1      -7.961  10.234  66.210  1.00  0.00    -0.124 C  
BRANCH  32  33
HETATM   33  C   UNL     1      -6.637  10.863  66.680  1.00  0.00    -0.120 C  
BRANCH  33  34
HETATM   34  C   UNL     1      -6.805  11.946  67.766  1.00  0.00    -0.094 C  
HETATM   35  O   UNL     1      -6.636  11.426  69.085  1.00  0.00    -0.077 OA 
HETATM   36  H   UNL     1      -6.739  12.093  69.753  1.00  0.00     0.000 HD 
BRANCH  34  37
HETATM   37  C   UNL     1      -5.750  13.052  67.585  1.00  0.00    -0.118 C  
BRANCH  37  38
HETATM   38  C   UNL     1      -6.041  14.319  68.407  1.00  0.00    -0.102 C  
HETATM   39  H   UNL     1      -5.764  14.956  70.269  1.00  0.00     0.000 HD 
HETATM   40  O   UNL     1      -5.583  14.175  69.761  1.00  0.00    -0.093 OA 
BRANCH  38  41
HETATM   41  C   UNL     1      -5.316  15.524  67.812  1.00  0.00    -0.118 C  
HETATM   42  C   UNL     1      -6.245  16.505  67.138  1.00  0.00    -0.177 C  
HETATM   43  O   UNL     1      -7.412  16.712  67.786  1.00  0.00    -0.148 OA 
HETATM   44  O   UNL     1      -5.942  17.122  66.126  1.00  0.00    -0.261 OA 
ENDBRANCH  38  41
ENDBRANCH  37  38
ENDBRANCH  34  37
ENDBRANCH  33  34
ENDBRANCH  32  33
ENDBRANCH   6  32
TORSDOF 10
ENDMDL
MODEL       34
REMARK 921   NORMALIZED FREE ENERGY PREDICTED BY IDOCK:   -6.41 KCAL/MOL
REMARK 922        TOTAL FREE ENERGY PREDICTED BY IDOCK:  -12.91 KCAL/MOL
REMARK 923 INTER-LIGAND FREE ENERGY PREDICTED BY IDOCK:   -9.58 KCAL/MOL
REMARK 924 INTRA-LIGAND FREE ENERGY PREDICTED BY IDOCK:   -3.32 KCAL/MOL
REMARK 927      BINDING AFFINITY PREDICTED BY RF-SCORE:    0.00 PKD
ROOT
HETATM    1  C   UNL     1     -11.024  12.482  66.334  1.00  0.00    -0.309 C  
HETATM    2  C   UNL     1      -9.606  12.101  66.763  1.00  0.00    -0.216 C  
HETATM    3  C   UNL     1      -9.506  11.030  67.856  1.00  0.00    -0.165 A  
HETATM    4  C   UNL     1      -8.774  13.361  67.019  1.00  0.00    -0.195 C  
HETATM    5  C   UNL     1     -10.366  10.653  68.906  1.00  0.00    -0.225 A  
HETATM    6  N   UNL     1      -8.453  10.104  67.842  1.00  0.00    -0.117 NA 
HETATM    7  C   UNL     1      -9.914   9.335  69.370  1.00  0.00    -0.184 A  
HETATM    8  C   UNL     1      -8.682   9.056  68.751  1.00  0.00    -0.136 A  
ENDROOT
BRANCH   5   9
HETATM    9  C   UNL     1     -11.590  11.374  69.377  1.00  0.00    -0.323 C  
HETATM   10  O   UNL     1     -12.709  10.974  69.052  1.00  0.00    -0.260 OA 
HETATM   11  N   UNL     1     -11.362  12.480  70.184  1.00  0.00    -0.471 N  
HETATM   12  H   UNL     1     -10.389  12.747  70.338  1.00  0.00     0.000 HD 
BRANCH  11  13
HETATM   13  C   UNL     1     -12.355  13.276  70.814  1.00  0.00    -0.344 A  
HETATM   14  C   UNL     1     -14.145  13.623  72.430  1.00  0.00    -0.586 A  
HETATM   15  C   UNL     1     -14.302  14.939  72.005  1.00  0.00    -0.651 A  
HETATM   16  C   UNL     1     -12.498  14.613  70.421  1.00  0.00    -0.410 A  
HETATM   17  C   UNL     1     -13.184  12.794  71.832  1.00  0.00    -0.511 A  
HETATM   18  C   UNL     1     -13.484  15.432  70.992  1.00  0.00    -0.510 A  
ENDBRANCH  11  13
ENDBRANCH   5   9
BRANCH   7  19
HETATM   19  C   UNL     1     -10.581   8.400  70.319  1.00  0.00    -0.234 A  
HETATM   20  C   UNL     1     -10.844   8.784  71.648  1.00  0.00    -0.399 A  
HETATM   21  C   UNL     1     -11.581   6.234  70.860  1.00  0.00    -0.338 A  
HETATM   22  C   UNL     1     -11.872   6.656  72.155  1.00  0.00    -0.337 A  
HETATM   23  C   UNL     1     -10.968   7.105  69.943  1.00  0.00    -0.278 A  
HETATM   24  C   UNL     1     -11.512   7.938  72.546  1.00  0.00    -0.455 A  
ENDBRANCH   7  19
BRANCH   8  25
HETATM   25  C   UNL     1      -7.710   7.924  68.977  1.00  0.00    -0.101 A  
HETATM   26  C   UNL     1      -6.767   7.948  70.018  1.00  0.00    -0.041 A  
HETATM   27  C   UNL     1      -6.800   5.728  68.387  1.00  0.00    -0.063 A  
HETATM   28  C   UNL     1      -7.697   6.786  68.154  1.00  0.00    -0.109 A  
HETATM   29  F   UNL     1      -5.142   4.730  69.742  1.00  0.00     0.000 F  
HETATM   30  C   UNL     1      -5.941   6.862  70.317  1.00  0.00    -0.024 A  
HETATM   31  C   UNL     1      -5.956   5.760  69.488  1.00  0.00    -0.024 A  
ENDBRANCH   8  25
BRANCH   6  32
HETATM   32  C   UNL     1      -7.220  10.271  67.059  1.00  0.00    -0.091 C  
BRANCH  32  33
HETATM   33  C   UNL     1      -7.364  10.090  65.537  1.00  0.00    -0.137 C  
BRANCH  33  34
HETATM   34  C   UNL     1      -8.162   8.836  65.125  1.00  0.00    -0.148 C  
HETATM   35  O   UNL     1      -9.569   9.003  65.302  1.00  0.00    -0.457 OA 
HETATM   36  H   UNL     1     -10.061   8.231  65.048  1.00  0.00     0.000 HD 
BRANCH  34  37
HETATM   37  C   UNL     1      -7.935   8.525  63.634  1.00  0.00    -0.161 C  
BRANCH  37  38
HETATM   38  C   UNL     1      -7.309   7.142  63.386  1.00  0.00    -0.082 C  
HETATM   39  H   UNL     1      -5.489   6.371  63.179  1.00  0.00     0.000 HD 
HETATM   40  O   UNL     1      -5.875   7.224  63.333  1.00  0.00    -0.040 OA 
BRANCH  38  41
HETATM   41  C   UNL     1      -7.663   6.180  64.519  1.00  0.00    -0.105 C  
HETATM   42  C   UNL     1      -8.335   4.916  64.038  1.00  0.00    -0.131 C  
HETATM   43  O   UNL     1      -7.823   4.405  62.897  1.00  0.00    -0.064 OA 
HETATM   44  O   UNL     1      -9.222   4.354  64.665  1.00  0.00    -0.150 OA 
ENDBRANCH  38  41
ENDBRANCH  37  38
ENDBRANCH  34  37
ENDBRANCH  33  34
ENDBRANCH  32  33
ENDBRANCH   6  32
TORSDOF 10
ENDMDL
MODEL       35
REMARK 921   NORMALIZED FREE ENERGY PREDICTED BY IDOCK:   -6.38 KCAL/MOL
REMARK 922        TOTAL FREE ENERGY PREDICTED BY IDOCK:  -12.86 KCAL/MOL
REMARK 923 INTER-LIGAND FREE ENERGY PREDICTED BY IDOCK:   -9.66 KCAL/MOL
REMARK 924 INTRA-LIGAND FREE ENERGY PREDICTED BY IDOCK:   -3.19 KCAL/MOL
REMARK 927      BINDING AFFINITY PREDICTED BY RF-SCORE:    0.00 PKD
ROOT
HETATM    1  C   UNL     1      -5.752   9.200  71.689  1.00  0.00    -0.068 C  
HETATM    2  C   UNL     1      -6.222   9.564  70.279  1.00  0.00    -0.061 C  
HETATM    3  C   UNL     1      -7.741   9.616  70.076  1.00  0.00    -0.157 A  
HETATM    4  C   UNL     1      -5.462   8.737  69.238  1.00  0.00    -0.035 C  
HETATM    5  C   UNL     1      -8.812   8.953  70.706  1.00  0.00    -0.250 A  
HETATM    6  N   UNL     1      -8.304  10.557  69.201  1.00  0.00    -0.153 NA 
HETATM    7  C   UNL     1     -10.033   9.690  70.350  1.00  0.00    -0.330 A  
HETATM    8  C   UNL     1      -9.699  10.626  69.354  1.00  0.00    -0.116 A  
ENDROOT
BRANCH   5   9
HETATM    9  C   UNL     1      -8.730   7.808  71.666  1.00  0.00    -0.118 C  
HETATM   10  O   UNL     1      -8.813   8.008  72.878  1.00  0.00    -0.177 OA 
HETATM   11  N   UNL     1      -8.568   6.555  71.091  1.00  0.00    -0.130 N  
HETATM   12  H   UNL     1      -8.457   6.521  70.077  1.00  0.00     0.000 HD 
BRANCH  11  13
HETATM   13  C   UNL     1      -8.543   5.315  71.782  1.00  0.00    -0.130 A  
HETATM   14  C   UNL     1      -7.486   3.667  73.232  1.00  0.00    -0.061 A  
HETATM   15  C   UNL     1      -8.591   2.828  73.120  1.00  0.00    -0.079 A  
HETATM   16  C   UNL     1      -9.664   4.478  71.708  1.00  0.00    -0.235 A  
HETATM   17  C   UNL     1      -7.459   4.898  72.560  1.00  0.00    -0.090 A  
HETATM   18  C   UNL     1      -9.678   3.230  72.349  1.00  0.00    -0.214 A  
ENDBRANCH  11  13
ENDBRANCH   5   9
BRANCH   7  19
HETATM   19  C   UNL     1     -11.409   9.537  70.898  1.00  0.00    -0.410 A  
HETATM   20  C   UNL     1     -12.008   8.266  71.005  1.00  0.00    -0.260 A  
HETATM   21  C   UNL     1     -13.474  10.468  71.821  1.00  0.00    -0.345 A  
HETATM   22  C   UNL     1     -14.024   9.196  71.960  1.00  0.00    -0.434 A  
HETATM   23  C   UNL     1     -12.171  10.636  71.322  1.00  0.00    -0.447 A  
HETATM   24  C   UNL     1     -13.284   8.092  71.560  1.00  0.00    -0.310 A  
ENDBRANCH   7  19
BRANCH   8  25
HETATM   25  C   UNL     1     -10.583  11.530  68.529  1.00  0.00    -0.236 A  
HETATM   26  C   UNL     1     -10.969  12.804  68.976  1.00  0.00    -0.241 A  
HETATM   27  C   UNL     1     -11.875  11.998  66.502  1.00  0.00    -0.237 A  
HETATM   28  C   UNL     1     -11.068  11.140  67.270  1.00  0.00    -0.366 A  
HETATM   29  F   UNL     1     -12.867  14.121  66.193  1.00  0.00    -0.496 F  
HETATM   30  C   UNL     1     -11.687  13.700  68.179  1.00  0.00    -0.392 A  
HETATM   31  C   UNL     1     -12.146  13.284  66.948  1.00  0.00    -0.332 A  
ENDBRANCH   8  25
BRANCH   6  32
HETATM   32  C   UNL     1      -7.541  11.290  68.179  1.00  0.00    -0.105 C  
BRANCH  32  33
HETATM   33  C   UNL     1      -7.138  12.729  68.550  1.00  0.00    -0.101 C  
BRANCH  33  34
HETATM   34  C   UNL     1      -7.206  13.725  67.374  1.00  0.00    -0.089 C  
HETATM   35  O   UNL     1      -8.421  13.611  66.633  1.00  0.00    -0.437 OA 
HETATM   36  H   UNL     1      -8.463  14.225  65.909  1.00  0.00     0.000 HD 
BRANCH  34  37
HETATM   37  C   UNL     1      -7.136  15.171  67.895  1.00  0.00    -0.161 C  
BRANCH  37  38
HETATM   38  C   UNL     1      -8.517  15.788  68.179  1.00  0.00    -0.162 C  
HETATM   39  H   UNL     1      -9.689  16.100  69.753  1.00  0.00     0.000 HD 
HETATM   40  O   UNL     1      -8.837  15.720  69.578  1.00  0.00    -0.258 OA 
BRANCH  38  41
HETATM   41  C   UNL     1      -8.537  17.263  67.784  1.00  0.00    -0.225 C  
HETATM   42  C   UNL     1      -8.518  17.479  66.289  1.00  0.00    -0.212 C  
HETATM   43  O   UNL     1      -9.279  16.613  65.585  1.00  0.00    -0.491 OA 
HETATM   44  O   UNL     1      -7.922  18.406  65.758  1.00  0.00    -0.509 OA 
ENDBRANCH  38  41
ENDBRANCH  37  38
ENDBRANCH  34  37
ENDBRANCH  33  34
ENDBRANCH  32  33
ENDBRANCH   6  32
TORSDOF 10
ENDMDL
MODEL       36
REMARK 921   NORMALIZED FREE ENERGY PREDICTED BY IDOCK:   -6.37 KCAL/MOL
REMARK 922        TOTAL FREE ENERGY PREDICTED BY IDOCK:  -12.84 KCAL/MOL
REMARK 923 INTER-LIGAND FREE ENERGY PREDICTED BY IDOCK:  -11.20 KCAL/MOL
REMARK 924 INTRA-LIGAND FREE ENERGY PREDICTED BY IDOCK:   -1.64 KCAL/MOL
REMARK 927      BINDING AFFINITY PREDICTED BY RF-SCORE:    0.00 PKD
ROOT
HETATM    1  C   UNL     1     -11.154  11.329  64.658  1.00  0.00    -0.223 C  
HETATM    2  C   UNL     1     -10.252  10.570  65.633  1.00  0.00    -0.315 C  
HETATM    3  C   UNL     1     -10.509  10.836  67.122  1.00  0.00    -0.237 A  
HETATM    4  C   UNL     1      -8.788  10.688  65.202  1.00  0.00    -0.207 C  
HETATM    5  C   UNL     1     -11.023  11.947  67.819  1.00  0.00    -0.278 A  
HETATM    6  N   UNL     1     -10.351   9.806  68.060  1.00  0.00    -0.194 NA 
HETATM    7  C   UNL     1     -11.385  11.472  69.161  1.00  0.00    -0.351 A  
HETATM    8  C   UNL     1     -10.884  10.166  69.310  1.00  0.00    -0.235 A  
ENDROOT
BRANCH   5   9
HETATM    9  C   UNL     1     -11.287  13.315  67.274  1.00  0.00    -0.314 C  
HETATM   10  O   UNL     1     -12.397  13.600  66.824  1.00  0.00    -0.387 OA 
HETATM   11  N   UNL     1     -10.217  14.198  67.327  1.00  0.00    -0.254 N  
HETATM   12  H   UNL     1      -9.330  13.830  67.671  1.00  0.00     0.000 HD 
BRANCH  11  13
HETATM   13  C   UNL     1     -10.242  15.566  66.946  1.00  0.00    -0.279 A  
HETATM   14  C   UNL     1      -9.883  17.938  67.372  1.00  0.00    -0.305 A  
HETATM   15  C   UNL     1     -10.329  18.257  66.093  1.00  0.00    -0.414 A  
HETATM   16  C   UNL     1     -10.655  15.898  65.649  1.00  0.00    -0.393 A  
HETATM   17  C   UNL     1      -9.848  16.602  67.798  1.00  0.00    -0.252 A  
HETATM   18  C   UNL     1     -10.725  17.236  65.233  1.00  0.00    -0.019 A  
ENDBRANCH  11  13
ENDBRANCH   5   9
BRANCH   7  19
HETATM   19  C   UNL     1     -12.146  12.180  70.228  1.00  0.00    -0.385 A  
HETATM   20  C   UNL     1     -12.867  11.460  71.201  1.00  0.00    -0.440 A  
HETATM   21  C   UNL     1     -12.925  14.226  71.320  1.00  0.00    -0.422 A  
HETATM   22  C   UNL     1     -13.591  13.490  72.297  1.00  0.00    -0.690 A  
HETATM   23  C   UNL     1     -12.187  13.580  70.313  1.00  0.00    -0.417 A  
HETATM   24  C   UNL     1     -13.553  12.104  72.242  1.00  0.00    -0.226 A  
ENDBRANCH   7  19
BRANCH   8  25
HETATM   25  C   UNL     1     -10.837   9.271  70.524  1.00  0.00    -0.318 A  
HETATM   26  C   UNL     1      -9.700   9.189  71.345  1.00  0.00    -0.338 A  
HETATM   27  C   UNL     1     -11.881   7.656  72.039  1.00  0.00    -0.342 A  
HETATM   28  C   UNL     1     -11.930   8.470  70.895  1.00  0.00    -0.204 A  
HETATM   29  F   UNL     1     -10.745   6.953  73.988  1.00  0.00    -0.379 F  
HETATM   30  C   UNL     1      -9.678   8.459  72.536  1.00  0.00    -0.359 A  
HETATM   31  C   UNL     1     -10.770   7.686  72.870  1.00  0.00    -0.371 A  
ENDBRANCH   8  25
BRANCH   6  32
HETATM   32  C   UNL     1      -9.619   8.557  67.796  1.00  0.00    -0.156 C  
BRANCH  32  33
HETATM   33  C   UNL     1     -10.485   7.292  67.656  1.00  0.00    -0.310 C  
BRANCH  33  34
HETATM   34  C   UNL     1      -9.676   5.983  67.551  1.00  0.00    -0.116 C  
HETATM   35  O   UNL     1      -8.270   6.217  67.468  1.00  0.00    -0.112 OA 
HETATM   36  H   UNL     1      -7.772   5.411  67.403  1.00  0.00     0.000 HD 
BRANCH  34  37
HETATM   37  C   UNL     1      -9.908   5.110  68.797  1.00  0.00    -0.235 C  
BRANCH  37  38
HETATM   38  C   UNL     1      -9.081   3.813  68.800  1.00  0.00    -0.142 C  
HETATM   39  H   UNL     1      -8.866   2.211  69.957  1.00  0.00     0.000 HD 
HETATM   40  O   UNL     1      -9.377   3.012  69.955  1.00  0.00    -0.141 OA 
BRANCH  38  41
HETATM   41  C   UNL     1      -9.405   2.967  67.570  1.00  0.00    -0.218 C  
HETATM   42  C   UNL     1      -8.214   2.750  66.667  1.00  0.00    -0.084 C  
HETATM   43  O   UNL     1      -7.050   2.525  67.314  1.00  0.00    -0.050 OA 
HETATM   44  O   UNL     1      -8.303   2.706  65.448  1.00  0.00    -0.090 OA 
ENDBRANCH  38  41
ENDBRANCH  37  38
ENDBRANCH  34  37
ENDBRANCH  33  34
ENDBRANCH  32  33
ENDBRANCH   6  32
TORSDOF 10
ENDMDL
MODEL       37
REMARK 921   NORMALIZED FREE ENERGY PREDICTED BY IDOCK:   -6.30 KCAL/MOL
REMARK 922        TOTAL FREE ENERGY PREDICTED BY IDOCK:  -12.73 KCAL/MOL
REMARK 923 INTER-LIGAND FREE ENERGY PREDICTED BY IDOCK:   -9.06 KCAL/MOL
REMARK 924 INTRA-LIGAND FREE ENERGY PREDICTED BY IDOCK:   -3.67 KCAL/MOL
REMARK 927      BINDING AFFINITY PREDICTED BY RF-SCORE:    0.00 PKD
ROOT
HETATM    1  C   UNL     1      -9.173  10.146  65.803  1.00  0.00    -0.221 C  
HETATM    2  C   UNL     1      -8.284   9.504  66.870  1.00  0.00    -0.113 C  
HETATM    3  C   UNL     1      -8.972   9.179  68.202  1.00  0.00    -0.129 A  
HETATM    4  C   UNL     1      -6.968  10.277  66.997  1.00  0.00    -0.089 C  
HETATM    5  C   UNL     1     -10.071   9.748  68.873  1.00  0.00    -0.194 A  
HETATM    6  N   UNL     1      -8.597   8.040  68.929  1.00  0.00    -0.131 NA 
HETATM    7  C   UNL     1     -10.488   8.781  69.897  1.00  0.00    -0.227 A  
HETATM    8  C   UNL     1      -9.510   7.771  69.963  1.00  0.00    -0.161 A  
ENDROOT
BRANCH   5   9
HETATM    9  C   UNL     1     -10.779  11.022  68.534  1.00  0.00    -0.202 C  
HETATM   10  O   UNL     1     -11.895  10.992  68.015  1.00  0.00    -0.593 OA 
HETATM   11  N   UNL     1     -10.096  12.190  68.849  1.00  0.00    -0.418 N  
HETATM   12  H   UNL     1      -9.153  12.087  69.225  1.00  0.00     0.000 HD 
BRANCH  11  13
HETATM   13  C   UNL     1     -10.589  13.513  68.698  1.00  0.00    -0.244 A  
HETATM   14  C   UNL     1     -11.957  15.406  69.392  1.00  0.00    -0.351 A  
HETATM   15  C   UNL     1     -11.507  16.155  68.309  1.00  0.00    -0.259 A  
HETATM   16  C   UNL     1     -10.115  14.291  67.633  1.00  0.00    -0.229 A  
HETATM   17  C   UNL     1     -11.507  14.090  69.580  1.00  0.00    -0.331 A  
HETATM   18  C   UNL     1     -10.591  15.594  67.423  1.00  0.00    -0.301 A  
ENDBRANCH  11  13
ENDBRANCH   5   9
BRANCH   7  19
HETATM   19  C   UNL     1     -11.709   8.791  70.749  1.00  0.00    -0.253 A  
HETATM   20  C   UNL     1     -12.526   7.648  70.855  1.00  0.00    -0.121 A  
HETATM   21  C   UNL     1     -13.269   9.916  72.260  1.00  0.00    -0.434 A  
HETATM   22  C   UNL     1     -14.034   8.758  72.384  1.00  0.00    -0.482 A  
HETATM   23  C   UNL     1     -12.104   9.925  71.474  1.00  0.00    -0.496 A  
HETATM   24  C   UNL     1     -13.655   7.620  71.688  1.00  0.00    -0.431 A  
ENDBRANCH   7  19
BRANCH   8  25
HETATM   25  C   UNL     1      -9.356   6.625  70.932  1.00  0.00    -0.159 A  
HETATM   26  C   UNL     1      -8.737   6.784  72.183  1.00  0.00    -0.132 A  
HETATM   27  C   UNL     1      -9.691   4.278  71.548  1.00  0.00    -0.244 A  
HETATM   28  C   UNL     1      -9.822   5.334  70.630  1.00  0.00    -0.264 A  
HETATM   29  F   UNL     1      -9.085   3.521  73.703  1.00  0.00    -0.092 F  
HETATM   30  C   UNL     1      -8.690   5.766  73.139  1.00  0.00    -0.122 A  
HETATM   31  C   UNL     1      -9.160   4.512  72.809  1.00  0.00    -0.121 A  
ENDBRANCH   8  25
BRANCH   6  32
HETATM   32  C   UNL     1      -7.349   7.294  68.706  1.00  0.00    -0.096 C  
BRANCH  32  33
HETATM   33  C   UNL     1      -7.498   5.944  67.981  1.00  0.00    -0.085 C  
BRANCH  33  34
HETATM   34  C   UNL     1      -7.334   6.029  66.449  1.00  0.00    -0.081 C  
HETATM   35  O   UNL     1      -6.745   4.852  65.898  1.00  0.00    -0.050 OA 
HETATM   36  H   UNL     1      -6.645   4.904  64.954  1.00  0.00     0.000 HD 
BRANCH  34  37
HETATM   37  C   UNL     1      -8.708   6.198  65.775  1.00  0.00    -0.151 C  
BRANCH  37  38
HETATM   38  C   UNL     1      -9.837   5.432  66.486  1.00  0.00    -0.176 C  
HETATM   39  H   UNL     1     -11.527   5.861  67.440  1.00  0.00     0.000 HD 
HETATM   40  O   UNL     1     -10.830   6.333  67.001  1.00  0.00    -0.323 OA 
BRANCH  38  41
HETATM   41  C   UNL     1     -10.545   4.493  65.511  1.00  0.00    -0.218 C  
HETATM   42  C   UNL     1      -9.700   3.307  65.108  1.00  0.00    -0.058 C  
HETATM   43  O   UNL     1      -8.975   2.766  66.111  1.00  0.00    -0.139 OA 
HETATM   44  O   UNL     1      -9.724   2.824  63.985  1.00  0.00    -0.139 OA 
ENDBRANCH  38  41
ENDBRANCH  37  38
ENDBRANCH  34  37
ENDBRANCH  33  34
ENDBRANCH  32  33
ENDBRANCH   6  32
TORSDOF 10
ENDMDL
MODEL       38
REMARK 921   NORMALIZED FREE ENERGY PREDICTED BY IDOCK:   -6.25 KCAL/MOL
REMARK 922        TOTAL FREE ENERGY PREDICTED BY IDOCK:  -12.66 KCAL/MOL
REMARK 923 INTER-LIGAND FREE ENERGY PREDICTED BY IDOCK:   -9.31 KCAL/MOL
REMARK 924 INTRA-LIGAND FREE ENERGY PREDICTED BY IDOCK:   -3.35 KCAL/MOL
REMARK 927      BINDING AFFINITY PREDICTED BY RF-SCORE:    0.00 PKD
ROOT
HETATM    1  C   UNL     1     -11.354  13.794  70.343  1.00  0.00     0.120 C  
HETATM    2  C   UNL     1     -11.815  12.335  70.358  1.00  0.00    -0.259 C  
HETATM    3  C   UNL     1     -11.465  11.513  69.111  1.00  0.00    -0.297 A  
HETATM    4  C   UNL     1     -13.279  12.247  70.796  1.00  0.00     0.394 C  
HETATM    5  C   UNL     1     -11.260  11.864  67.762  1.00  0.00    -0.330 A  
HETATM    6  N   UNL     1     -11.146  10.153  69.229  1.00  0.00    -0.231 NA 
HETATM    7  C   UNL     1     -10.586  10.725  67.127  1.00  0.00    -0.306 A  
HETATM    8  C   UNL     1     -10.601   9.650  68.035  1.00  0.00    -0.243 A  
ENDROOT
BRANCH   5   9
HETATM    9  C   UNL     1     -11.539  13.186  67.118  1.00  0.00    -0.361 C  
HETATM   10  O   UNL     1     -12.626  13.395  66.578  1.00  0.00    -0.264 OA 
HETATM   11  N   UNL     1     -10.510  14.116  67.187  1.00  0.00    -0.269 N  
HETATM   12  H   UNL     1      -9.635  13.807  67.611  1.00  0.00     0.000 HD 
BRANCH  11  13
HETATM   13  C   UNL     1     -10.563  15.457  66.722  1.00  0.00    -0.309 A  
HETATM   14  C   UNL     1     -10.877  17.134  64.983  1.00  0.00     0.063 A  
HETATM   15  C   UNL     1     -10.645  18.157  65.897  1.00  0.00    -0.247 A  
HETATM   16  C   UNL     1     -10.367  16.497  67.640  1.00  0.00    -0.291 A  
HETATM   17  C   UNL     1     -10.827  15.792  65.391  1.00  0.00    -0.376 A  
HETATM   18  C   UNL     1     -10.381  17.838  67.226  1.00  0.00    -0.364 A  
ENDBRANCH  11  13
ENDBRANCH   5   9
BRANCH   7  19
HETATM   19  C   UNL     1      -9.968  10.640  65.774  1.00  0.00    -0.315 A  
HETATM   20  C   UNL     1      -8.633  10.220  65.614  1.00  0.00    -0.170 A  
HETATM   21  C   UNL     1     -10.064  10.905  63.344  1.00  0.00    -0.398 A  
HETATM   22  C   UNL     1      -8.757  10.441  63.210  1.00  0.00    -0.201 A  
HETATM   23  C   UNL     1     -10.673  10.977  64.609  1.00  0.00    -0.318 A  
HETATM   24  C   UNL     1      -8.044  10.089  64.347  1.00  0.00    -0.156 A  
ENDBRANCH   7  19
BRANCH   8  25
HETATM   25  C   UNL     1     -10.188   8.211  67.851  1.00  0.00    -0.274 A  
HETATM   26  C   UNL     1     -10.973   7.296  67.129  1.00  0.00    -0.285 A  
HETATM   27  C   UNL     1      -8.609   6.371  68.200  1.00  0.00    -0.117 A  
HETATM   28  C   UNL     1      -8.994   7.710  68.396  1.00  0.00    -0.128 A  
HETATM   29  F   UNL     1      -8.978   4.279  67.166  1.00  0.00    -0.109 F  
HETATM   30  C   UNL     1     -10.551   5.994  66.848  1.00  0.00    -0.384 A  
HETATM   31  C   UNL     1      -9.372   5.536  67.397  1.00  0.00    -0.114 A  
ENDBRANCH   8  25
BRANCH   6  32
HETATM   32  C   UNL     1     -11.451   9.336  70.414  1.00  0.00    -0.213 C  
BRANCH  32  33
HETATM   33  C   UNL     1     -10.330   9.239  71.465  1.00  0.00    -0.364 C  
BRANCH  33  34
HETATM   34  C   UNL     1     -10.476   8.046  72.433  1.00  0.00    -0.301 C  
HETATM   35  O   UNL     1     -11.836   7.648  72.605  1.00  0.00    -0.507 OA 
HETATM   36  H   UNL     1     -11.926   6.913  73.201  1.00  0.00     0.000 HD 
BRANCH  34  37
HETATM   37  C   UNL     1      -9.718   6.822  71.889  1.00  0.00    -0.160 C  
BRANCH  37  38
HETATM   38  C   UNL     1     -10.641   5.653  71.501  1.00  0.00    -0.244 C  
HETATM   39  H   UNL     1     -11.934   5.221  70.056  1.00  0.00     0.000 HD 
HETATM   40  O   UNL     1     -11.365   5.942  70.295  1.00  0.00    -0.322 OA 
BRANCH  38  41
HETATM   41  C   UNL     1      -9.825   4.388  71.245  1.00  0.00    -0.260 C  
HETATM   42  C   UNL     1      -9.662   3.525  72.474  1.00  0.00    -0.147 C  
HETATM   43  O   UNL     1     -10.766   3.434  73.247  1.00  0.00    -0.175 OA 
HETATM   44  O   UNL     1      -8.641   2.898  72.717  1.00  0.00    -0.074 OA 
ENDBRANCH  38  41
ENDBRANCH  37  38
ENDBRANCH  34  37
ENDBRANCH  33  34
ENDBRANCH  32  33
ENDBRANCH   6  32
TORSDOF 10
ENDMDL
MODEL       39
REMARK 921   NORMALIZED FREE ENERGY PREDICTED BY IDOCK:   -6.25 KCAL/MOL
REMARK 922        TOTAL FREE ENERGY PREDICTED BY IDOCK:  -12.66 KCAL/MOL
REMARK 923 INTER-LIGAND FREE ENERGY PREDICTED BY IDOCK:   -9.01 KCAL/MOL
REMARK 924 INTRA-LIGAND FREE ENERGY PREDICTED BY IDOCK:   -3.65 KCAL/MOL
REMARK 927      BINDING AFFINITY PREDICTED BY RF-SCORE:    0.00 PKD
ROOT
HETATM    1  C   UNL     1     -11.473   8.697  72.526  1.00  0.00    -0.287 C  
HETATM    2  C   UNL     1     -11.213   7.844  71.283  1.00  0.00    -0.283 C  
HETATM    3  C   UNL     1     -10.837   8.617  70.012  1.00  0.00    -0.221 A  
HETATM    4  C   UNL     1     -12.332   6.815  71.104  1.00  0.00    -0.386 C  
HETATM    5  C   UNL     1     -11.138   9.917  69.561  1.00  0.00    -0.255 A  
HETATM    6  N   UNL     1      -9.925   8.070  69.098  1.00  0.00    -0.183 NA 
HETATM    7  C   UNL     1     -10.196  10.214  68.474  1.00  0.00    -0.194 A  
HETATM    8  C   UNL     1      -9.513   9.026  68.154  1.00  0.00    -0.142 A  
ENDROOT
BRANCH   5   9
HETATM    9  C   UNL     1     -12.123  10.876  70.151  1.00  0.00    -0.349 C  
HETATM   10  O   UNL     1     -13.266  10.505  70.417  1.00  0.00    -0.235 OA 
HETATM   11  N   UNL     1     -11.650  12.163  70.370  1.00  0.00    -0.496 N  
HETATM   12  H   UNL     1     -10.700  12.366  70.057  1.00  0.00     0.000 HD 
BRANCH  11  13
HETATM   13  C   UNL     1     -12.364  13.223  70.989  1.00  0.00    -0.291 A  
HETATM   14  C   UNL     1     -13.876  14.118  72.676  1.00  0.00    -0.504 A  
HETATM   15  C   UNL     1     -13.743  15.398  72.147  1.00  0.00    -0.618 A  
HETATM   16  C   UNL     1     -12.209  14.522  70.488  1.00  0.00    -0.399 A  
HETATM   17  C   UNL     1     -13.198  13.036  72.095  1.00  0.00    -0.558 A  
HETATM   18  C   UNL     1     -12.916  15.599  71.046  1.00  0.00    -0.518 A  
ENDBRANCH  11  13
ENDBRANCH   5   9
BRANCH   7  19
HETATM   19  C   UNL     1      -9.945  11.510  67.783  1.00  0.00    -0.195 A  
HETATM   20  C   UNL     1     -10.746  11.917  66.698  1.00  0.00    -0.291 A  
HETATM   21  C   UNL     1      -8.683  13.585  67.493  1.00  0.00    -0.208 A  
HETATM   22  C   UNL     1      -9.519  13.985  66.453  1.00  0.00    -0.278 A  
HETATM   23  C   UNL     1      -8.910  12.374  68.170  1.00  0.00    -0.191 A  
HETATM   24  C   UNL     1     -10.558  13.154  66.062  1.00  0.00    -0.291 A  
ENDBRANCH   7  19
BRANCH   8  25
HETATM   25  C   UNL     1      -8.554   8.724  67.029  1.00  0.00    -0.119 A  
HETATM   26  C   UNL     1      -7.188   9.039  67.109  1.00  0.00    -0.083 A  
HETATM   27  C   UNL     1      -8.076   7.820  64.803  1.00  0.00    -0.131 A  
HETATM   28  C   UNL     1      -8.982   8.115  65.837  1.00  0.00    -0.195 A  
HETATM   29  F   UNL     1      -5.851   7.733  64.013  1.00  0.00    -0.048 F  
HETATM   30  C   UNL     1      -6.265   8.662  66.129  1.00  0.00    -0.052 A  
HETATM   31  C   UNL     1      -6.720   8.063  64.974  1.00  0.00    -0.051 A  
ENDBRANCH   8  25
BRANCH   6  32
HETATM   32  C   UNL     1      -9.542   6.650  69.067  1.00  0.00    -0.133 C  
BRANCH  32  33
HETATM   33  C   UNL     1      -8.429   6.237  70.047  1.00  0.00    -0.134 C  
BRANCH  33  34
HETATM   34  C   UNL     1      -7.135   5.749  69.362  1.00  0.00    -0.065 C  
HETATM   35  O   UNL     1      -7.282   5.624  67.948  1.00  0.00    -0.070 OA 
HETATM   36  H   UNL     1      -6.485   5.324  67.526  1.00  0.00     0.000 HD 
BRANCH  34  37
HETATM   37  C   UNL     1      -5.992   6.751  69.605  1.00  0.00    -0.019 C  
BRANCH  37  38
HETATM   38  C   UNL     1      -6.107   7.499  70.945  1.00  0.00    -0.035 C  
HETATM   39  H   UNL     1      -5.507   7.247  72.822  1.00  0.00     0.000 HD 
HETATM   40  O   UNL     1      -5.436   6.786  71.996  1.00  0.00    -0.035 OA 
BRANCH  38  41
HETATM   41  C   UNL     1      -5.455   8.877  70.848  1.00  0.00    -0.029 C  
HETATM   42  C   UNL     1      -6.428   9.970  70.471  1.00  0.00    -0.121 C  
HETATM   43  O   UNL     1      -7.640   9.871  71.057  1.00  0.00    -0.255 OA 
HETATM   44  O   UNL     1      -6.124  10.911  69.752  1.00  0.00    -0.062 OA 
ENDBRANCH  38  41
ENDBRANCH  37  38
ENDBRANCH  34  37
ENDBRANCH  33  34
ENDBRANCH  32  33
ENDBRANCH   6  32
TORSDOF 10
ENDMDL
MODEL       40
REMARK 921   NORMALIZED FREE ENERGY PREDICTED BY IDOCK:   -6.21 KCAL/MOL
REMARK 922        TOTAL FREE ENERGY PREDICTED BY IDOCK:  -12.60 KCAL/MOL
REMARK 923 INTER-LIGAND FREE ENERGY PREDICTED BY IDOCK:  -10.43 KCAL/MOL
REMARK 924 INTRA-LIGAND FREE ENERGY PREDICTED BY IDOCK:   -2.17 KCAL/MOL
REMARK 927      BINDING AFFINITY PREDICTED BY RF-SCORE:    0.00 PKD
ROOT
HETATM    1  C   UNL     1     -11.939  12.027  64.787  1.00  0.00    -0.310 C  
HETATM    2  C   UNL     1     -11.051  11.114  65.634  1.00  0.00    -0.078 C  
HETATM    3  C   UNL     1     -11.077  11.375  67.146  1.00  0.00    -0.305 A  
HETATM    4  C   UNL     1      -9.651  11.020  65.021  1.00  0.00    -0.291 C  
HETATM    5  C   UNL     1     -11.323  12.531  67.911  1.00  0.00    -0.343 A  
HETATM    6  N   UNL     1     -10.964  10.307  68.047  1.00  0.00    -0.283 NA 
HETATM    7  C   UNL     1     -11.584  12.081  69.284  1.00  0.00    -0.380 A  
HETATM    8  C   UNL     1     -11.275  10.710  69.357  1.00  0.00    -0.270 A  
ENDROOT
BRANCH   5   9
HETATM    9  C   UNL     1     -11.439  13.938  67.415  1.00  0.00    -0.348 C  
HETATM   10  O   UNL     1     -12.492  14.334  66.914  1.00  0.00    -0.338 OA 
HETATM   11  N   UNL     1     -10.305  14.725  67.571  1.00  0.00    -0.238 N  
HETATM   12  H   UNL     1      -9.475  14.269  67.949  1.00  0.00     0.000 HD 
BRANCH  11  13
HETATM   13  C   UNL     1     -10.194  16.104  67.253  1.00  0.00    -0.277 A  
HETATM   14  C   UNL     1     -10.563  18.468  67.714  1.00  0.00    -0.422 A  
HETATM   15  C   UNL     1      -9.921  18.821  66.531  1.00  0.00    -0.415 A  
HETATM   16  C   UNL     1      -9.518  16.474  66.083  1.00  0.00    -0.347 A  
HETATM   17  C   UNL     1     -10.707  17.118  68.068  1.00  0.00    -0.372 A  
HETATM   18  C   UNL     1      -9.405  17.822  65.709  1.00  0.00     0.262 A  
ENDBRANCH  11  13
ENDBRANCH   5   9
BRANCH   7  19
HETATM   19  C   UNL     1     -12.088  12.867  70.445  1.00  0.00    -0.385 A  
HETATM   20  C   UNL     1     -11.522  14.114  70.774  1.00  0.00    -0.005 A  
HETATM   21  C   UNL     1     -13.580  13.159  72.361  1.00  0.00    -0.667 A  
HETATM   22  C   UNL     1     -13.035  14.411  72.636  1.00  0.00    -0.533 A  
HETATM   23  C   UNL     1     -13.132  12.407  71.262  1.00  0.00    -0.218 A  
HETATM   24  C   UNL     1     -12.010  14.893  71.834  1.00  0.00    -0.432 A  
ENDBRANCH   7  19
BRANCH   8  25
HETATM   25  C   UNL     1     -11.216   9.786  70.549  1.00  0.00    -0.381 A  
HETATM   26  C   UNL     1     -12.368   9.189  71.087  1.00  0.00    -0.330 A  
HETATM   27  C   UNL     1      -9.956   8.598  72.281  1.00  0.00    -0.361 A  
HETATM   28  C   UNL     1     -10.001   9.477  71.184  1.00  0.00    -0.219 A  
HETATM   29  F   UNL     1     -11.059   7.082  73.719  1.00  0.00    -0.299 F  
HETATM   30  C   UNL     1     -12.320   8.240  72.112  1.00  0.00    -0.410 A  
HETATM   31  C   UNL     1     -11.110   7.960  72.711  1.00  0.00    -0.400 A  
ENDBRANCH   8  25
BRANCH   6  32
HETATM   32  C   UNL     1     -10.471   8.970  67.683  1.00  0.00    -0.260 C  
BRANCH  32  33
HETATM   33  C   UNL     1      -8.971   8.721  67.925  1.00  0.00    -0.142 C  
BRANCH  33  34
HETATM   34  C   UNL     1      -8.364   7.618  67.034  1.00  0.00    -0.124 C  
HETATM   35  O   UNL     1      -9.089   6.391  67.117  1.00  0.00    -0.118 OA 
HETATM   36  H   UNL     1      -8.715   5.711  66.568  1.00  0.00     0.000 HD 
BRANCH  34  37
HETATM   37  C   UNL     1      -8.388   8.051  65.557  1.00  0.00    -0.153 C  
BRANCH  37  38
HETATM   38  C   UNL     1      -6.992   8.111  64.913  1.00  0.00    -0.074 C  
HETATM   39  H   UNL     1      -5.554   9.457  64.651  1.00  0.00     0.000 HD 
HETATM   40  O   UNL     1      -6.415   9.420  65.049  1.00  0.00    -0.072 OA 
BRANCH  38  41
HETATM   41  C   UNL     1      -6.043   7.128  65.596  1.00  0.00    -0.037 C  
HETATM   42  C   UNL     1      -5.723   5.922  64.744  1.00  0.00    -0.024 C  
HETATM   43  O   UNL     1      -5.537   6.192  63.434  1.00  0.00    -0.018 OA 
HETATM   44  O   UNL     1      -5.569   4.801  65.208  1.00  0.00    -0.013 OA 
ENDBRANCH  38  41
ENDBRANCH  37  38
ENDBRANCH  34  37
ENDBRANCH  33  34
ENDBRANCH  32  33
ENDBRANCH   6  32
TORSDOF 10
ENDMDL
MODEL       41
REMARK 921   NORMALIZED FREE ENERGY PREDICTED BY IDOCK:   -6.19 KCAL/MOL
REMARK 922        TOTAL FREE ENERGY PREDICTED BY IDOCK:  -12.56 KCAL/MOL
REMARK 923 INTER-LIGAND FREE ENERGY PREDICTED BY IDOCK:  -10.34 KCAL/MOL
REMARK 924 INTRA-LIGAND FREE ENERGY PREDICTED BY IDOCK:   -2.22 KCAL/MOL
REMARK 927      BINDING AFFINITY PREDICTED BY RF-SCORE:    0.00 PKD
ROOT
HETATM    1  C   UNL     1      -8.519  11.931  66.377  1.00  0.00    -0.039 C  
HETATM    2  C   UNL     1      -9.574  12.997  66.678  1.00  0.00    -0.259 C  
HETATM    3  C   UNL     1     -10.576  12.647  67.787  1.00  0.00    -0.220 A  
HETATM    4  C   UNL     1     -10.204  13.501  65.377  1.00  0.00    -0.316 C  
HETATM    5  C   UNL     1     -11.081  11.423  68.265  1.00  0.00    -0.300 A  
HETATM    6  N   UNL     1     -11.065  13.649  68.637  1.00  0.00    -0.260 NA 
HETATM    7  C   UNL     1     -11.700  11.702  69.568  1.00  0.00    -0.410 A  
HETATM    8  C   UNL     1     -11.747  13.098  69.735  1.00  0.00    -0.280 A  
ENDROOT
BRANCH   5   9
HETATM    9  C   UNL     1     -10.910  10.069  67.651  1.00  0.00    -0.278 C  
HETATM   10  O   UNL     1     -11.313   9.851  66.508  1.00  0.00     0.363 OA 
HETATM   11  N   UNL     1     -10.275   9.125  68.447  1.00  0.00    -0.194 N  
HETATM   12  H   UNL     1     -10.035   9.408  69.398  1.00  0.00     0.000 HD 
BRANCH  11  13
HETATM   13  C   UNL     1      -9.928   7.803  68.062  1.00  0.00    -0.175 A  
HETATM   14  C   UNL     1      -8.471   6.175  66.983  1.00  0.00    -0.105 A  
HETATM   15  C   UNL     1      -9.327   5.138  67.344  1.00  0.00    -0.128 A  
HETATM   16  C   UNL     1     -10.762   6.747  68.450  1.00  0.00    -0.284 A  
HETATM   17  C   UNL     1      -8.774   7.500  67.333  1.00  0.00    -0.124 A  
HETATM   18  C   UNL     1     -10.479   5.426  68.070  1.00  0.00    -0.192 A  
ENDBRANCH  11  13
ENDBRANCH   5   9
BRANCH   7  19
HETATM   19  C   UNL     1     -12.207  10.740  70.586  1.00  0.00    -0.474 A  
HETATM   20  C   UNL     1     -11.319   9.934  71.325  1.00  0.00    -0.404 A  
HETATM   21  C   UNL     1     -14.031   9.662  71.808  1.00  0.00    -0.162 A  
HETATM   22  C   UNL     1     -13.129   8.910  72.556  1.00  0.00    -0.426 A  
HETATM   23  C   UNL     1     -13.576  10.587  70.853  1.00  0.00     0.230 A  
HETATM   24  C   UNL     1     -11.769   9.055  72.321  1.00  0.00    -0.283 A  
ENDBRANCH   7  19
BRANCH   8  25
HETATM   25  C   UNL     1     -12.407  13.930  70.807  1.00  0.00    -0.449 A  
HETATM   26  C   UNL     1     -11.676  14.507  71.859  1.00  0.00    -0.036 A  
HETATM   27  C   UNL     1     -14.393  14.961  71.804  1.00  0.00    -0.668 A  
HETATM   28  C   UNL     1     -13.792  14.168  70.811  1.00  0.00     0.300 A  
HETATM   29  F   UNL     1     -14.174  16.387  73.676  1.00  0.00    -0.282 F  
HETATM   30  C   UNL     1     -12.248  15.376  72.792  1.00  0.00    -0.525 A  
HETATM   31  C   UNL     1     -13.610  15.588  72.764  1.00  0.00    -0.561 A  
ENDBRANCH   8  25
BRANCH   6  32
HETATM   32  C   UNL     1     -10.972  15.089  68.352  1.00  0.00    -0.264 C  
BRANCH  32  33
HETATM   33  C   UNL     1     -10.122  15.911  69.338  1.00  0.00    -0.267 C  
BRANCH  33  34
HETATM   34  C   UNL     1      -8.620  15.960  68.988  1.00  0.00    -0.239 C  
HETATM   35  O   UNL     1      -7.960  14.722  69.253  1.00  0.00    -0.237 OA 
HETATM   36  H   UNL     1      -7.035  14.752  69.037  1.00  0.00     0.000 HD 
BRANCH  34  37
HETATM   37  C   UNL     1      -8.431  16.254  67.490  1.00  0.00    -0.183 C  
BRANCH  37  38
HETATM   38  C   UNL     1      -7.793  17.626  67.210  1.00  0.00    -0.205 C  
HETATM   39  H   UNL     1      -7.361  18.749  65.629  1.00  0.00     0.000 HD 
HETATM   40  O   UNL     1      -7.755  17.903  65.801  1.00  0.00    -0.538 OA 
BRANCH  38  41
HETATM   41  C   UNL     1      -8.607  18.740  67.866  1.00  0.00    -0.321 C  
HETATM   42  C   UNL     1      -9.831  19.129  67.071  1.00  0.00    -0.336 C  
HETATM   43  O   UNL     1     -10.492  18.092  66.513  1.00  0.00    -0.367 OA 
HETATM   44  O   UNL     1     -10.239  20.280  66.998  1.00  0.00    -0.435 OA 
ENDBRANCH  38  41
ENDBRANCH  37  38
ENDBRANCH  34  37
ENDBRANCH  33  34
ENDBRANCH  32  33
ENDBRANCH   6  32
TORSDOF 10
ENDMDL
MODEL       42
REMARK 921   NORMALIZED FREE ENERGY PREDICTED BY IDOCK:   -6.14 KCAL/MOL
REMARK 922        TOTAL FREE ENERGY PREDICTED BY IDOCK:  -12.48 KCAL/MOL
REMARK 923 INTER-LIGAND FREE ENERGY PREDICTED BY IDOCK:   -9.22 KCAL/MOL
REMARK 924 INTRA-LIGAND FREE ENERGY PREDICTED BY IDOCK:   -3.26 KCAL/MOL
REMARK 927      BINDING AFFINITY PREDICTED BY RF-SCORE:    0.00 PKD
ROOT
HETATM    1  C   UNL     1     -12.641  14.197  66.012  1.00  0.00    -0.407 C  
HETATM    2  C   UNL     1     -11.901  12.864  65.881  1.00  0.00    -0.476 C  
HETATM    3  C   UNL     1     -10.493  12.822  66.490  1.00  0.00    -0.263 A  
HETATM    4  C   UNL     1     -11.997  12.344  64.445  1.00  0.00    -0.482 C  
HETATM    5  C   UNL     1      -9.517  13.813  66.707  1.00  0.00    -0.281 A  
HETATM    6  N   UNL     1     -10.020  11.646  67.089  1.00  0.00    -0.198 NA 
HETATM    7  C   UNL     1      -8.548  13.250  67.657  1.00  0.00    -0.196 A  
HETATM    8  C   UNL     1      -8.839  11.882  67.813  1.00  0.00    -0.166 A  
ENDROOT
BRANCH   5   9
HETATM    9  C   UNL     1      -9.521  15.218  66.192  1.00  0.00    -0.326 C  
HETATM   10  O   UNL     1      -9.603  15.435  64.983  1.00  0.00    -0.130 OA 
HETATM   11  N   UNL     1      -9.436  16.211  67.158  1.00  0.00    -0.221 N  
HETATM   12  H   UNL     1      -9.315  15.907  68.125  1.00  0.00     0.000 HD 
BRANCH  11  13
HETATM   13  C   UNL     1      -9.500  17.611  66.927  1.00  0.00    -0.276 A  
HETATM   14  C   UNL     1     -10.470  19.591  65.890  1.00  0.00    -0.585 A  
HETATM   15  C   UNL     1      -9.545  20.407  66.534  1.00  0.00    -0.431 A  
HETATM   16  C   UNL     1      -8.599  18.447  67.598  1.00  0.00    -0.268 A  
HETATM   17  C   UNL     1     -10.441  18.201  66.078  1.00  0.00    -0.346 A  
HETATM   18  C   UNL     1      -8.602  19.834  67.383  1.00  0.00    -0.374 A  
ENDBRANCH  11  13
ENDBRANCH   5   9
BRANCH   7  19
HETATM   19  C   UNL     1      -7.435  13.934  68.372  1.00  0.00    -0.117 A  
HETATM   20  C   UNL     1      -6.400  14.569  67.658  1.00  0.00    -0.128 A  
HETATM   21  C   UNL     1      -6.291  14.614  70.425  1.00  0.00    -0.153 A  
HETATM   22  C   UNL     1      -5.305  15.274  69.695  1.00  0.00    -0.097 A  
HETATM   23  C   UNL     1      -7.360  13.975  69.772  1.00  0.00     0.330 A  
HETATM   24  C   UNL     1      -5.366  15.259  68.309  1.00  0.00    -0.115 A  
ENDBRANCH   7  19
BRANCH   8  25
HETATM   25  C   UNL     1      -8.080  10.801  68.544  1.00  0.00    -0.133 A  
HETATM   26  C   UNL     1      -8.572  10.211  69.720  1.00  0.00    -0.148 A  
HETATM   27  C   UNL     1      -6.151   9.309  68.764  1.00  0.00    -0.044 A  
HETATM   28  C   UNL     1      -6.839  10.330  68.085  1.00  0.00    -0.066 A  
HETATM   29  F   UNL     1      -6.099   7.684  70.478  1.00  0.00    -0.030 F  
HETATM   30  C   UNL     1      -7.944   9.130  70.344  1.00  0.00    -0.155 A  
HETATM   31  C   UNL     1      -6.727   8.693  69.865  1.00  0.00    -0.042 A  
ENDBRANCH   8  25
BRANCH   6  32
HETATM   32  C   UNL     1     -10.621  10.319  66.888  1.00  0.00    -0.217 C  
BRANCH  32  33
HETATM   33  C   UNL     1      -9.879   9.390  65.909  1.00  0.00    -0.362 C  
BRANCH  33  34
HETATM   34  C   UNL     1      -9.750   7.933  66.399  1.00  0.00    -0.165 C  
HETATM   35  O   UNL     1      -8.389   7.518  66.522  1.00  0.00    -0.117 OA 
HETATM   36  H   UNL     1      -8.310   6.621  66.824  1.00  0.00     0.000 HD 
BRANCH  34  37
HETATM   37  C   UNL     1     -10.390   7.779  67.790  1.00  0.00    -0.284 C  
BRANCH  37  38
HETATM   38  C   UNL     1     -10.986   6.382  68.039  1.00  0.00    -0.311 C  
HETATM   39  H   UNL     1     -11.068   4.633  67.100  1.00  0.00     0.000 HD 
HETATM   40  O   UNL     1     -10.700   5.494  66.947  1.00  0.00    -0.280 OA 
BRANCH  38  41
HETATM   41  C   UNL     1     -10.382   5.758  69.296  1.00  0.00    -0.326 C  
HETATM   42  C   UNL     1     -10.899   6.376  70.574  1.00  0.00    -0.279 C  
HETATM   43  O   UNL     1     -12.219   6.661  70.567  1.00  0.00    -0.364 OA 
HETATM   44  O   UNL     1     -10.200   6.538  71.565  1.00  0.00    -0.191 OA 
ENDBRANCH  38  41
ENDBRANCH  37  38
ENDBRANCH  34  37
ENDBRANCH  33  34
ENDBRANCH  32  33
ENDBRANCH   6  32
TORSDOF 10
ENDMDL
MODEL       43
REMARK 921   NORMALIZED FREE ENERGY PREDICTED BY IDOCK:   -6.11 KCAL/MOL
REMARK 922        TOTAL FREE ENERGY PREDICTED BY IDOCK:  -12.43 KCAL/MOL
REMARK 923 INTER-LIGAND FREE ENERGY PREDICTED BY IDOCK:  -10.34 KCAL/MOL
REMARK 924 INTRA-LIGAND FREE ENERGY PREDICTED BY IDOCK:   -2.09 KCAL/MOL
REMARK 927      BINDING AFFINITY PREDICTED BY RF-SCORE:    0.00 PKD
ROOT
HETATM    1  C   UNL     1     -13.277   9.339  71.507  1.00  0.00    -0.433 C  
HETATM    2  C   UNL     1     -12.658  10.444  70.650  1.00  0.00    -0.435 C  
HETATM    3  C   UNL     1     -11.556   9.997  69.679  1.00  0.00    -0.096 A  
HETATM    4  C   UNL     1     -12.297  11.650  71.520  1.00  0.00    -0.095 C  
HETATM    5  C   UNL     1     -10.632   8.935  69.709  1.00  0.00    -0.230 A  
HETATM    6  N   UNL     1     -11.424  10.616  68.429  1.00  0.00    -0.336 NA 
HETATM    7  C   UNL     1     -10.105   8.796  68.345  1.00  0.00    -0.217 A  
HETATM    8  C   UNL     1     -10.550   9.900  67.593  1.00  0.00    -0.270 A  
ENDROOT
BRANCH   5   9
HETATM    9  C   UNL     1     -10.334   8.024  70.858  1.00  0.00    -0.200 C  
HETATM   10  O   UNL     1      -9.773   8.458  71.865  1.00  0.00    -0.208 OA 
HETATM   11  N   UNL     1     -10.736   6.705  70.698  1.00  0.00    -0.230 N  
HETATM   12  H   UNL     1     -11.141   6.451  69.796  1.00  0.00     0.000 HD 
BRANCH  11  13
HETATM   13  C   UNL     1     -10.637   5.676  71.671  1.00  0.00    -0.241 A  
HETATM   14  C   UNL     1     -11.499   4.379  73.545  1.00  0.00    -0.274 A  
HETATM   15  C   UNL     1     -10.343   3.604  73.567  1.00  0.00    -0.238 A  
HETATM   16  C   UNL     1      -9.495   4.864  71.680  1.00  0.00    -0.204 A  
HETATM   17  C   UNL     1     -11.641   5.414  72.608  1.00  0.00    -0.270 A  
HETATM   18  C   UNL     1      -9.335   3.853  72.639  1.00  0.00    -0.155 A  
ENDBRANCH  11  13
ENDBRANCH   5   9
BRANCH   7  19
HETATM   19  C   UNL     1      -9.251   7.715  67.779  1.00  0.00    -0.141 A  
HETATM   20  C   UNL     1      -9.795   6.742  66.916  1.00  0.00    -0.229 A  
HETATM   21  C   UNL     1      -7.103   6.570  67.542  1.00  0.00    -0.081 A  
HETATM   22  C   UNL     1      -7.655   5.648  66.656  1.00  0.00    -0.092 A  
HETATM   23  C   UNL     1      -7.885   7.608  68.076  1.00  0.00    -0.121 A  
HETATM   24  C   UNL     1      -9.002   5.741  66.335  1.00  0.00    -0.139 A  
ENDBRANCH   7  19
BRANCH   8  25
HETATM   25  C   UNL     1     -10.189  10.337  66.195  1.00  0.00    -0.285 A  
HETATM   26  C   UNL     1     -11.102  11.011  65.367  1.00  0.00     0.001 A  
HETATM   27  C   UNL     1      -8.589  10.519  64.351  1.00  0.00    -0.160 A  
HETATM   28  C   UNL     1      -8.920  10.089  65.648  1.00  0.00    -0.203 A  
HETATM   29  F   UNL     1      -9.161  11.723  62.399  1.00  0.00    -0.282 F  
HETATM   30  C   UNL     1     -10.751  11.527  64.116  1.00  0.00    -0.428 A  
HETATM   31  C   UNL     1      -9.494  11.267  63.611  1.00  0.00    -0.228 A  
ENDBRANCH   8  25
BRANCH   6  32
HETATM   32  C   UNL     1     -12.034  11.909  68.082  1.00  0.00    -0.152 C  
BRANCH  32  33
HETATM   33  C   UNL     1     -11.248  13.158  68.522  1.00  0.00    -0.307 C  
BRANCH  33  34
HETATM   34  C   UNL     1     -11.545  14.418  67.683  1.00  0.00    -0.370 C  
HETATM   35  O   UNL     1     -12.494  14.170  66.645  1.00  0.00    -0.541 OA 
HETATM   36  H   UNL     1     -12.677  14.946  66.128  1.00  0.00     0.000 HD 
BRANCH  34  37
HETATM   37  C   UNL     1     -12.138  15.524  68.573  1.00  0.00    -0.048 C  
BRANCH  37  38
HETATM   38  C   UNL     1     -11.648  15.467  70.030  1.00  0.00    -0.341 C  
HETATM   39  H   UNL     1     -10.430  16.503  71.210  1.00  0.00     0.000 HD 
HETATM   40  O   UNL     1     -10.733  16.539  70.311  1.00  0.00    -0.242 OA 
BRANCH  38  41
HETATM   41  C   UNL     1     -12.821  15.612  70.997  1.00  0.00    -0.521 C  
HETATM   42  C   UNL     1     -12.577  14.948  72.332  1.00  0.00    -0.343 C  
HETATM   43  O   UNL     1     -11.324  15.097  72.814  1.00  0.00    -0.344 OA 
HETATM   44  O   UNL     1     -13.457  14.384  72.966  1.00  0.00    -0.615 OA 
ENDBRANCH  38  41
ENDBRANCH  37  38
ENDBRANCH  34  37
ENDBRANCH  33  34
ENDBRANCH  32  33
ENDBRANCH   6  32
TORSDOF 10
ENDMDL
MODEL       44
REMARK 921   NORMALIZED FREE ENERGY PREDICTED BY IDOCK:   -6.10 KCAL/MOL
REMARK 922        TOTAL FREE ENERGY PREDICTED BY IDOCK:  -12.42 KCAL/MOL
REMARK 923 INTER-LIGAND FREE ENERGY PREDICTED BY IDOCK:   -8.82 KCAL/MOL
REMARK 924 INTRA-LIGAND FREE ENERGY PREDICTED BY IDOCK:   -3.60 KCAL/MOL
REMARK 927      BINDING AFFINITY PREDICTED BY RF-SCORE:    0.00 PKD
ROOT
HETATM    1  C   UNL     1     -12.414   7.188  71.482  1.00  0.00    -0.418 C  
HETATM    2  C   UNL     1     -11.779   8.426  70.847  1.00  0.00    -0.269 C  
HETATM    3  C   UNL     1     -10.536   8.169  69.984  1.00  0.00    -0.231 A  
HETATM    4  C   UNL     1     -11.619   9.534  71.891  1.00  0.00    -0.268 C  
HETATM    5  C   UNL     1      -9.545   7.168  70.012  1.00  0.00    -0.164 A  
HETATM    6  N   UNL     1     -10.297   8.945  68.842  1.00  0.00    -0.210 NA 
HETATM    7  C   UNL     1      -8.845   7.232  68.722  1.00  0.00    -0.127 A  
HETATM    8  C   UNL     1      -9.276   8.391  68.052  1.00  0.00    -0.136 A  
ENDROOT
BRANCH   5   9
HETATM    9  C   UNL     1      -9.324   6.141  71.078  1.00  0.00    -0.164 C  
HETATM   10  O   UNL     1      -8.725   6.438  72.111  1.00  0.00    -0.132 OA 
HETATM   11  N   UNL     1      -9.841   4.880  70.811  1.00  0.00    -0.199 N  
HETATM   12  H   UNL     1     -10.269   4.740  69.895  1.00  0.00     0.000 HD 
BRANCH  11  13
HETATM   13  C   UNL     1      -9.828   3.767  71.693  1.00  0.00    -0.170 A  
HETATM   14  C   UNL     1      -9.035   1.575  72.401  1.00  0.00    -0.087 A  
HETATM   15  C   UNL     1      -9.876   1.604  73.509  1.00  0.00    -0.118 A  
HETATM   16  C   UNL     1     -10.643   3.801  72.832  1.00  0.00    -0.229 A  
HETATM   17  C   UNL     1      -9.018   2.646  71.494  1.00  0.00    -0.145 A  
HETATM   18  C   UNL     1     -10.689   2.715  73.720  1.00  0.00    -0.269 A  
ENDBRANCH  11  13
ENDBRANCH   5   9
BRANCH   7  19
HETATM   19  C   UNL     1      -7.850   6.281  68.152  1.00  0.00    -0.104 A  
HETATM   20  C   UNL     1      -8.251   5.258  67.270  1.00  0.00    -0.104 A  
HETATM   21  C   UNL     1      -5.567   5.434  67.926  1.00  0.00    -0.012 A  
HETATM   22  C   UNL     1      -5.982   4.461  67.021  1.00  0.00    -0.024 A  
HETATM   23  C   UNL     1      -6.484   6.352  68.465  1.00  0.00    -0.049 A  
HETATM   24  C   UNL     1      -7.326   4.380  66.685  1.00  0.00    -0.081 A  
ENDBRANCH   7  19
BRANCH   8  25
HETATM   25  C   UNL     1      -8.779   9.019  66.773  1.00  0.00    -0.134 A  
HETATM   26  C   UNL     1      -9.524   8.974  65.582  1.00  0.00    -0.273 A  
HETATM   27  C   UNL     1      -7.098  10.280  65.514  1.00  0.00    -0.142 A  
HETATM   28  C   UNL     1      -7.542   9.681  66.706  1.00  0.00    -0.098 A  
HETATM   29  F   UNL     1      -7.519  10.908  63.275  1.00  0.00    -0.024 F  
HETATM   30  C   UNL     1      -9.137   9.650  64.422  1.00  0.00    -0.279 A  
HETATM   31  C   UNL     1      -7.917  10.291  64.393  1.00  0.00    -0.135 A  
ENDBRANCH   8  25
BRANCH   6  32
HETATM   32  C   UNL     1     -10.954  10.233  68.570  1.00  0.00    -0.247 C  
BRANCH  32  33
HETATM   33  C   UNL     1     -10.195  11.485  69.048  1.00  0.00    -0.109 C  
BRANCH  33  34
HETATM   34  C   UNL     1     -10.501  12.757  68.231  1.00  0.00    -0.241 C  
HETATM   35  O   UNL     1      -9.920  13.927  68.807  1.00  0.00    -0.312 OA 
HETATM   36  H   UNL     1     -10.107  14.711  68.304  1.00  0.00     0.000 HD 
BRANCH  34  37
HETATM   37  C   UNL     1      -9.926  12.629  66.809  1.00  0.00    -0.237 C  
BRANCH  37  38
HETATM   38  C   UNL     1     -10.502  13.657  65.820  1.00  0.00    -0.293 C  
HETATM   39  H   UNL     1      -9.939  15.374  64.993  1.00  0.00     0.000 HD 
HETATM   40  O   UNL     1      -9.583  14.740  65.603  1.00  0.00    -0.312 OA 
BRANCH  38  41
HETATM   41  C   UNL     1     -10.762  13.008  64.462  1.00  0.00    -0.404 C  
HETATM   42  C   UNL     1     -12.132  13.318  63.906  1.00  0.00    -0.468 C  
HETATM   43  O   UNL     1     -12.543  14.590  64.100  1.00  0.00    -0.730 OA 
HETATM   44  O   UNL     1     -12.789  12.509  63.265  1.00  0.00    -0.666 OA 
ENDBRANCH  38  41
ENDBRANCH  37  38
ENDBRANCH  34  37
ENDBRANCH  33  34
ENDBRANCH  32  33
ENDBRANCH   6  32
TORSDOF 10
ENDMDL
MODEL       45
REMARK 921   NORMALIZED FREE ENERGY PREDICTED BY IDOCK:   -6.08 KCAL/MOL
REMARK 922        TOTAL FREE ENERGY PREDICTED BY IDOCK:  -12.39 KCAL/MOL
REMARK 923 INTER-LIGAND FREE ENERGY PREDICTED BY IDOCK:  -10.12 KCAL/MOL
REMARK 924 INTRA-LIGAND FREE ENERGY PREDICTED BY IDOCK:   -2.27 KCAL/MOL
REMARK 927      BINDING AFFINITY PREDICTED BY RF-SCORE:    0.00 PKD
ROOT
HETATM    1  C   UNL     1      -6.481   6.679  69.660  1.00  0.00    -0.044 C  
HETATM    2  C   UNL     1      -6.977   7.544  68.500  1.00  0.00    -0.079 C  
HETATM    3  C   UNL     1      -8.333   8.230  68.713  1.00  0.00    -0.124 A  
HETATM    4  C   UNL     1      -6.840   6.786  67.177  1.00  0.00    -0.069 C  
HETATM    5  C   UNL     1      -9.462   7.893  69.485  1.00  0.00    -0.160 A  
HETATM    6  N   UNL     1      -8.570   9.504  68.180  1.00  0.00    -0.120 NA 
HETATM    7  C   UNL     1     -10.282   9.108  69.584  1.00  0.00    -0.211 A  
HETATM    8  C   UNL     1      -9.749  10.065  68.701  1.00  0.00    -0.159 A  
ENDROOT
BRANCH   5   9
HETATM    9  C   UNL     1      -9.724   6.601  70.191  1.00  0.00    -0.164 C  
HETATM   10  O   UNL     1     -10.078   5.607  69.556  1.00  0.00    -0.185 OA 
HETATM   11  N   UNL     1      -9.534   6.620  71.567  1.00  0.00    -0.157 N  
HETATM   12  H   UNL     1      -9.294   7.518  71.988  1.00  0.00     0.000 HD 
BRANCH  11  13
HETATM   13  C   UNL     1      -9.642   5.506  72.441  1.00  0.00    -0.150 A  
HETATM   14  C   UNL     1      -8.707   3.623  73.674  1.00  0.00    -0.089 A  
HETATM   15  C   UNL     1      -9.961   3.312  74.191  1.00  0.00    -0.174 A  
HETATM   16  C   UNL     1     -10.892   5.205  72.998  1.00  0.00    -0.336 A  
HETATM   17  C   UNL     1      -8.550   4.708  72.798  1.00  0.00    -0.114 A  
HETATM   18  C   UNL     1     -11.057   4.098  73.845  1.00  0.00    -0.257 A  
ENDBRANCH  11  13
ENDBRANCH   5   9
BRANCH   7  19
HETATM   19  C   UNL     1     -11.474   9.363  70.441  1.00  0.00    -0.272 A  
HETATM   20  C   UNL     1     -12.303   8.303  70.860  1.00  0.00    -0.046 A  
HETATM   21  C   UNL     1     -12.967  10.870  71.658  1.00  0.00    -0.569 A  
HETATM   22  C   UNL     1     -13.743   9.800  72.096  1.00  0.00    -0.350 A  
HETATM   23  C   UNL     1     -11.829  10.653  70.862  1.00  0.00    -0.433 A  
HETATM   24  C   UNL     1     -13.403   8.513  71.704  1.00  0.00    -0.372 A  
ENDBRANCH   7  19
BRANCH   8  25
HETATM   25  C   UNL     1     -10.278  11.418  68.294  1.00  0.00    -0.204 A  
HETATM   26  C   UNL     1      -9.536  12.596  68.483  1.00  0.00    -0.112 A  
HETATM   27  C   UNL     1     -12.019  12.834  67.313  1.00  0.00    -0.345 A  
HETATM   28  C   UNL     1     -11.545  11.570  67.706  1.00  0.00    -0.338 A  
HETATM   29  F   UNL     1     -11.635  15.145  67.008  1.00  0.00    -0.343 F  
HETATM   30  C   UNL     1      -9.957  13.840  68.007  1.00  0.00    -0.246 A  
HETATM   31  C   UNL     1     -11.206  13.952  67.433  1.00  0.00    -0.312 A  
ENDBRANCH   8  25
BRANCH   6  32
HETATM   32  C   UNL     1      -7.751  10.122  67.126  1.00  0.00    -0.092 C  
BRANCH  32  33
HETATM   33  C   UNL     1      -7.844   9.467  65.736  1.00  0.00    -0.099 C  
BRANCH  33  34
HETATM   34  C   UNL     1      -9.188   9.704  65.016  1.00  0.00    -0.250 C  
HETATM   35  O   UNL     1     -10.268   9.005  65.636  1.00  0.00    -0.321 OA 
HETATM   36  H   UNL     1     -11.095   9.151  65.193  1.00  0.00     0.000 HD 
BRANCH  34  37
HETATM   37  C   UNL     1      -9.551  11.199  65.044  1.00  0.00    -0.278 C  
BRANCH  37  38
HETATM   38  C   UNL     1      -9.841  11.785  63.651  1.00  0.00    -0.335 C  
HETATM   39  H   UNL     1      -9.164  11.565  61.796  1.00  0.00     0.000 HD 
HETATM   40  O   UNL     1      -8.985  11.203  62.656  1.00  0.00    -0.306 OA 
BRANCH  38  41
HETATM   41  C   UNL     1     -11.282  11.492  63.235  1.00  0.00    -0.239 C  
HETATM   42  C   UNL     1     -12.279  12.468  63.813  1.00  0.00    -0.525 C  
HETATM   43  O   UNL     1     -11.863  13.753  63.831  1.00  0.00    -0.398 OA 
HETATM   44  O   UNL     1     -13.402  12.139  64.169  1.00  0.00    -0.750 OA 
ENDBRANCH  38  41
ENDBRANCH  37  38
ENDBRANCH  34  37
ENDBRANCH  33  34
ENDBRANCH  32  33
ENDBRANCH   6  32
TORSDOF 10
ENDMDL
MODEL       46
REMARK 921   NORMALIZED FREE ENERGY PREDICTED BY IDOCK:   -6.06 KCAL/MOL
REMARK 922        TOTAL FREE ENERGY PREDICTED BY IDOCK:  -12.36 KCAL/MOL
REMARK 923 INTER-LIGAND FREE ENERGY PREDICTED BY IDOCK:   -8.64 KCAL/MOL
REMARK 924 INTRA-LIGAND FREE ENERGY PREDICTED BY IDOCK:   -3.72 KCAL/MOL
REMARK 927      BINDING AFFINITY PREDICTED BY RF-SCORE:    0.00 PKD
ROOT
HETATM    1  C   UNL     1     -13.018  11.759  71.575  1.00  0.00    -0.446 C  
HETATM    2  C   UNL     1     -12.723  10.265  71.720  1.00  0.00    -0.535 C  
HETATM    3  C   UNL     1     -11.415   9.779  71.082  1.00  0.00    -0.398 A  
HETATM    4  C   UNL     1     -13.962   9.443  71.353  1.00  0.00    -0.172 C  
HETATM    5  C   UNL     1     -10.655  10.242  69.991  1.00  0.00    -0.321 A  
HETATM    6  N   UNL     1     -10.675   8.753  71.686  1.00  0.00    -0.299 NA 
HETATM    7  C   UNL     1      -9.331   9.616  70.102  1.00  0.00    -0.294 A  
HETATM    8  C   UNL     1      -9.397   8.638  71.112  1.00  0.00    -0.216 A  
ENDROOT
BRANCH   5   9
HETATM    9  C   UNL     1     -11.051  11.277  68.985  1.00  0.00    -0.244 C  
HETATM   10  O   UNL     1     -12.065  11.123  68.303  1.00  0.00    -0.620 OA 
HETATM   11  N   UNL     1     -10.214  12.381  68.899  1.00  0.00    -0.423 N  
HETATM   12  H   UNL     1      -9.372  12.370  69.476  1.00  0.00     0.000 HD 
BRANCH  11  13
HETATM   13  C   UNL     1     -10.419  13.524  68.082  1.00  0.00    -0.244 A  
HETATM   14  C   UNL     1     -11.168  15.813  67.711  1.00  0.00    -0.286 A  
HETATM   15  C   UNL     1     -10.783  15.745  66.375  1.00  0.00    -0.277 A  
HETATM   16  C   UNL     1     -10.002  13.482  66.745  1.00  0.00    -0.269 A  
HETATM   17  C   UNL     1     -10.995  14.707  68.556  1.00  0.00    -0.261 A  
HETATM   18  C   UNL     1     -10.208  14.574  65.889  1.00  0.00    -0.339 A  
ENDBRANCH  11  13
ENDBRANCH   5   9
BRANCH   7  19
HETATM   19  C   UNL     1      -8.092   9.907  69.328  1.00  0.00    -0.128 A  
HETATM   20  C   UNL     1      -7.953   9.474  67.995  1.00  0.00    -0.091 A  
HETATM   21  C   UNL     1      -5.848  10.861  69.138  1.00  0.00    -0.041 A  
HETATM   22  C   UNL     1      -5.755  10.462  67.808  1.00  0.00    -0.044 A  
HETATM   23  C   UNL     1      -7.013  10.611  69.883  1.00  0.00    -0.148 A  
HETATM   24  C   UNL     1      -6.815   9.775  67.232  1.00  0.00    -0.083 A  
ENDBRANCH   7  19
BRANCH   8  25
HETATM   25  C   UNL     1      -8.384   7.603  71.535  1.00  0.00    -0.114 A  
HETATM   26  C   UNL     1      -8.022   6.530  70.704  1.00  0.00    -0.111 A  
HETATM   27  C   UNL     1      -6.794   6.699  73.165  1.00  0.00    -0.076 A  
HETATM   28  C   UNL     1      -7.752   7.658  72.789  1.00  0.00    -0.118 A  
HETATM   29  F   UNL     1      -5.452   4.838  72.603  1.00  0.00    -0.007 F  
HETATM   30  C   UNL     1      -7.003   5.631  71.029  1.00  0.00    -0.065 A  
HETATM   31  C   UNL     1      -6.402   5.717  72.267  1.00  0.00    -0.048 A  
ENDBRANCH   8  25
BRANCH   6  32
HETATM   32  C   UNL     1     -11.212   7.843  72.709  1.00  0.00    -0.405 C  
BRANCH  32  33
HETATM   33  C   UNL     1     -11.719   6.483  72.195  1.00  0.00    -0.353 C  
BRANCH  33  34
HETATM   34  C   UNL     1     -11.212   5.273  73.007  1.00  0.00    -0.324 C  
HETATM   35  O   UNL     1     -12.280   4.477  73.521  1.00  0.00    -0.204 OA 
HETATM   36  H   UNL     1     -11.968   3.731  74.021  1.00  0.00     0.000 HD 
BRANCH  34  37
HETATM   37  C   UNL     1     -10.359   4.352  72.116  1.00  0.00    -0.213 C  
BRANCH  37  38
HETATM   38  C   UNL     1      -9.565   3.298  72.908  1.00  0.00    -0.112 C  
HETATM   39  H   UNL     1      -9.941   1.875  74.243  1.00  0.00     0.000 HD 
HETATM   40  O   UNL     1     -10.431   2.526  73.755  1.00  0.00    -0.117 OA 
BRANCH  38  41
HETATM   41  C   UNL     1      -8.876   2.321  71.957  1.00  0.00    -0.106 C  
HETATM   42  C   UNL     1      -7.402   2.152  72.244  1.00  0.00    -0.039 C  
HETATM   43  O   UNL     1      -7.086   2.106  73.556  1.00  0.00    -0.026 OA 
HETATM   44  O   UNL     1      -6.567   1.995  71.364  1.00  0.00    -0.022 OA 
ENDBRANCH  38  41
ENDBRANCH  37  38
ENDBRANCH  34  37
ENDBRANCH  33  34
ENDBRANCH  32  33
ENDBRANCH   6  32
TORSDOF 10
ENDMDL
MODEL       47
REMARK 921   NORMALIZED FREE ENERGY PREDICTED BY IDOCK:   -6.03 KCAL/MOL
REMARK 922        TOTAL FREE ENERGY PREDICTED BY IDOCK:  -12.31 KCAL/MOL
REMARK 923 INTER-LIGAND FREE ENERGY PREDICTED BY IDOCK:   -9.68 KCAL/MOL
REMARK 924 INTRA-LIGAND FREE ENERGY PREDICTED BY IDOCK:   -2.63 KCAL/MOL
REMARK 927      BINDING AFFINITY PREDICTED BY RF-SCORE:    0.00 PKD
ROOT
HETATM    1  C   UNL     1     -12.764  13.953  65.920  1.00  0.00    -0.466 C  
HETATM    2  C   UNL     1     -11.896  12.724  65.642  1.00  0.00    -0.472 C  
HETATM    3  C   UNL     1     -10.461  12.787  66.179  1.00  0.00    -0.267 A  
HETATM    4  C   UNL     1     -12.017  12.312  64.172  1.00  0.00    -0.518 C  
HETATM    5  C   UNL     1      -9.583  13.858  66.434  1.00  0.00    -0.292 A  
HETATM    6  N   UNL     1      -9.833  11.626  66.653  1.00  0.00    -0.197 NA 
HETATM    7  C   UNL     1      -8.510  13.330  67.287  1.00  0.00    -0.203 A  
HETATM    8  C   UNL     1      -8.645  11.930  67.339  1.00  0.00    -0.164 A  
ENDROOT
BRANCH   5   9
HETATM    9  C   UNL     1      -9.763  15.291  66.042  1.00  0.00    -0.335 C  
HETATM   10  O   UNL     1     -10.169  15.579  64.916  1.00  0.00    -0.374 OA 
HETATM   11  N   UNL     1      -9.454  16.224  67.022  1.00  0.00    -0.222 N  
HETATM   12  H   UNL     1      -9.073  15.866  67.898  1.00  0.00     0.000 HD 
BRANCH  11  13
HETATM   13  C   UNL     1      -9.617  17.631  66.918  1.00  0.00    -0.286 A  
HETATM   14  C   UNL     1     -10.879  19.692  67.225  1.00  0.00    -0.519 A  
HETATM   15  C   UNL     1      -9.843  20.435  66.667  1.00  0.00    -0.496 A  
HETATM   16  C   UNL     1      -8.566  18.395  66.392  1.00  0.00    -0.264 A  
HETATM   17  C   UNL     1     -10.770  18.298  67.341  1.00  0.00    -0.377 A  
HETATM   18  C   UNL     1      -8.688  19.785  66.242  1.00  0.00    -0.403 A  
ENDBRANCH  11  13
ENDBRANCH   5   9
BRANCH   7  19
HETATM   19  C   UNL     1      -7.437  14.073  68.005  1.00  0.00    -0.141 A  
HETATM   20  C   UNL     1      -7.685  14.671  69.257  1.00  0.00    -0.091 A  
HETATM   21  C   UNL     1      -5.154  14.936  68.166  1.00  0.00    -0.114 A  
HETATM   22  C   UNL     1      -5.412  15.478  69.422  1.00  0.00    -0.107 A  
HETATM   23  C   UNL     1      -6.145  14.217  67.477  1.00  0.00     0.048 A  
HETATM   24  C   UNL     1      -6.678  15.336  69.973  1.00  0.00    -0.104 A  
ENDBRANCH   7  19
BRANCH   8  25
HETATM   25  C   UNL     1      -7.739  10.884  67.938  1.00  0.00    -0.104 A  
HETATM   26  C   UNL     1      -7.694  10.641  69.321  1.00  0.00    -0.142 A  
HETATM   27  C   UNL     1      -6.062   9.114  67.711  1.00  0.00    -0.050 A  
HETATM   28  C   UNL     1      -6.888  10.099  67.142  1.00  0.00    -0.082 A  
HETATM   29  F   UNL     1      -5.384   7.873  69.604  1.00  0.00    -0.022 F  
HETATM   30  C   UNL     1      -6.951   9.599  69.883  1.00  0.00    -0.081 A  
HETATM   31  C   UNL     1      -6.128   8.847  69.071  1.00  0.00    -0.043 A  
ENDBRANCH   8  25
BRANCH   6  32
HETATM   32  C   UNL     1     -10.302  10.261  66.367  1.00  0.00    -0.195 C  
BRANCH  32  33
HETATM   33  C   UNL     1     -10.704   9.422  67.594  1.00  0.00    -0.295 C  
BRANCH  33  34
HETATM   34  C   UNL     1     -11.187  10.256  68.798  1.00  0.00    -0.206 C  
HETATM   35  O   UNL     1     -12.401  10.955  68.524  1.00  0.00    -0.807 OA 
HETATM   36  H   UNL     1     -12.699  11.469  69.266  1.00  0.00     0.000 HD 
BRANCH  34  37
HETATM   37  C   UNL     1     -11.462   9.342  70.005  1.00  0.00    -0.077 C  
BRANCH  37  38
HETATM   38  C   UNL     1     -10.421   8.222  70.175  1.00  0.00    -0.225 C  
HETATM   39  H   UNL     1      -9.335   7.439  71.643  1.00  0.00     0.000 HD 
HETATM   40  O   UNL     1      -9.977   8.129  71.538  1.00  0.00    -0.168 OA 
BRANCH  38  41
HETATM   41  C   UNL     1     -11.023   6.868  69.804  1.00  0.00    -0.310 C  
HETATM   42  C   UNL     1     -10.317   6.198  68.649  1.00  0.00    -0.206 C  
HETATM   43  O   UNL     1      -8.972   6.322  68.664  1.00  0.00    -0.128 OA 
HETATM   44  O   UNL     1     -10.903   5.534  67.806  1.00  0.00    -0.171 OA 
ENDBRANCH  38  41
ENDBRANCH  37  38
ENDBRANCH  34  37
ENDBRANCH  33  34
ENDBRANCH  32  33
ENDBRANCH   6  32
TORSDOF 10
ENDMDL
MODEL       48
REMARK 921   NORMALIZED FREE ENERGY PREDICTED BY IDOCK:   -6.01 KCAL/MOL
REMARK 922        TOTAL FREE ENERGY PREDICTED BY IDOCK:  -12.28 KCAL/MOL
REMARK 923 INTER-LIGAND FREE ENERGY PREDICTED BY IDOCK:   -9.68 KCAL/MOL
REMARK 924 INTRA-LIGAND FREE ENERGY PREDICTED BY IDOCK:   -2.59 KCAL/MOL
REMARK 927      BINDING AFFINITY PREDICTED BY RF-SCORE:    0.00 PKD
ROOT
HETATM    1  C   UNL     1     -12.298   7.338  71.267  1.00  0.00    -0.401 C  
HETATM    2  C   UNL     1     -11.294   8.360  70.732  1.00  0.00    -0.290 C  
HETATM    3  C   UNL     1     -10.483   7.919  69.506  1.00  0.00    -0.226 A  
HETATM    4  C   UNL     1     -10.461   8.936  71.881  1.00  0.00    -0.415 C  
HETATM    5  C   UNL     1     -10.070   6.657  69.038  1.00  0.00    -0.176 A  
HETATM    6  N   UNL     1     -10.127   8.853  68.524  1.00  0.00    -0.183 NA 
HETATM    7  C   UNL     1      -9.664   6.837  67.639  1.00  0.00    -0.146 A  
HETATM    8  C   UNL     1      -9.631   8.219  67.371  1.00  0.00    -0.160 A  
ENDROOT
BRANCH   5   9
HETATM    9  C   UNL     1     -10.154   5.350  69.763  1.00  0.00    -0.249 C  
HETATM   10  O   UNL     1     -10.390   4.312  69.145  1.00  0.00     0.156 OA 
HETATM   11  N   UNL     1      -9.944   5.410  71.134  1.00  0.00    -0.187 N  
HETATM   12  H   UNL     1      -9.813   6.337  71.542  1.00  0.00     0.000 HD 
BRANCH  11  13
HETATM   13  C   UNL     1      -9.895   4.303  72.022  1.00  0.00    -0.175 A  
HETATM   14  C   UNL     1      -8.799   2.357  72.997  1.00  0.00    -0.075 A  
HETATM   15  C   UNL     1      -9.895   2.128  73.824  1.00  0.00    -0.133 A  
HETATM   16  C   UNL     1     -10.976   4.084  72.887  1.00  0.00    -0.145 A  
HETATM   17  C   UNL     1      -8.804   3.433  72.096  1.00  0.00    -0.126 A  
HETATM   18  C   UNL     1     -10.989   2.987  73.763  1.00  0.00    -0.313 A  
ENDBRANCH  11  13
ENDBRANCH   5   9
BRANCH   7  19
HETATM   19  C   UNL     1      -9.333   5.802  66.621  1.00  0.00    -0.155 A  
HETATM   20  C   UNL     1      -7.994   5.461  66.345  1.00  0.00    -0.104 A  
HETATM   21  C   UNL     1      -9.986   4.164  64.925  1.00  0.00    -0.208 A  
HETATM   22  C   UNL     1      -8.656   3.813  64.705  1.00  0.00    -0.109 A  
HETATM   23  C   UNL     1     -10.323   5.127  65.892  1.00  0.00    -0.165 A  
HETATM   24  C   UNL     1      -7.659   4.457  65.424  1.00  0.00    -0.085 A  
ENDBRANCH   7  19
BRANCH   8  25
HETATM   25  C   UNL     1      -9.142   8.965  66.155  1.00  0.00    -0.251 A  
HETATM   26  C   UNL     1      -7.777   9.057  65.836  1.00  0.00    -0.094 A  
HETATM   27  C   UNL     1      -9.563  10.289  64.137  1.00  0.00    -0.376 A  
HETATM   28  C   UNL     1     -10.030   9.612  65.279  1.00  0.00    -0.159 A  
HETATM   29  F   UNL     1      -7.776  10.861  62.701  1.00  0.00    -0.151 F  
HETATM   30  C   UNL     1      -7.314   9.641  64.654  1.00  0.00    -0.123 A  
HETATM   31  C   UNL     1      -8.214  10.265  63.816  1.00  0.00    -0.153 A  
ENDBRANCH   8  25
BRANCH   6  32
HETATM   32  C   UNL     1     -10.161  10.310  68.721  1.00  0.00    -0.187 C  
BRANCH  32  33
HETATM   33  C   UNL     1     -11.445  11.019  68.250  1.00  0.00    -0.374 C  
BRANCH  33  34
HETATM   34  C   UNL     1     -11.288  12.540  68.052  1.00  0.00    -0.289 C  
HETATM   35  O   UNL     1     -10.858  13.203  69.241  1.00  0.00    -0.417 OA 
HETATM   36  H   UNL     1     -10.761  14.140  69.119  1.00  0.00     0.000 HD 
BRANCH  34  37
HETATM   37  C   UNL     1     -10.231  12.832  66.972  1.00  0.00    -0.245 C  
BRANCH  37  38
HETATM   38  C   UNL     1     -10.514  14.112  66.167  1.00  0.00    -0.296 C  
HETATM   39  H   UNL     1      -9.533  15.753  65.627  1.00  0.00     0.000 HD 
HETATM   40  O   UNL     1      -9.358  14.963  66.124  1.00  0.00    -0.292 OA 
BRANCH  38  41
HETATM   41  C   UNL     1     -10.875  13.769  64.723  1.00  0.00    -0.410 C  
HETATM   42  C   UNL     1     -12.313  13.336  64.555  1.00  0.00    -0.368 C  
HETATM   43  O   UNL     1     -13.201  14.039  65.291  1.00  0.00    -0.782 OA 
HETATM   44  O   UNL     1     -12.660  12.471  63.764  1.00  0.00    -0.644 OA 
ENDBRANCH  38  41
ENDBRANCH  37  38
ENDBRANCH  34  37
ENDBRANCH  33  34
ENDBRANCH  32  33
ENDBRANCH   6  32
TORSDOF 10
ENDMDL
MODEL       49
REMARK 921   NORMALIZED FREE ENERGY PREDICTED BY IDOCK:   -6.00 KCAL/MOL
REMARK 922        TOTAL FREE ENERGY PREDICTED BY IDOCK:  -12.27 KCAL/MOL
REMARK 923 INTER-LIGAND FREE ENERGY PREDICTED BY IDOCK:   -8.44 KCAL/MOL
REMARK 924 INTRA-LIGAND FREE ENERGY PREDICTED BY IDOCK:   -3.82 KCAL/MOL
REMARK 927      BINDING AFFINITY PREDICTED BY RF-SCORE:    0.00 PKD
ROOT
HETATM    1  C   UNL     1     -11.850  12.372  70.531  1.00  0.00    -0.153 C  
HETATM    2  C   UNL     1     -12.017  10.852  70.480  1.00  0.00    -0.466 C  
HETATM    3  C   UNL     1     -11.239  10.134  69.369  1.00  0.00    -0.215 A  
HETATM    4  C   UNL     1     -13.499  10.479  70.572  1.00  0.00     0.273 C  
HETATM    5  C   UNL     1     -10.799  10.542  68.095  1.00  0.00    -0.300 A  
HETATM    6  N   UNL     1     -10.704   8.858  69.595  1.00  0.00    -0.233 NA 
HETATM    7  C   UNL     1      -9.793   9.563  67.663  1.00  0.00    -0.206 A  
HETATM    8  C   UNL     1      -9.813   8.489  68.573  1.00  0.00    -0.173 A  
ENDROOT
BRANCH   5   9
HETATM    9  C   UNL     1     -11.167  11.796  67.368  1.00  0.00    -0.297 C  
HETATM   10  O   UNL     1     -12.267  11.899  66.825  1.00  0.00    -0.489 OA 
HETATM   11  N   UNL     1     -10.201  12.794  67.367  1.00  0.00    -0.221 N  
HETATM   12  H   UNL     1      -9.306  12.572  67.803  1.00  0.00     0.000 HD 
BRANCH  11  13
HETATM   13  C   UNL     1     -10.344  14.095  66.816  1.00  0.00    -0.274 A  
HETATM   14  C   UNL     1     -10.482  16.521  67.001  1.00  0.00    -0.289 A  
HETATM   15  C   UNL     1     -10.632  16.639  65.622  1.00  0.00    -0.282 A  
HETATM   16  C   UNL     1     -10.458  14.230  65.426  1.00  0.00    -0.382 A  
HETATM   17  C   UNL     1     -10.348  15.257  67.594  1.00  0.00    -0.250 A  
HETATM   18  C   UNL     1     -10.630  15.491  64.834  1.00  0.00    -0.370 A  
ENDBRANCH  11  13
ENDBRANCH   5   9
BRANCH   7  19
HETATM   19  C   UNL     1      -8.875   9.622  66.492  1.00  0.00    -0.158 A  
HETATM   20  C   UNL     1      -9.312   9.233  65.210  1.00  0.00    -0.269 A  
HETATM   21  C   UNL     1      -6.693  10.087  65.488  1.00  0.00    -0.105 A  
HETATM   22  C   UNL     1      -7.165   9.742  64.224  1.00  0.00    -0.129 A  
HETATM   23  C   UNL     1      -7.545  10.055  66.605  1.00  0.00    -0.104 A  
HETATM   24  C   UNL     1      -8.480   9.324  64.084  1.00  0.00    -0.203 A  
ENDBRANCH   7  19
BRANCH   8  25
HETATM   25  C   UNL     1      -9.103   7.159  68.528  1.00  0.00    -0.132 A  
HETATM   26  C   UNL     1      -7.890   6.939  69.202  1.00  0.00    -0.111 A  
HETATM   27  C   UNL     1      -8.956   4.829  67.786  1.00  0.00    -0.122 A  
HETATM   28  C   UNL     1      -9.617   6.070  67.804  1.00  0.00    -0.113 A  
HETATM   29  F   UNL     1      -7.214   3.441  68.576  1.00  0.00    -0.048 F  
HETATM   30  C   UNL     1      -7.279   5.684  69.270  1.00  0.00    -0.066 A  
HETATM   31  C   UNL     1      -7.813   4.637  68.549  1.00  0.00    -0.080 A  
ENDBRANCH   8  25
BRANCH   6  32
HETATM   32  C   UNL     1     -11.114   7.977  70.700  1.00  0.00    -0.262 C  
BRANCH  32  33
HETATM   33  C   UNL     1     -10.281   8.092  71.990  1.00  0.00    -0.288 C  
BRANCH  33  34
HETATM   34  C   UNL     1     -10.894   7.361  73.202  1.00  0.00    -0.386 C  
HETATM   35  O   UNL     1     -11.970   6.499  72.832  1.00  0.00    -0.462 OA 
HETATM   36  H   UNL     1     -12.347   6.049  73.578  1.00  0.00     0.000 HD 
BRANCH  34  37
HETATM   37  C   UNL     1      -9.833   6.480  73.886  1.00  0.00    -0.272 C  
BRANCH  37  38
HETATM   38  C   UNL     1      -8.689   6.058  72.947  1.00  0.00    -0.123 C  
HETATM   39  H   UNL     1      -6.717   6.281  72.844  1.00  0.00     0.000 HD 
HETATM   40  O   UNL     1      -7.423   6.541  73.423  1.00  0.00    -0.085 OA 
BRANCH  38  41
HETATM   41  C   UNL     1      -8.591   4.535  72.873  1.00  0.00    -0.109 C  
HETATM   42  C   UNL     1      -9.771   3.896  72.181  1.00  0.00    -0.159 C  
HETATM   43  O   UNL     1     -10.218   4.566  71.097  1.00  0.00    -0.174 OA 
HETATM   44  O   UNL     1     -10.242   2.821  72.524  1.00  0.00    -0.157 OA 
ENDBRANCH  38  41
ENDBRANCH  37  38
ENDBRANCH  34  37
ENDBRANCH  33  34
ENDBRANCH  32  33
ENDBRANCH   6  32
TORSDOF 10
ENDMDL
MODEL       50
REMARK 921   NORMALIZED FREE ENERGY PREDICTED BY IDOCK:   -5.99 KCAL/MOL
REMARK 922        TOTAL FREE ENERGY PREDICTED BY IDOCK:  -12.24 KCAL/MOL
REMARK 923 INTER-LIGAND FREE ENERGY PREDICTED BY IDOCK:   -8.89 KCAL/MOL
REMARK 924 INTRA-LIGAND FREE ENERGY PREDICTED BY IDOCK:   -3.35 KCAL/MOL
REMARK 927      BINDING AFFINITY PREDICTED BY RF-SCORE:    0.00 PKD
ROOT
HETATM    1  C   UNL     1     -12.425  11.448  71.573  1.00  0.00    -0.305 C  
HETATM    2  C   UNL     1     -12.547   9.961  71.234  1.00  0.00    -0.480 C  
HETATM    3  C   UNL     1     -11.609   9.450  70.132  1.00  0.00    -0.078 A  
HETATM    4  C   UNL     1     -14.018   9.578  71.056  1.00  0.00     0.079 C  
HETATM    5  C   UNL     1     -11.012  10.076  69.021  1.00  0.00    -0.249 A  
HETATM    6  N   UNL     1     -11.080   8.154  70.202  1.00  0.00    -0.228 NA 
HETATM    7  C   UNL     1      -9.933   9.188  68.566  1.00  0.00    -0.192 A  
HETATM    8  C   UNL     1     -10.051   7.970  69.263  1.00  0.00    -0.198 A  
ENDROOT
BRANCH   5   9
HETATM    9  C   UNL     1     -11.308  11.439  68.481  1.00  0.00    -0.271 C  
HETATM   10  O   UNL     1     -12.223  11.601  67.673  1.00  0.00    -0.544 OA 
HETATM   11  N   UNL     1     -10.498  12.462  68.958  1.00  0.00    -0.422 N  
HETATM   12  H   UNL     1      -9.736  12.196  69.583  1.00  0.00     0.000 HD 
BRANCH  11  13
HETATM   13  C   UNL     1     -10.632  13.843  68.658  1.00  0.00    -0.257 A  
HETATM   14  C   UNL     1     -10.275  15.795  67.244  1.00  0.00    -0.268 A  
HETATM   15  C   UNL     1     -10.953  16.603  68.152  1.00  0.00    -0.327 A  
HETATM   16  C   UNL     1     -11.344  14.660  69.545  1.00  0.00    -0.314 A  
HETATM   17  C   UNL     1     -10.108  14.426  67.500  1.00  0.00    -0.232 A  
HETATM   18  C   UNL     1     -11.480  16.037  69.309  1.00  0.00    -0.350 A  
ENDBRANCH  11  13
ENDBRANCH   5   9
BRANCH   7  19
HETATM   19  C   UNL     1      -8.868   9.452  67.560  1.00  0.00    -0.123 A  
HETATM   20  C   UNL     1      -9.040   9.084  66.211  1.00  0.00    -0.224 A  
HETATM   21  C   UNL     1      -6.656  10.291  66.937  1.00  0.00    -0.076 A  
HETATM   22  C   UNL     1      -6.871   9.960  65.602  1.00  0.00    -0.106 A  
HETATM   23  C   UNL     1      -7.654  10.066  67.901  1.00  0.00    -0.089 A  
HETATM   24  C   UNL     1      -8.070   9.364  65.237  1.00  0.00    -0.124 A  
ENDBRANCH   7  19
BRANCH   8  25
HETATM   25  C   UNL     1      -9.310   6.669  69.083  1.00  0.00    -0.134 A  
HETATM   26  C   UNL     1      -7.909   6.594  69.145  1.00  0.00    -0.111 A  
HETATM   27  C   UNL     1      -9.285   4.250  68.696  1.00  0.00    -0.197 A  
HETATM   28  C   UNL     1      -9.985   5.461  68.841  1.00  0.00    -0.247 A  
HETATM   29  F   UNL     1      -7.246   3.058  68.780  1.00  0.00    -0.047 F  
HETATM   30  C   UNL     1      -7.212   5.384  69.100  1.00  0.00    -0.058 A  
HETATM   31  C   UNL     1      -7.908   4.217  68.863  1.00  0.00    -0.069 A  
ENDBRANCH   8  25
BRANCH   6  32
HETATM   32  C   UNL     1     -11.614   7.092  71.069  1.00  0.00    -0.320 C  
BRANCH  32  33
HETATM   33  C   UNL     1     -11.386   7.284  72.580  1.00  0.00    -0.338 C  
BRANCH  33  34
HETATM   34  C   UNL     1     -10.865   6.026  73.304  1.00  0.00    -0.252 C  
HETATM   35  O   UNL     1     -11.846   4.991  73.370  1.00  0.00    -0.476 OA 
HETATM   36  H   UNL     1     -11.525   4.215  73.816  1.00  0.00     0.000 HD 
BRANCH  34  37
HETATM   37  C   UNL     1      -9.652   5.444  72.556  1.00  0.00    -0.169 C  
BRANCH  37  38
HETATM   38  C   UNL     1      -8.308   5.741  73.243  1.00  0.00    -0.116 C  
HETATM   39  H   UNL     1      -6.647   4.753  73.706  1.00  0.00     0.000 HD 
HETATM   40  O   UNL     1      -7.476   4.570  73.282  1.00  0.00    -0.078 OA 
BRANCH  38  41
HETATM   41  C   UNL     1      -7.538   6.814  72.475  1.00  0.00    -0.095 C  
HETATM   42  C   UNL     1      -8.028   8.215  72.758  1.00  0.00    -0.155 C  
HETATM   43  O   UNL     1      -8.344   8.449  74.050  1.00  0.00    -0.296 OA 
HETATM   44  O   UNL     1      -8.067   9.091  71.906  1.00  0.00    -0.359 OA 
ENDBRANCH  38  41
ENDBRANCH  37  38
ENDBRANCH  34  37
ENDBRANCH  33  34
ENDBRANCH  32  33
ENDBRANCH   6  32
TORSDOF 10
ENDMDL
MODEL       51
REMARK 921   NORMALIZED FREE ENERGY PREDICTED BY IDOCK:   -5.99 KCAL/MOL
REMARK 922        TOTAL FREE ENERGY PREDICTED BY IDOCK:  -12.24 KCAL/MOL
REMARK 923 INTER-LIGAND FREE ENERGY PREDICTED BY IDOCK:   -9.41 KCAL/MOL
REMARK 924 INTRA-LIGAND FREE ENERGY PREDICTED BY IDOCK:   -2.83 KCAL/MOL
REMARK 927      BINDING AFFINITY PREDICTED BY RF-SCORE:    0.00 PKD
ROOT
HETATM    1  C   UNL     1     -13.000  11.473  71.509  1.00  0.00    -0.485 C  
HETATM    2  C   UNL     1     -12.576  10.035  71.813  1.00  0.00    -0.504 C  
HETATM    3  C   UNL     1     -11.210   9.612  71.257  1.00  0.00    -0.376 A  
HETATM    4  C   UNL     1     -13.723   9.069  71.505  1.00  0.00    -0.388 C  
HETATM    5  C   UNL     1     -10.461  10.033  70.140  1.00  0.00    -0.338 A  
HETATM    6  N   UNL     1     -10.399   8.725  71.978  1.00  0.00    -0.343 NA 
HETATM    7  C   UNL     1      -9.090   9.547  70.343  1.00  0.00    -0.296 A  
HETATM    8  C   UNL     1      -9.099   8.673  71.446  1.00  0.00    -0.229 A  
ENDROOT
BRANCH   5   9
HETATM    9  C   UNL     1     -10.918  10.921  69.026  1.00  0.00    -0.235 C  
HETATM   10  O   UNL     1     -11.817  10.553  68.269  1.00  0.00    -0.406 OA 
HETATM   11  N   UNL     1     -10.271  12.146  68.931  1.00  0.00    -0.413 N  
HETATM   12  H   UNL     1      -9.504  12.315  69.581  1.00  0.00     0.000 HD 
BRANCH  11  13
HETATM   13  C   UNL     1     -10.578  13.185  68.013  1.00  0.00    -0.236 A  
HETATM   14  C   UNL     1     -11.584  15.324  67.423  1.00  0.00    -0.196 A  
HETATM   15  C   UNL     1     -11.136  15.198  66.112  1.00  0.00    -0.311 A  
HETATM   16  C   UNL     1     -10.101  13.087  66.699  1.00  0.00    -0.251 A  
HETATM   17  C   UNL     1     -11.315  14.320  68.365  1.00  0.00    -0.309 A  
HETATM   18  C   UNL     1     -10.401  14.073  65.746  1.00  0.00    -0.330 A  
ENDBRANCH  11  13
ENDBRANCH   5   9
BRANCH   7  19
HETATM   19  C   UNL     1      -7.859   9.874  69.571  1.00  0.00    -0.140 A  
HETATM   20  C   UNL     1      -6.663  10.221  70.230  1.00  0.00    -0.143 A  
HETATM   21  C   UNL     1      -6.662  10.187  67.461  1.00  0.00    -0.072 A  
HETATM   22  C   UNL     1      -5.481  10.481  68.138  1.00  0.00    -0.036 A  
HETATM   23  C   UNL     1      -7.831   9.859  68.169  1.00  0.00    -0.085 A  
HETATM   24  C   UNL     1      -5.480  10.488  69.526  1.00  0.00    -0.038 A  
ENDBRANCH   7  19
BRANCH   8  25
HETATM   25  C   UNL     1      -8.010   7.785  71.995  1.00  0.00    -0.121 A  
HETATM   26  C   UNL     1      -7.415   8.022  73.245  1.00  0.00    -0.179 A  
HETATM   27  C   UNL     1      -6.530   5.842  71.811  1.00  0.00    -0.052 A  
HETATM   28  C   UNL     1      -7.531   6.674  71.280  1.00  0.00    -0.084 A  
HETATM   29  F   UNL     1      -5.133   5.241  73.620  1.00  0.00    -0.011 F  
HETATM   30  C   UNL     1      -6.491   7.146  73.822  1.00  0.00    -0.065 A  
HETATM   31  C   UNL     1      -6.045   6.064  73.093  1.00  0.00    -0.053 A  
ENDBRANCH   8  25
BRANCH   6  32
HETATM   32  C   UNL     1     -10.882   7.875  73.077  1.00  0.00    -0.342 C  
BRANCH  32  33
HETATM   33  C   UNL     1     -10.474   6.392  73.005  1.00  0.00    -0.253 C  
BRANCH  33  34
HETATM   34  C   UNL     1     -11.470   5.501  72.233  1.00  0.00    -0.156 C  
HETATM   35  O   UNL     1     -12.734   5.404  72.888  1.00  0.00    -0.414 OA 
HETATM   36  H   UNL     1     -13.348   4.856  72.412  1.00  0.00     0.000 HD 
BRANCH  34  37
HETATM   37  C   UNL     1     -11.736   6.086  70.835  1.00  0.00    -0.044 C  
BRANCH  37  38
HETATM   38  C   UNL     1     -10.592   5.835  69.837  1.00  0.00    -0.318 C  
HETATM   39  H   UNL     1      -9.426   4.320  69.292  1.00  0.00     0.000 HD 
HETATM   40  O   UNL     1     -10.132   4.475  69.907  1.00  0.00    -0.234 OA 
BRANCH  38  41
HETATM   41  C   UNL     1     -11.065   6.076  68.405  1.00  0.00    -0.271 C  
HETATM   42  C   UNL     1     -10.216   7.078  67.658  1.00  0.00    -0.193 C  
HETATM   43  O   UNL     1      -8.889   6.973  67.889  1.00  0.00    -0.125 OA 
HETATM   44  O   UNL     1     -10.678   7.873  66.853  1.00  0.00    -0.333 OA 
ENDBRANCH  38  41
ENDBRANCH  37  38
ENDBRANCH  34  37
ENDBRANCH  33  34
ENDBRANCH  32  33
ENDBRANCH   6  32
TORSDOF 10
ENDMDL
MODEL       52
REMARK 921   NORMALIZED FREE ENERGY PREDICTED BY IDOCK:   -5.98 KCAL/MOL
REMARK 922        TOTAL FREE ENERGY PREDICTED BY IDOCK:  -12.23 KCAL/MOL
REMARK 923 INTER-LIGAND FREE ENERGY PREDICTED BY IDOCK:   -8.84 KCAL/MOL
REMARK 924 INTRA-LIGAND FREE ENERGY PREDICTED BY IDOCK:   -3.39 KCAL/MOL
REMARK 927      BINDING AFFINITY PREDICTED BY RF-SCORE:    0.00 PKD
ROOT
HETATM    1  C   UNL     1     -12.720  13.888  65.777  1.00  0.00    -0.503 C  
HETATM    2  C   UNL     1     -11.797  12.724  65.414  1.00  0.00    -0.456 C  
HETATM    3  C   UNL     1     -10.380  12.789  65.999  1.00  0.00    -0.276 A  
HETATM    4  C   UNL     1     -11.860  12.448  63.909  1.00  0.00    -0.551 C  
HETATM    5  C   UNL     1      -9.553  13.864  66.380  1.00  0.00    -0.292 A  
HETATM    6  N   UNL     1      -9.720  11.613  66.382  1.00  0.00    -0.208 NA 
HETATM    7  C   UNL     1      -8.484  13.299  67.213  1.00  0.00    -0.203 A  
HETATM    8  C   UNL     1      -8.565  11.896  67.131  1.00  0.00    -0.172 A  
ENDROOT
BRANCH   5   9
HETATM    9  C   UNL     1      -9.780  15.319  66.117  1.00  0.00    -0.314 C  
HETATM   10  O   UNL     1      -9.918  15.727  64.963  1.00  0.00    -0.386 OA 
HETATM   11  N   UNL     1      -9.827  16.132  67.242  1.00  0.00    -0.238 N  
HETATM   12  H   UNL     1      -9.643  15.688  68.141  1.00  0.00     0.000 HD 
BRANCH  11  13
HETATM   13  C   UNL     1     -10.106  17.524  67.256  1.00  0.00    -0.327 A  
HETATM   14  C   UNL     1     -10.753  19.613  66.182  1.00  0.00    -0.520 A  
HETATM   15  C   UNL     1     -10.642  20.294  67.391  1.00  0.00    -0.217 A  
HETATM   16  C   UNL     1     -10.033  18.214  68.474  1.00  0.00    -0.408 A  
HETATM   17  C   UNL     1     -10.479  18.239  66.114  1.00  0.00    -0.403 A  
HETATM   18  C   UNL     1     -10.272  19.595  68.537  1.00  0.00    -0.529 A  
ENDBRANCH  11  13
ENDBRANCH   5   9
BRANCH   7  19
HETATM   19  C   UNL     1      -7.462  14.010  68.031  1.00  0.00    -0.141 A  
HETATM   20  C   UNL     1      -6.188  14.301  67.503  1.00  0.00     0.012 A  
HETATM   21  C   UNL     1      -6.725  15.071  70.108  1.00  0.00    -0.097 A  
HETATM   22  C   UNL     1      -5.491  15.387  69.547  1.00  0.00    -0.101 A  
HETATM   23  C   UNL     1      -7.711  14.415  69.351  1.00  0.00     0.061 A  
HETATM   24  C   UNL     1      -5.226  15.010  68.238  1.00  0.00    -0.114 A  
ENDBRANCH   7  19
BRANCH   8  25
HETATM   25  C   UNL     1      -7.634  10.833  67.659  1.00  0.00    -0.096 A  
HETATM   26  C   UNL     1      -7.804  10.258  68.930  1.00  0.00    -0.106 A  
HETATM   27  C   UNL     1      -5.696   9.358  67.400  1.00  0.00    -0.041 A  
HETATM   28  C   UNL     1      -6.545  10.363  66.906  1.00  0.00    -0.078 A  
HETATM   29  F   UNL     1      -5.192   7.761  69.068  1.00  0.00    -0.017 F  
HETATM   30  C   UNL     1      -7.026   9.192  69.388  1.00  0.00    -0.052 A  
HETATM   31  C   UNL     1      -5.966   8.755  68.621  1.00  0.00    -0.045 A  
ENDBRANCH   8  25
BRANCH   6  32
HETATM   32  C   UNL     1     -10.126  10.265  65.956  1.00  0.00    -0.244 C  
BRANCH  32  33
HETATM   33  C   UNL     1     -10.989   9.479  66.960  1.00  0.00     0.014 C  
BRANCH  33  34
HETATM   34  C   UNL     1     -10.406   8.105  67.352  1.00  0.00    -0.281 C  
HETATM   35  O   UNL     1     -11.337   7.042  67.154  1.00  0.00    -0.603 OA 
HETATM   36  H   UNL     1     -10.978   6.196  67.395  1.00  0.00     0.000 HD 
BRANCH  34  37
HETATM   37  C   UNL     1      -9.172   7.784  66.490  1.00  0.00    -0.229 C  
BRANCH  37  38
HETATM   38  C   UNL     1      -8.955   6.277  66.270  1.00  0.00    -0.155 C  
HETATM   39  H   UNL     1      -8.433   5.072  64.778  1.00  0.00     0.000 HD 
HETATM   40  O   UNL     1      -8.567   6.001  64.914  1.00  0.00    -0.111 OA 
BRANCH  38  41
HETATM   41  C   UNL     1      -7.836   5.759  67.172  1.00  0.00    -0.102 C  
HETATM   42  C   UNL     1      -8.274   5.551  68.603  1.00  0.00    -0.102 C  
HETATM   43  O   UNL     1      -9.510   5.024  68.742  1.00  0.00    -0.123 OA 
HETATM   44  O   UNL     1      -7.545   5.771  69.560  1.00  0.00    -0.083 OA 
ENDBRANCH  38  41
ENDBRANCH  37  38
ENDBRANCH  34  37
ENDBRANCH  33  34
ENDBRANCH  32  33
ENDBRANCH   6  32
TORSDOF 10
ENDMDL
MODEL       53
REMARK 921   NORMALIZED FREE ENERGY PREDICTED BY IDOCK:   -5.91 KCAL/MOL
REMARK 922        TOTAL FREE ENERGY PREDICTED BY IDOCK:  -12.11 KCAL/MOL
REMARK 923 INTER-LIGAND FREE ENERGY PREDICTED BY IDOCK:   -8.31 KCAL/MOL
REMARK 924 INTRA-LIGAND FREE ENERGY PREDICTED BY IDOCK:   -3.81 KCAL/MOL
REMARK 927      BINDING AFFINITY PREDICTED BY RF-SCORE:    0.00 PKD
ROOT
HETATM    1  C   UNL     1     -12.036  12.091  70.801  1.00  0.00    -0.297 C  
HETATM    2  C   UNL     1     -12.078  10.565  70.700  1.00  0.00    -0.452 C  
HETATM    3  C   UNL     1     -11.149   9.941  69.650  1.00  0.00    -0.241 A  
HETATM    4  C   UNL     1     -13.528  10.077  70.648  1.00  0.00     0.014 C  
HETATM    5  C   UNL     1     -10.630  10.418  68.431  1.00  0.00    -0.238 A  
HETATM    6  N   UNL     1     -10.538   8.703  69.895  1.00  0.00    -0.223 NA 
HETATM    7  C   UNL     1      -9.515   9.532  68.071  1.00  0.00    -0.147 A  
HETATM    8  C   UNL     1      -9.533   8.434  68.951  1.00  0.00    -0.147 A  
ENDROOT
BRANCH   5   9
HETATM    9  C   UNL     1     -11.029  11.662  67.701  1.00  0.00    -0.239 C  
HETATM   10  O   UNL     1     -12.157  11.764  67.219  1.00  0.00    -0.595 OA 
HETATM   11  N   UNL     1     -10.057  12.651  67.626  1.00  0.00    -0.215 N  
HETATM   12  H   UNL     1      -9.140  12.429  68.015  1.00  0.00     0.000 HD 
BRANCH  11  13
HETATM   13  C   UNL     1     -10.220  13.943  67.058  1.00  0.00    -0.254 A  
HETATM   14  C   UNL     1     -10.577  15.451  65.179  1.00  0.00    -0.458 A  
HETATM   15  C   UNL     1     -10.535  16.553  66.028  1.00  0.00    -0.320 A  
HETATM   16  C   UNL     1     -10.216  15.057  67.907  1.00  0.00    -0.228 A  
HETATM   17  C   UNL     1     -10.412  14.155  65.690  1.00  0.00    -0.333 A  
HETATM   18  C   UNL     1     -10.344  16.357  67.393  1.00  0.00    -0.295 A  
ENDBRANCH  11  13
ENDBRANCH   5   9
BRANCH   7  19
HETATM   19  C   UNL     1      -8.503   9.695  66.990  1.00  0.00    -0.124 A  
HETATM   20  C   UNL     1      -7.279  10.346  67.238  1.00  0.00    -0.089 A  
HETATM   21  C   UNL     1      -7.756   9.400  64.680  1.00  0.00    -0.117 A  
HETATM   22  C   UNL     1      -6.534  10.006  64.964  1.00  0.00    -0.117 A  
HETATM   23  C   UNL     1      -8.719   9.221  65.688  1.00  0.00    -0.193 A  
HETATM   24  C   UNL     1      -6.292  10.471  66.249  1.00  0.00    -0.106 A  
ENDBRANCH   7  19
BRANCH   8  25
HETATM   25  C   UNL     1      -8.719   7.163  68.941  1.00  0.00    -0.128 A  
HETATM   26  C   UNL     1      -9.044   6.076  68.113  1.00  0.00    -0.118 A  
HETATM   27  C   UNL     1      -6.830   5.820  69.734  1.00  0.00    -0.061 A  
HETATM   28  C   UNL     1      -7.593   7.001  69.765  1.00  0.00    -0.104 A  
HETATM   29  F   UNL     1      -6.381   3.716  68.757  1.00  0.00    -0.029 F  
HETATM   30  C   UNL     1      -8.237   4.940  68.003  1.00  0.00    -0.096 A  
HETATM   31  C   UNL     1      -7.138   4.816  68.826  1.00  0.00    -0.053 A  
ENDBRANCH   8  25
BRANCH   6  32
HETATM   32  C   UNL     1     -10.975   7.762  70.937  1.00  0.00    -0.250 C  
BRANCH  32  33
HETATM   33  C   UNL     1     -10.192   7.822  72.262  1.00  0.00    -0.285 C  
BRANCH  33  34
HETATM   34  C   UNL     1     -10.824   7.000  73.405  1.00  0.00    -0.299 C  
HETATM   35  O   UNL     1     -11.889   6.166  72.951  1.00  0.00    -0.501 OA 
HETATM   36  H   UNL     1     -12.278   5.659  73.655  1.00  0.00     0.000 HD 
BRANCH  34  37
HETATM   37  C   UNL     1      -9.772   6.074  74.041  1.00  0.00    -0.194 C  
BRANCH  37  38
HETATM   38  C   UNL     1      -8.663   5.646  73.064  1.00  0.00    -0.121 C  
HETATM   39  H   UNL     1      -6.687   5.804  72.928  1.00  0.00     0.000 HD 
HETATM   40  O   UNL     1      -7.371   6.067  73.530  1.00  0.00    -0.088 OA 
BRANCH  38  41
HETATM   41  C   UNL     1      -8.620   4.124  72.934  1.00  0.00    -0.100 C  
HETATM   42  C   UNL     1      -9.807   3.557  72.190  1.00  0.00    -0.168 C  
HETATM   43  O   UNL     1     -10.201   4.284  71.122  1.00  0.00    -0.140 OA 
HETATM   44  O   UNL     1     -10.326   2.489  72.481  1.00  0.00    -0.162 OA 
ENDBRANCH  38  41
ENDBRANCH  37  38
ENDBRANCH  34  37
ENDBRANCH  33  34
ENDBRANCH  32  33
ENDBRANCH   6  32
TORSDOF 10
ENDMDL
MODEL       54
REMARK 921   NORMALIZED FREE ENERGY PREDICTED BY IDOCK:   -5.86 KCAL/MOL
REMARK 922        TOTAL FREE ENERGY PREDICTED BY IDOCK:  -12.03 KCAL/MOL
REMARK 923 INTER-LIGAND FREE ENERGY PREDICTED BY IDOCK:   -8.77 KCAL/MOL
REMARK 924 INTRA-LIGAND FREE ENERGY PREDICTED BY IDOCK:   -3.26 KCAL/MOL
REMARK 927      BINDING AFFINITY PREDICTED BY RF-SCORE:    0.00 PKD
ROOT
HETATM    1  C   UNL     1     -12.768   8.822  70.718  1.00  0.00     0.189 C  
HETATM    2  C   UNL     1     -12.517  10.324  70.571  1.00  0.00    -0.351 C  
HETATM    3  C   UNL     1     -11.642  10.740  69.382  1.00  0.00    -0.308 A  
HETATM    4  C   UNL     1     -12.104  10.926  71.917  1.00  0.00     0.526 C  
HETATM    5  C   UNL     1     -10.616  10.082  68.676  1.00  0.00    -0.239 A  
HETATM    6  N   UNL     1     -11.897  11.941  68.704  1.00  0.00    -0.320 NA 
HETATM    7  C   UNL     1     -10.427  10.822  67.421  1.00  0.00    -0.268 A  
HETATM    8  C   UNL     1     -11.174  12.012  67.501  1.00  0.00    -0.294 A  
ENDROOT
BRANCH   5   9
HETATM    9  C   UNL     1      -9.937   8.802  69.047  1.00  0.00    -0.191 C  
HETATM   10  O   UNL     1      -8.897   8.819  69.706  1.00  0.00    -0.135 OA 
HETATM   11  N   UNL     1     -10.563   7.642  68.608  1.00  0.00    -0.331 N  
HETATM   12  H   UNL     1     -11.390   7.757  68.022  1.00  0.00     0.000 HD 
BRANCH  11  13
HETATM   13  C   UNL     1     -10.158   6.312  68.898  1.00  0.00    -0.168 A  
HETATM   14  C   UNL     1      -9.257   4.138  68.269  1.00  0.00    -0.195 A  
HETATM   15  C   UNL     1      -9.381   3.684  69.579  1.00  0.00    -0.247 A  
HETATM   16  C   UNL     1     -10.243   5.856  70.220  1.00  0.00    -0.279 A  
HETATM   17  C   UNL     1      -9.652   5.441  67.929  1.00  0.00    -0.152 A  
HETATM   18  C   UNL     1      -9.883   4.541  70.554  1.00  0.00    -0.297 A  
ENDBRANCH  11  13
ENDBRANCH   5   9
BRANCH   7  19
HETATM   19  C   UNL     1      -9.614  10.448  66.230  1.00  0.00    -0.230 A  
HETATM   20  C   UNL     1      -8.217  10.289  66.329  1.00  0.00    -0.131 A  
HETATM   21  C   UNL     1      -9.398   9.908  63.854  1.00  0.00    -0.262 A  
HETATM   22  C   UNL     1      -8.026   9.712  63.990  1.00  0.00    -0.140 A  
HETATM   23  C   UNL     1     -10.188  10.245  64.966  1.00  0.00    -0.277 A  
HETATM   24  C   UNL     1      -7.437   9.893  65.233  1.00  0.00    -0.131 A  
ENDBRANCH   7  19
BRANCH   8  25
HETATM   25  C   UNL     1     -11.223  13.197  66.569  1.00  0.00    -0.339 A  
HETATM   26  C   UNL     1     -10.134  14.072  66.418  1.00  0.00    -0.299 A  
HETATM   27  C   UNL     1     -12.392  14.587  64.926  1.00  0.00    -0.378 A  
HETATM   28  C   UNL     1     -12.365  13.490  65.806  1.00  0.00    -0.516 A  
HETATM   29  F   UNL     1     -11.262  16.370  63.864  1.00  0.00    -0.229 F  
HETATM   30  C   UNL     1     -10.117  15.103  65.476  1.00  0.00    -0.402 A  
HETATM   31  C   UNL     1     -11.255  15.361  64.742  1.00  0.00    -0.395 A  
ENDBRANCH   8  25
BRANCH   6  32
HETATM   32  C   UNL     1     -12.725  13.030  69.243  1.00  0.00     0.770 C  
BRANCH  32  33
HETATM   33  C   UNL     1     -12.032  13.957  70.259  1.00  0.00    -0.401 C  
BRANCH  33  34
HETATM   34  C   UNL     1     -11.773  15.385  69.734  1.00  0.00    -0.333 C  
HETATM   35  O   UNL     1     -12.414  16.382  70.529  1.00  0.00    -0.321 OA 
HETATM   36  H   UNL     1     -12.254  17.261  70.207  1.00  0.00     0.000 HD 
BRANCH  34  37
HETATM   37  C   UNL     1     -10.266  15.696  69.759  1.00  0.00    -0.303 C  
BRANCH  37  38
HETATM   38  C   UNL     1      -9.858  16.829  68.801  1.00  0.00    -0.264 C  
HETATM   39  H   UNL     1     -10.062  18.803  68.691  1.00  0.00     0.000 HD 
HETATM   40  O   UNL     1     -10.313  18.104  69.282  1.00  0.00    -0.235 OA 
BRANCH  38  41
HETATM   41  C   UNL     1      -8.338  16.910  68.680  1.00  0.00    -0.261 C  
HETATM   42  C   UNL     1      -7.866  17.185  67.272  1.00  0.00    -0.178 C  
HETATM   43  O   UNL     1      -8.613  18.082  66.593  1.00  0.00    -0.248 OA 
HETATM   44  O   UNL     1      -6.848  16.695  66.804  1.00  0.00    -0.205 OA 
ENDBRANCH  38  41
ENDBRANCH  37  38
ENDBRANCH  34  37
ENDBRANCH  33  34
ENDBRANCH  32  33
ENDBRANCH   6  32
TORSDOF 10
ENDMDL
MODEL       55
REMARK 921   NORMALIZED FREE ENERGY PREDICTED BY IDOCK:   -5.85 KCAL/MOL
REMARK 922        TOTAL FREE ENERGY PREDICTED BY IDOCK:  -12.02 KCAL/MOL
REMARK 923 INTER-LIGAND FREE ENERGY PREDICTED BY IDOCK:  -10.43 KCAL/MOL
REMARK 924 INTRA-LIGAND FREE ENERGY PREDICTED BY IDOCK:   -1.59 KCAL/MOL
REMARK 927      BINDING AFFINITY PREDICTED BY RF-SCORE:    0.00 PKD
ROOT
HETATM    1  C   UNL     1     -10.979   7.326  69.543  1.00  0.00    -0.182 C  
HETATM    2  C   UNL     1     -11.044   8.854  69.600  1.00  0.00    -0.056 C  
HETATM    3  C   UNL     1     -10.475   9.590  68.380  1.00  0.00    -0.224 A  
HETATM    4  C   UNL     1     -10.530   9.355  70.952  1.00  0.00    -0.381 C  
HETATM    5  C   UNL     1      -9.478   9.257  67.443  1.00  0.00    -0.165 A  
HETATM    6  N   UNL     1     -11.061  10.786  67.942  1.00  0.00    -0.287 NA 
HETATM    7  C   UNL     1      -9.645  10.171  66.306  1.00  0.00    -0.245 A  
HETATM    8  C   UNL     1     -10.577  11.157  66.676  1.00  0.00    -0.264 A  
ENDROOT
BRANCH   5   9
HETATM    9  C   UNL     1      -8.518   8.111  67.510  1.00  0.00    -0.126 C  
HETATM   10  O   UNL     1      -7.489   8.202  68.180  1.00  0.00    -0.093 OA 
HETATM   11  N   UNL     1      -8.880   6.982  66.788  1.00  0.00    -0.121 N  
HETATM   12  H   UNL     1      -9.729   7.045  66.226  1.00  0.00     0.000 HD 
BRANCH  11  13
HETATM   13  C   UNL     1      -8.179   5.747  66.757  1.00  0.00    -0.105 A  
HETATM   14  C   UNL     1      -6.537   4.214  65.815  1.00  0.00    -0.044 A  
HETATM   15  C   UNL     1      -6.839   3.261  66.784  1.00  0.00    -0.053 A  
HETATM   16  C   UNL     1      -8.447   4.795  67.749  1.00  0.00    -0.103 A  
HETATM   17  C   UNL     1      -7.209   5.445  65.797  1.00  0.00    -0.069 A  
HETATM   18  C   UNL     1      -7.802   3.549  67.747  1.00  0.00    -0.076 A  
ENDBRANCH  11  13
ENDBRANCH   5   9
BRANCH   7  19
HETATM   19  C   UNL     1      -8.988  10.129  64.969  1.00  0.00    -0.227 A  
HETATM   20  C   UNL     1      -9.753  10.164  63.786  1.00  0.00    -0.203 A  
HETATM   21  C   UNL     1      -7.000   9.993  63.552  1.00  0.00    -0.131 A  
HETATM   22  C   UNL     1      -7.776  10.076  62.399  1.00  0.00    -0.140 A  
HETATM   23  C   UNL     1      -7.595  10.047  64.824  1.00  0.00    -0.143 A  
HETATM   24  C   UNL     1      -9.155  10.172  62.517  1.00  0.00    -0.302 A  
ENDBRANCH   7  19
BRANCH   8  25
HETATM   25  C   UNL     1     -11.005  12.414  65.957  1.00  0.00    -0.324 A  
HETATM   26  C   UNL     1     -12.326  12.611  65.523  1.00  0.00    -0.455 A  
HETATM   27  C   UNL     1     -10.514  14.627  65.031  1.00  0.00    -0.447 A  
HETATM   28  C   UNL     1     -10.099  13.452  65.683  1.00  0.00    -0.285 A  
HETATM   29  F   UNL     1     -12.256  15.952  64.140  1.00  0.00    -0.425 F  
HETATM   30  C   UNL     1     -12.767  13.813  64.964  1.00  0.00    -0.379 A  
HETATM   31  C   UNL     1     -11.851  14.812  64.710  1.00  0.00    -0.423 A  
ENDBRANCH   8  25
BRANCH   6  32
HETATM   32  C   UNL     1     -11.976  11.600  68.755  1.00  0.00    -0.264 C  
BRANCH  32  33
HETATM   33  C   UNL     1     -11.381  12.184  70.050  1.00  0.00    -0.028 C  
BRANCH  33  34
HETATM   34  C   UNL     1     -11.192  13.715  70.023  1.00  0.00     0.117 C  
HETATM   35  O   UNL     1     -10.274  14.132  69.013  1.00  0.00    -0.342 OA 
HETATM   36  H   UNL     1     -10.157  15.075  68.996  1.00  0.00     0.000 HD 
BRANCH  34  37
HETATM   37  C   UNL     1     -12.531  14.412  69.723  1.00  0.00    -0.262 C  
BRANCH  37  38
HETATM   38  C   UNL     1     -12.860  15.553  70.701  1.00  0.00    -0.413 C  
HETATM   39  H   UNL     1     -14.434  16.196  71.730  1.00  0.00     0.000 HD 
HETATM   40  O   UNL     1     -14.231  15.492  71.126  1.00  0.00    -0.528 OA 
BRANCH  38  41
HETATM   41  C   UNL     1     -11.994  15.452  71.955  1.00  0.00    -0.500 C  
HETATM   42  C   UNL     1     -12.725  14.857  73.136  1.00  0.00    -0.489 C  
HETATM   43  O   UNL     1     -13.541  13.825  72.832  1.00  0.00    -0.681 OA 
HETATM   44  O   UNL     1     -12.541  15.228  74.287  1.00  0.00    -0.557 OA 
ENDBRANCH  38  41
ENDBRANCH  37  38
ENDBRANCH  34  37
ENDBRANCH  33  34
ENDBRANCH  32  33
ENDBRANCH   6  32
TORSDOF 10
ENDMDL
MODEL       56
REMARK 921   NORMALIZED FREE ENERGY PREDICTED BY IDOCK:   -5.84 KCAL/MOL
REMARK 922        TOTAL FREE ENERGY PREDICTED BY IDOCK:  -12.00 KCAL/MOL
REMARK 923 INTER-LIGAND FREE ENERGY PREDICTED BY IDOCK:   -8.79 KCAL/MOL
REMARK 924 INTRA-LIGAND FREE ENERGY PREDICTED BY IDOCK:   -3.21 KCAL/MOL
REMARK 927      BINDING AFFINITY PREDICTED BY RF-SCORE:    0.00 PKD
ROOT
HETATM    1  C   UNL     1      -6.510  10.374  70.312  1.00  0.00    -0.141 C  
HETATM    2  C   UNL     1      -7.436   9.157  70.266  1.00  0.00    -0.099 C  
HETATM    3  C   UNL     1      -8.087   8.867  68.907  1.00  0.00    -0.112 A  
HETATM    4  C   UNL     1      -8.404   9.183  71.451  1.00  0.00    -0.027 C  
HETATM    5  C   UNL     1      -8.441   9.692  67.823  1.00  0.00    -0.125 A  
HETATM    6  N   UNL     1      -8.314   7.544  68.503  1.00  0.00    -0.125 NA 
HETATM    7  C   UNL     1      -8.668   8.805  66.674  1.00  0.00    -0.138 A  
HETATM    8  C   UNL     1      -8.662   7.478  67.143  1.00  0.00    -0.121 A  
ENDROOT
BRANCH   5   9
HETATM    9  C   UNL     1      -8.453  11.188  67.788  1.00  0.00    -0.124 C  
HETATM   10  O   UNL     1      -7.468  11.807  67.385  1.00  0.00    -0.124 OA 
HETATM   11  N   UNL     1      -9.626  11.788  68.226  1.00  0.00    -0.196 N  
HETATM   12  H   UNL     1     -10.354  11.172  68.590  1.00  0.00     0.000 HD 
BRANCH  11  13
HETATM   13  C   UNL     1      -9.908  13.180  68.215  1.00  0.00    -0.227 A  
HETATM   14  C   UNL     1      -9.456  15.485  68.862  1.00  0.00    -0.223 A  
HETATM   15  C   UNL     1     -10.552  15.929  68.128  1.00  0.00    -0.280 A  
HETATM   16  C   UNL     1     -10.987  13.643  67.450  1.00  0.00    -0.289 A  
HETATM   17  C   UNL     1      -9.142  14.119  68.912  1.00  0.00     0.008 A  
HETATM   18  C   UNL     1     -11.324  15.006  67.428  1.00  0.00    -0.338 A  
ENDBRANCH  11  13
ENDBRANCH   5   9
BRANCH   7  19
HETATM   19  C   UNL     1      -8.872   9.164  65.243  1.00  0.00    -0.240 A  
HETATM   20  C   UNL     1      -9.836  10.120  64.867  1.00  0.00    -0.390 A  
HETATM   21  C   UNL     1      -8.349   8.915  62.866  1.00  0.00    -0.198 A  
HETATM   22  C   UNL     1      -9.277   9.897  62.526  1.00  0.00    -0.307 A  
HETATM   23  C   UNL     1      -8.128   8.572  64.211  1.00  0.00    -0.155 A  
HETATM   24  C   UNL     1     -10.014  10.507  63.531  1.00  0.00    -0.278 A  
ENDBRANCH   7  19
BRANCH   8  25
HETATM   25  C   UNL     1      -8.992   6.190  66.429  1.00  0.00    -0.156 A  
HETATM   26  C   UNL     1      -7.993   5.331  65.942  1.00  0.00    -0.105 A  
HETATM   27  C   UNL     1     -10.614   4.573  65.563  1.00  0.00    -0.218 A  
HETATM   28  C   UNL     1     -10.319   5.785  66.212  1.00  0.00    -0.131 A  
HETATM   29  F   UNL     1      -9.870   2.537  64.622  1.00  0.00    -0.146 F  
HETATM   30  C   UNL     1      -8.275   4.081  65.385  1.00  0.00    -0.101 A  
HETATM   31  C   UNL     1      -9.589   3.715  65.189  1.00  0.00    -0.167 A  
ENDBRANCH   8  25
BRANCH   6  32
HETATM   32  C   UNL     1      -8.300   6.390  69.414  1.00  0.00    -0.122 C  
BRANCH  32  33
HETATM   33  C   UNL     1      -9.680   5.837  69.815  1.00  0.00    -0.210 C  
BRANCH  33  34
HETATM   34  C   UNL     1     -10.723   6.925  70.146  1.00  0.00    -0.237 C  
HETATM   35  O   UNL     1     -11.525   7.272  69.017  1.00  0.00    -0.420 OA 
HETATM   36  H   UNL     1     -12.167   7.942  69.221  1.00  0.00     0.000 HD 
BRANCH  34  37
HETATM   37  C   UNL     1     -11.684   6.428  71.240  1.00  0.00    -0.359 C  
BRANCH  37  38
HETATM   38  C   UNL     1     -11.846   7.416  72.409  1.00  0.00    -0.232 C  
HETATM   39  H   UNL     1     -10.843   7.930  74.045  1.00  0.00     0.000 HD 
HETATM   40  O   UNL     1     -10.743   7.321  73.324  1.00  0.00    -0.334 OA 
BRANCH  38  41
HETATM   41  C   UNL     1     -11.883   8.854  71.895  1.00  0.00    -0.440 C  
HETATM   42  C   UNL     1     -13.284   9.358  71.636  1.00  0.00    -0.397 C  
HETATM   43  O   UNL     1     -14.196   8.980  72.556  1.00  0.00    -0.537 OA 
HETATM   44  O   UNL     1     -13.560  10.108  70.711  1.00  0.00    -0.233 OA 
ENDBRANCH  38  41
ENDBRANCH  37  38
ENDBRANCH  34  37
ENDBRANCH  33  34
ENDBRANCH  32  33
ENDBRANCH   6  32
TORSDOF 10
ENDMDL
MODEL       57
REMARK 921   NORMALIZED FREE ENERGY PREDICTED BY IDOCK:   -5.84 KCAL/MOL
REMARK 922        TOTAL FREE ENERGY PREDICTED BY IDOCK:  -12.00 KCAL/MOL
REMARK 923 INTER-LIGAND FREE ENERGY PREDICTED BY IDOCK:   -9.28 KCAL/MOL
REMARK 924 INTRA-LIGAND FREE ENERGY PREDICTED BY IDOCK:   -2.73 KCAL/MOL
REMARK 927      BINDING AFFINITY PREDICTED BY RF-SCORE:    0.00 PKD
ROOT
HETATM    1  C   UNL     1     -11.372   6.289  69.554  1.00  0.00    -0.475 C  
HETATM    2  C   UNL     1     -11.032   7.693  70.059  1.00  0.00    -0.237 C  
HETATM    3  C   UNL     1     -10.446   8.652  69.014  1.00  0.00    -0.199 A  
HETATM    4  C   UNL     1     -10.243   7.608  71.368  1.00  0.00    -0.208 C  
HETATM    5  C   UNL     1      -9.692   8.443  67.843  1.00  0.00    -0.189 A  
HETATM    6  N   UNL     1     -10.753  10.019  69.062  1.00  0.00    -0.212 NA 
HETATM    7  C   UNL     1      -9.756   9.692  67.072  1.00  0.00    -0.232 A  
HETATM    8  C   UNL     1     -10.349  10.675  67.886  1.00  0.00    -0.199 A  
ENDROOT
BRANCH   5   9
HETATM    9  C   UNL     1      -9.060   7.166  67.387  1.00  0.00    -0.121 C  
HETATM   10  O   UNL     1      -9.558   6.523  66.462  1.00  0.00    -0.163 OA 
HETATM   11  N   UNL     1      -7.909   6.790  68.067  1.00  0.00    -0.112 N  
HETATM   12  H   UNL     1      -7.625   7.375  68.853  1.00  0.00     0.000 HD 
BRANCH  11  13
HETATM   13  C   UNL     1      -7.091   5.668  67.770  1.00  0.00    -0.071 A  
HETATM   14  C   UNL     1      -5.344   4.539  66.501  1.00  0.00    -0.013 A  
HETATM   15  C   UNL     1      -5.512   3.383  67.259  1.00  0.00    -0.020 A  
HETATM   16  C   UNL     1      -7.224   4.512  68.549  1.00  0.00    -0.060 A  
HETATM   17  C   UNL     1      -6.135   5.671  66.750  1.00  0.00    -0.029 A  
HETATM   18  C   UNL     1      -6.459   3.366  68.279  1.00  0.00    -0.037 A  
ENDBRANCH  11  13
ENDBRANCH   5   9
BRANCH   7  19
HETATM   19  C   UNL     1      -9.302   9.953  65.678  1.00  0.00    -0.269 A  
HETATM   20  C   UNL     1     -10.201  10.427  64.702  1.00  0.00    -0.305 A  
HETATM   21  C   UNL     1      -7.576   9.977  63.945  1.00  0.00    -0.138 A  
HETATM   22  C   UNL     1      -8.474  10.489  63.012  1.00  0.00    -0.178 A  
HETATM   23  C   UNL     1      -7.977   9.738  65.271  1.00  0.00    -0.123 A  
HETATM   24  C   UNL     1      -9.786  10.724  63.395  1.00  0.00    -0.400 A  
ENDBRANCH   7  19
BRANCH   8  25
HETATM   25  C   UNL     1     -10.522  12.156  67.659  1.00  0.00    -0.225 A  
HETATM   26  C   UNL     1     -11.721  12.700  67.170  1.00  0.00    -0.438 A  
HETATM   27  C   UNL     1      -9.667  14.451  67.723  1.00  0.00    -0.221 A  
HETATM   28  C   UNL     1      -9.487  13.070  67.921  1.00  0.00    -0.219 A  
HETATM   29  F   UNL     1     -11.091  16.261  67.198  1.00  0.00    -0.285 F  
HETATM   30  C   UNL     1     -11.941  14.076  67.065  1.00  0.00    -0.472 A  
HETATM   31  C   UNL     1     -10.904  14.944  67.333  1.00  0.00    -0.304 A  
ENDBRANCH   8  25
BRANCH   6  32
HETATM   32  C   UNL     1     -11.319  10.695  70.239  1.00  0.00    -0.319 C  
BRANCH  32  33
HETATM   33  C   UNL     1     -12.845  10.898  70.224  1.00  0.00    -0.209 C  
BRANCH  33  34
HETATM   34  C   UNL     1     -13.469  11.094  71.621  1.00  0.00    -0.057 C  
HETATM   35  O   UNL     1     -13.271   9.963  72.469  1.00  0.00    -0.547 OA 
HETATM   36  H   UNL     1     -13.655  10.084  73.330  1.00  0.00     0.000 HD 
BRANCH  34  37
HETATM   37  C   UNL     1     -12.825  12.299  72.328  1.00  0.00     0.028 C  
BRANCH  37  38
HETATM   38  C   UNL     1     -13.784  13.490  72.505  1.00  0.00    -0.559 C  
HETATM   39  H   UNL     1     -13.821  15.209  73.501  1.00  0.00     0.000 HD 
HETATM   40  O   UNL     1     -13.229  14.475  73.391  1.00  0.00    -0.592 OA 
BRANCH  38  41
HETATM   41  C   UNL     1     -14.034  14.180  71.165  1.00  0.00    -0.084 C  
HETATM   42  C   UNL     1     -12.814  14.885  70.621  1.00  0.00    -0.353 C  
HETATM   43  O   UNL     1     -11.654  14.214  70.793  1.00  0.00    -0.215 OA 
HETATM   44  O   UNL     1     -12.873  15.942  70.009  1.00  0.00    -0.217 OA 
ENDBRANCH  38  41
ENDBRANCH  37  38
ENDBRANCH  34  37
ENDBRANCH  33  34
ENDBRANCH  32  33
ENDBRANCH   6  32
TORSDOF 10
ENDMDL
MODEL       58
REMARK 921   NORMALIZED FREE ENERGY PREDICTED BY IDOCK:   -5.83 KCAL/MOL
REMARK 922        TOTAL FREE ENERGY PREDICTED BY IDOCK:  -11.99 KCAL/MOL
REMARK 923 INTER-LIGAND FREE ENERGY PREDICTED BY IDOCK:   -8.12 KCAL/MOL
REMARK 924 INTRA-LIGAND FREE ENERGY PREDICTED BY IDOCK:   -3.87 KCAL/MOL
REMARK 927      BINDING AFFINITY PREDICTED BY RF-SCORE:    0.00 PKD
ROOT
HETATM    1  C   UNL     1      -9.808   8.219  72.355  1.00  0.00    -0.375 C  
HETATM    2  C   UNL     1     -10.416   7.115  71.488  1.00  0.00    -0.221 C  
HETATM    3  C   UNL     1     -10.311   7.325  69.971  1.00  0.00    -0.213 A  
HETATM    4  C   UNL     1     -11.816   6.756  71.992  1.00  0.00    -0.351 C  
HETATM    5  C   UNL     1     -10.237   8.481  69.170  1.00  0.00    -0.218 A  
HETATM    6  N   UNL     1     -10.126   6.228  69.119  1.00  0.00    -0.159 NA 
HETATM    7  C   UNL     1      -9.771   8.049  67.846  1.00  0.00    -0.189 A  
HETATM    8  C   UNL     1      -9.789   6.642  67.819  1.00  0.00    -0.124 A  
ENDROOT
BRANCH   5   9
HETATM    9  C   UNL     1     -10.452   9.898  69.602  1.00  0.00    -0.249 C  
HETATM   10  O   UNL     1      -9.534  10.715  69.528  1.00  0.00    -0.146 OA 
HETATM   11  N   UNL     1     -11.726  10.196  70.067  1.00  0.00    -0.379 N  
HETATM   12  H   UNL     1     -12.387   9.422  70.135  1.00  0.00     0.000 HD 
BRANCH  11  13
HETATM   13  C   UNL     1     -12.195  11.479  70.457  1.00  0.00    -0.377 A  
HETATM   14  C   UNL     1     -12.400  13.889  70.165  1.00  0.00    -0.400 A  
HETATM   15  C   UNL     1     -13.176  13.984  71.317  1.00  0.00    -0.373 A  
HETATM   16  C   UNL     1     -13.007  11.583  71.594  1.00  0.00    -0.499 A  
HETATM   17  C   UNL     1     -11.906  12.646  69.743  1.00  0.00    -0.379 A  
HETATM   18  C   UNL     1     -13.472  12.831  72.038  1.00  0.00    -0.540 A  
ENDBRANCH  11  13
ENDBRANCH   5   9
BRANCH   7  19
HETATM   19  C   UNL     1      -9.337   8.882  66.691  1.00  0.00    -0.237 A  
HETATM   20  C   UNL     1     -10.282   9.536  65.876  1.00  0.00    -0.185 A  
HETATM   21  C   UNL     1      -7.600   9.828  65.252  1.00  0.00    -0.119 A  
HETATM   22  C   UNL     1      -8.552  10.502  64.491  1.00  0.00    -0.165 A  
HETATM   23  C   UNL     1      -7.985   9.050  66.357  1.00  0.00    -0.103 A  
HETATM   24  C   UNL     1      -9.895  10.363  64.810  1.00  0.00    -0.406 A  
ENDBRANCH   7  19
BRANCH   8  25
HETATM   25  C   UNL     1      -9.556   5.686  66.675  1.00  0.00    -0.166 A  
HETATM   26  C   UNL     1     -10.604   4.960  66.085  1.00  0.00    -0.322 A  
HETATM   27  C   UNL     1      -8.072   4.591  65.062  1.00  0.00    -0.100 A  
HETATM   28  C   UNL     1      -8.274   5.470  66.142  1.00  0.00    -0.112 A  
HETATM   29  F   UNL     1      -8.971   3.181  63.393  1.00  0.00    -0.092 F  
HETATM   30  C   UNL     1     -10.428   4.162  64.952  1.00  0.00    -0.193 A  
HETATM   31  C   UNL     1      -9.156   3.974  64.454  1.00  0.00    -0.142 A  
ENDBRANCH   8  25
BRANCH   6  32
HETATM   32  C   UNL     1     -10.368   4.831  69.510  1.00  0.00     0.017 C  
BRANCH  32  33
HETATM   33  C   UNL     1      -9.273   4.180  70.375  1.00  0.00    -0.196 C  
BRANCH  33  34
HETATM   34  C   UNL     1      -8.244   3.355  69.574  1.00  0.00    -0.052 C  
HETATM   35  O   UNL     1      -8.807   2.779  68.396  1.00  0.00    -0.093 OA 
HETATM   36  H   UNL     1      -8.173   2.272  67.902  1.00  0.00     0.000 HD 
BRANCH  34  37
HETATM   37  C   UNL     1      -7.079   4.253  69.119  1.00  0.00    -0.051 C  
BRANCH  37  38
HETATM   38  C   UNL     1      -6.694   5.328  70.151  1.00  0.00    -0.044 C  
HETATM   39  H   UNL     1      -5.395   5.534  71.640  1.00  0.00     0.000 HD 
HETATM   40  O   UNL     1      -5.632   4.871  71.003  1.00  0.00    -0.011 OA 
BRANCH  38  41
HETATM   41  C   UNL     1      -6.197   6.591  69.450  1.00  0.00    -0.034 C  
HETATM   42  C   UNL     1      -6.539   7.859  70.196  1.00  0.00    -0.037 C  
HETATM   43  O   UNL     1      -6.409   7.774  71.538  1.00  0.00    -0.038 OA 
HETATM   44  O   UNL     1      -6.837   8.903  69.633  1.00  0.00    -0.048 OA 
ENDBRANCH  38  41
ENDBRANCH  37  38
ENDBRANCH  34  37
ENDBRANCH  33  34
ENDBRANCH  32  33
ENDBRANCH   6  32
TORSDOF 10
ENDMDL
MODEL       59
REMARK 921   NORMALIZED FREE ENERGY PREDICTED BY IDOCK:   -5.81 KCAL/MOL
REMARK 922        TOTAL FREE ENERGY PREDICTED BY IDOCK:  -11.95 KCAL/MOL
REMARK 923 INTER-LIGAND FREE ENERGY PREDICTED BY IDOCK:   -9.17 KCAL/MOL
REMARK 924 INTRA-LIGAND FREE ENERGY PREDICTED BY IDOCK:   -2.78 KCAL/MOL
REMARK 927      BINDING AFFINITY PREDICTED BY RF-SCORE:    0.00 PKD
ROOT
HETATM    1  C   UNL     1      -9.708   5.569  68.650  1.00  0.00    -0.186 C  
HETATM    2  C   UNL     1      -9.397   6.927  69.284  1.00  0.00    -0.144 C  
HETATM    3  C   UNL     1      -9.244   8.099  68.305  1.00  0.00    -0.134 A  
HETATM    4  C   UNL     1      -8.263   6.788  70.304  1.00  0.00    -0.125 C  
HETATM    5  C   UNL     1      -8.836   8.172  66.959  1.00  0.00    -0.143 A  
HETATM    6  N   UNL     1      -9.674   9.382  68.670  1.00  0.00    -0.150 NA 
HETATM    7  C   UNL     1      -9.256   9.489  66.462  1.00  0.00    -0.201 A  
HETATM    8  C   UNL     1      -9.698  10.247  67.562  1.00  0.00    -0.169 A  
ENDROOT
BRANCH   5   9
HETATM    9  C   UNL     1      -8.222   7.082  66.138  1.00  0.00    -0.125 C  
HETATM   10  O   UNL     1      -7.001   6.919  66.137  1.00  0.00    -0.065 OA 
HETATM   11  N   UNL     1      -9.114   6.301  65.415  1.00  0.00    -0.368 N  
HETATM   12  H   UNL     1     -10.098   6.568  65.453  1.00  0.00     0.000 HD 
BRANCH  11  13
HETATM   13  C   UNL     1      -8.784   5.165  64.629  1.00  0.00    -0.120 A  
HETATM   14  C   UNL     1      -8.186   4.087  62.528  1.00  0.00    -0.076 A  
HETATM   15  C   UNL     1      -8.136   2.845  63.154  1.00  0.00    -0.073 A  
HETATM   16  C   UNL     1      -8.695   3.915  65.255  1.00  0.00    -0.116 A  
HETATM   17  C   UNL     1      -8.516   5.238  63.259  1.00  0.00    -0.096 A  
HETATM   18  C   UNL     1      -8.400   2.757  64.518  1.00  0.00    -0.087 A  
ENDBRANCH  11  13
ENDBRANCH   5   9
BRANCH   7  19
HETATM   19  C   UNL     1      -9.250  10.005  65.065  1.00  0.00    -0.277 A  
HETATM   20  C   UNL     1     -10.363  10.694  64.544  1.00  0.00    -0.352 A  
HETATM   21  C   UNL     1      -8.177  10.311  62.888  1.00  0.00    -0.161 A  
HETATM   22  C   UNL     1      -9.272  11.029  62.414  1.00  0.00    -0.284 A  
HETATM   23  C   UNL     1      -8.153   9.828  64.208  1.00  0.00    -0.152 A  
HETATM   24  C   UNL     1     -10.363  11.229  63.247  1.00  0.00    -0.406 A  
ENDBRANCH   7  19
BRANCH   8  25
HETATM   25  C   UNL     1     -10.092  11.701  67.650  1.00  0.00    -0.204 A  
HETATM   26  C   UNL     1     -11.425  12.121  67.503  1.00  0.00    -0.410 A  
HETATM   27  C   UNL     1      -9.527  14.061  67.979  1.00  0.00    -0.206 A  
HETATM   28  C   UNL     1      -9.144  12.711  67.880  1.00  0.00    -0.200 A  
HETATM   29  F   UNL     1     -11.238  15.688  68.073  1.00  0.00    -0.302 F  
HETATM   30  C   UNL     1     -11.826  13.445  67.698  1.00  0.00    -0.394 A  
HETATM   31  C   UNL     1     -10.868  14.411  67.924  1.00  0.00    -0.251 A  
ENDBRANCH   8  25
BRANCH   6  32
HETATM   32  C   UNL     1      -9.954   9.795  70.054  1.00  0.00    -0.254 C  
BRANCH  32  33
HETATM   33  C   UNL     1     -11.441   9.975  70.410  1.00  0.00    -0.389 C  
BRANCH  33  34
HETATM   34  C   UNL     1     -11.806   9.521  71.839  1.00  0.00    -0.279 C  
HETATM   35  O   UNL     1     -13.200   9.250  71.984  1.00  0.00    -0.380 OA 
HETATM   36  H   UNL     1     -13.425   8.970  72.864  1.00  0.00     0.000 HD 
BRANCH  34  37
HETATM   37  C   UNL     1     -11.060   8.222  72.192  1.00  0.00    -0.397 C  
BRANCH  37  38
HETATM   38  C   UNL     1     -11.957   6.972  72.160  1.00  0.00    -0.261 C  
HETATM   39  H   UNL     1     -13.226   6.109  70.897  1.00  0.00     0.000 HD 
HETATM   40  O   UNL     1     -12.672   6.879  70.917  1.00  0.00    -0.328 OA 
BRANCH  38  41
HETATM   41  C   UNL     1     -11.116   5.704  72.291  1.00  0.00    -0.318 C  
HETATM   42  C   UNL     1     -10.086   5.784  73.393  1.00  0.00    -0.195 C  
HETATM   43  O   UNL     1     -10.514   6.392  74.520  1.00  0.00    -0.274 OA 
HETATM   44  O   UNL     1      -8.977   5.277  73.305  1.00  0.00    -0.121 OA 
ENDBRANCH  38  41
ENDBRANCH  37  38
ENDBRANCH  34  37
ENDBRANCH  33  34
ENDBRANCH  32  33
ENDBRANCH   6  32
TORSDOF 10
ENDMDL
MODEL       60
REMARK 921   NORMALIZED FREE ENERGY PREDICTED BY IDOCK:   -5.79 KCAL/MOL
REMARK 922        TOTAL FREE ENERGY PREDICTED BY IDOCK:  -11.93 KCAL/MOL
REMARK 923 INTER-LIGAND FREE ENERGY PREDICTED BY IDOCK:   -9.09 KCAL/MOL
REMARK 924 INTRA-LIGAND FREE ENERGY PREDICTED BY IDOCK:   -2.84 KCAL/MOL
REMARK 927      BINDING AFFINITY PREDICTED BY RF-SCORE:    0.00 PKD
ROOT
HETATM    1  C   UNL     1     -12.961   9.334  72.556  1.00  0.00    -0.384 C  
HETATM    2  C   UNL     1     -12.647   8.100  71.708  1.00  0.00    -0.360 C  
HETATM    3  C   UNL     1     -11.605   8.300  70.601  1.00  0.00    -0.191 A  
HETATM    4  C   UNL     1     -13.945   7.424  71.257  1.00  0.00    -0.374 C  
HETATM    5  C   UNL     1     -11.217   9.424  69.846  1.00  0.00    -0.180 A  
HETATM    6  N   UNL     1     -10.722   7.263  70.268  1.00  0.00    -0.230 NA 
HETATM    7  C   UNL     1      -9.929   9.091  69.224  1.00  0.00    -0.188 A  
HETATM    8  C   UNL     1      -9.686   7.721  69.436  1.00  0.00    -0.169 A  
ENDROOT
BRANCH   5   9
HETATM    9  C   UNL     1     -11.898  10.755  69.789  1.00  0.00    -0.335 C  
HETATM   10  O   UNL     1     -12.504  11.098  68.774  1.00  0.00    -0.468 OA 
HETATM   11  N   UNL     1     -11.795  11.532  70.936  1.00  0.00    -0.340 N  
HETATM   12  H   UNL     1     -11.218  11.163  71.693  1.00  0.00     0.000 HD 
BRANCH  11  13
HETATM   13  C   UNL     1     -12.417  12.790  71.152  1.00  0.00    -0.239 A  
HETATM   14  C   UNL     1     -12.669  15.178  70.744  1.00  0.00    -0.463 A  
HETATM   15  C   UNL     1     -13.720  15.244  71.653  1.00  0.00    -0.600 A  
HETATM   16  C   UNL     1     -13.500  12.862  72.038  1.00  0.00    -0.568 A  
HETATM   17  C   UNL     1     -12.016  13.960  70.502  1.00  0.00    -0.384 A  
HETATM   18  C   UNL     1     -14.130  14.087  72.308  1.00  0.00    -0.633 A  
ENDBRANCH  11  13
ENDBRANCH   5   9
BRANCH   7  19
HETATM   19  C   UNL     1      -8.988   9.982  68.490  1.00  0.00    -0.124 A  
HETATM   20  C   UNL     1      -9.002  10.045  67.082  1.00  0.00    -0.146 A  
HETATM   21  C   UNL     1      -7.162  11.608  68.437  1.00  0.00    -0.088 A  
HETATM   22  C   UNL     1      -7.228  11.686  67.048  1.00  0.00    -0.143 A  
HETATM   23  C   UNL     1      -8.050  10.787  69.153  1.00  0.00    -0.133 A  
HETATM   24  C   UNL     1      -8.158  10.910  66.371  1.00  0.00    -0.164 A  
ENDBRANCH   7  19
BRANCH   8  25
HETATM   25  C   UNL     1      -8.599   6.827  68.891  1.00  0.00    -0.130 A  
HETATM   26  C   UNL     1      -7.362   6.679  69.539  1.00  0.00    -0.091 A  
HETATM   27  C   UNL     1      -7.756   5.253  67.215  1.00  0.00    -0.096 A  
HETATM   28  C   UNL     1      -8.768   6.098  67.702  1.00  0.00    -0.105 A  
HETATM   29  F   UNL     1      -5.650   4.222  67.511  1.00  0.00    -0.017 F  
HETATM   30  C   UNL     1      -6.390   5.768  69.116  1.00  0.00    -0.040 A  
HETATM   31  C   UNL     1      -6.591   5.068  67.946  1.00  0.00    -0.050 A  
ENDBRANCH   8  25
BRANCH   6  32
HETATM   32  C   UNL     1     -10.922   5.857  70.650  1.00  0.00    -0.287 C  
BRANCH  32  33
HETATM   33  C   UNL     1     -10.012   5.334  71.777  1.00  0.00    -0.245 C  
BRANCH  33  34
HETATM   34  C   UNL     1     -10.362   5.882  73.175  1.00  0.00    -0.211 C  
HETATM   35  O   UNL     1     -11.471   5.204  73.765  1.00  0.00    -0.427 OA 
HETATM   36  H   UNL     1     -11.686   5.542  74.626  1.00  0.00     0.000 HD 
BRANCH  34  37
HETATM   37  C   UNL     1      -9.170   5.702  74.132  1.00  0.00    -0.127 C  
BRANCH  37  38
HETATM   38  C   UNL     1      -7.911   5.145  73.445  1.00  0.00    -0.103 C  
HETATM   39  H   UNL     1      -6.075   5.772  73.013  1.00  0.00     0.000 HD 
HETATM   40  O   UNL     1      -6.852   6.115  73.438  1.00  0.00    -0.074 OA 
BRANCH  38  41
HETATM   41  C   UNL     1      -7.391   3.917  74.191  1.00  0.00    -0.062 C  
HETATM   42  C   UNL     1      -7.567   2.632  73.416  1.00  0.00    -0.046 C  
HETATM   43  O   UNL     1      -7.318   2.735  72.093  1.00  0.00    -0.041 OA 
HETATM   44  O   UNL     1      -7.839   1.566  73.949  1.00  0.00    -0.035 OA 
ENDBRANCH  38  41
ENDBRANCH  37  38
ENDBRANCH  34  37
ENDBRANCH  33  34
ENDBRANCH  32  33
ENDBRANCH   6  32
TORSDOF 10
ENDMDL
MODEL       61
REMARK 921   NORMALIZED FREE ENERGY PREDICTED BY IDOCK:   -5.79 KCAL/MOL
REMARK 922        TOTAL FREE ENERGY PREDICTED BY IDOCK:  -11.93 KCAL/MOL
REMARK 923 INTER-LIGAND FREE ENERGY PREDICTED BY IDOCK:  -10.82 KCAL/MOL
REMARK 924 INTRA-LIGAND FREE ENERGY PREDICTED BY IDOCK:   -1.11 KCAL/MOL
REMARK 927      BINDING AFFINITY PREDICTED BY RF-SCORE:    0.00 PKD
ROOT
HETATM    1  C   UNL     1     -13.478   9.649  71.488  1.00  0.00    -0.430 C  
HETATM    2  C   UNL     1     -12.776  10.706  70.634  1.00  0.00    -0.445 C  
HETATM    3  C   UNL     1     -11.724  10.176  69.650  1.00  0.00    -0.098 A  
HETATM    4  C   UNL     1     -12.309  11.871  71.510  1.00  0.00    -0.016 C  
HETATM    5  C   UNL     1     -10.891   9.041  69.663  1.00  0.00    -0.196 A  
HETATM    6  N   UNL     1     -11.552  10.792  68.403  1.00  0.00    -0.419 NA 
HETATM    7  C   UNL     1     -10.389   8.870  68.294  1.00  0.00    -0.250 A  
HETATM    8  C   UNL     1     -10.747  10.012  67.554  1.00  0.00    -0.281 A  
ENDROOT
BRANCH   5   9
HETATM    9  C   UNL     1     -10.660   8.099  70.803  1.00  0.00    -0.214 C  
HETATM   10  O   UNL     1     -10.306   8.529  71.901  1.00  0.00    -0.252 OA 
HETATM   11  N   UNL     1     -10.880   6.756  70.525  1.00  0.00    -0.244 N  
HETATM   12  H   UNL     1     -11.117   6.516  69.562  1.00  0.00     0.000 HD 
BRANCH  11  13
HETATM   13  C   UNL     1     -10.805   5.687  71.456  1.00  0.00    -0.230 A  
HETATM   14  C   UNL     1     -11.635   4.412  73.359  1.00  0.00    -0.225 A  
HETATM   15  C   UNL     1     -10.566   3.526  73.259  1.00  0.00    -0.277 A  
HETATM   16  C   UNL     1      -9.754   4.767  71.343  1.00  0.00    -0.240 A  
HETATM   17  C   UNL     1     -11.749   5.490  72.469  1.00  0.00    -0.222 A  
HETATM   18  C   UNL     1      -9.619   3.709  72.256  1.00  0.00    -0.207 A  
ENDBRANCH  11  13
ENDBRANCH   5   9
BRANCH   7  19
HETATM   19  C   UNL     1      -9.634   7.726  67.712  1.00  0.00    -0.172 A  
HETATM   20  C   UNL     1     -10.294   6.724  66.973  1.00  0.00    -0.338 A  
HETATM   21  C   UNL     1      -7.558   6.489  67.328  1.00  0.00    -0.096 A  
HETATM   22  C   UNL     1      -8.228   5.538  66.563  1.00  0.00    -0.105 A  
HETATM   23  C   UNL     1      -8.247   7.586  67.873  1.00  0.00    -0.123 A  
HETATM   24  C   UNL     1      -9.598   5.662  66.377  1.00  0.00    -0.175 A  
ENDBRANCH   7  19
BRANCH   8  25
HETATM   25  C   UNL     1     -10.364  10.430  66.156  1.00  0.00    -0.269 A  
HETATM   26  C   UNL     1     -10.870  11.597  65.561  1.00  0.00    -0.334 A  
HETATM   27  C   UNL     1      -9.114  10.077  64.079  1.00  0.00    -0.296 A  
HETATM   28  C   UNL     1      -9.480   9.668  65.374  1.00  0.00    -0.343 A  
HETATM   29  F   UNL     1      -9.175  11.705  62.368  1.00  0.00    -0.346 F  
HETATM   30  C   UNL     1     -10.437  12.062  64.317  1.00  0.00    -0.369 A  
HETATM   31  C   UNL     1      -9.566  11.289  63.577  1.00  0.00    -0.303 A  
ENDBRANCH   8  25
BRANCH   6  32
HETATM   32  C   UNL     1     -12.054  12.134  68.071  1.00  0.00     0.026 C  
BRANCH  32  33
HETATM   33  C   UNL     1     -11.291  13.310  68.707  1.00  0.00    -0.331 C  
BRANCH  33  34
HETATM   34  C   UNL     1     -12.034  14.660  68.629  1.00  0.00    -0.270 C  
HETATM   35  O   UNL     1     -12.998  14.811  69.671  1.00  0.00    -0.520 OA 
HETATM   36  H   UNL     1     -13.456  15.643  69.623  1.00  0.00     0.000 HD 
BRANCH  34  37
HETATM   37  C   UNL     1     -11.039  15.826  68.771  1.00  0.00    -0.321 C  
BRANCH  37  38
HETATM   38  C   UNL     1     -10.419  16.268  67.435  1.00  0.00    -0.304 C  
HETATM   39  H   UNL     1     -10.580  15.790  65.513  1.00  0.00     0.000 HD 
HETATM   40  O   UNL     1     -10.963  15.518  66.337  1.00  0.00    -0.309 OA 
BRANCH  38  41
HETATM   41  C   UNL     1     -10.719  17.742  67.165  1.00  0.00    -0.222 C  
HETATM   42  C   UNL     1      -9.992  18.678  68.102  1.00  0.00    -0.358 C  
HETATM   43  O   UNL     1      -8.719  18.320  68.379  1.00  0.00    -0.297 OA 
HETATM   44  O   UNL     1     -10.485  19.716  68.520  1.00  0.00    -0.392 OA 
ENDBRANCH  38  41
ENDBRANCH  37  38
ENDBRANCH  34  37
ENDBRANCH  33  34
ENDBRANCH  32  33
ENDBRANCH   6  32
TORSDOF 10
ENDMDL
MODEL       62
REMARK 921   NORMALIZED FREE ENERGY PREDICTED BY IDOCK:   -5.79 KCAL/MOL
REMARK 922        TOTAL FREE ENERGY PREDICTED BY IDOCK:  -11.92 KCAL/MOL
REMARK 923 INTER-LIGAND FREE ENERGY PREDICTED BY IDOCK:   -8.94 KCAL/MOL
REMARK 924 INTRA-LIGAND FREE ENERGY PREDICTED BY IDOCK:   -2.98 KCAL/MOL
REMARK 927      BINDING AFFINITY PREDICTED BY RF-SCORE:    0.00 PKD
ROOT
HETATM    1  C   UNL     1     -11.121   7.517  69.688  1.00  0.00    -0.099 C  
HETATM    2  C   UNL     1     -11.175   9.044  69.745  1.00  0.00    -0.041 C  
HETATM    3  C   UNL     1     -10.587   9.777  68.531  1.00  0.00    -0.221 A  
HETATM    4  C   UNL     1     -10.672   9.542  71.102  1.00  0.00    -0.408 C  
HETATM    5  C   UNL     1      -9.583   9.436  67.605  1.00  0.00    -0.163 A  
HETATM    6  N   UNL     1     -11.160  10.977  68.087  1.00  0.00    -0.247 NA 
HETATM    7  C   UNL     1      -9.731  10.352  66.466  1.00  0.00    -0.241 A  
HETATM    8  C   UNL     1     -10.660  11.346  66.826  1.00  0.00    -0.255 A  
ENDROOT
BRANCH   5   9
HETATM    9  C   UNL     1      -8.632   8.284  67.682  1.00  0.00    -0.130 C  
HETATM   10  O   UNL     1      -7.624   8.357  68.385  1.00  0.00    -0.093 OA 
HETATM   11  N   UNL     1      -8.978   7.169  66.929  1.00  0.00    -0.129 N  
HETATM   12  H   UNL     1      -9.810   7.248  66.342  1.00  0.00     0.000 HD 
BRANCH  11  13
HETATM   13  C   UNL     1      -8.284   5.931  66.899  1.00  0.00    -0.105 A  
HETATM   14  C   UNL     1      -6.507   4.465  66.105  1.00  0.00    -0.041 A  
HETATM   15  C   UNL     1      -6.971   3.431  66.913  1.00  0.00    -0.054 A  
HETATM   16  C   UNL     1      -8.718   4.894  67.735  1.00  0.00    -0.105 A  
HETATM   17  C   UNL     1      -7.165   5.704  66.092  1.00  0.00    -0.077 A  
HETATM   18  C   UNL     1      -8.084   3.642  67.722  1.00  0.00    -0.084 A  
ENDBRANCH  11  13
ENDBRANCH   5   9
BRANCH   7  19
HETATM   19  C   UNL     1      -9.061  10.306  65.137  1.00  0.00    -0.234 A  
HETATM   20  C   UNL     1      -7.657  10.243  65.037  1.00  0.00    -0.124 A  
HETATM   21  C   UNL     1      -9.127  10.300  62.692  1.00  0.00    -0.299 A  
HETATM   22  C   UNL     1      -7.741  10.191  62.622  1.00  0.00    -0.149 A  
HETATM   23  C   UNL     1      -9.783  10.329  63.934  1.00  0.00    -0.325 A  
HETATM   24  C   UNL     1      -7.005  10.152  63.798  1.00  0.00    -0.105 A  
ENDBRANCH   7  19
BRANCH   8  25
HETATM   25  C   UNL     1     -11.071  12.605  66.104  1.00  0.00    -0.327 A  
HETATM   26  C   UNL     1     -10.142  13.601  65.756  1.00  0.00    -0.311 A  
HETATM   27  C   UNL     1     -12.774  14.018  65.054  1.00  0.00    -0.359 A  
HETATM   28  C   UNL     1     -12.407  12.849  65.745  1.00  0.00    -0.437 A  
HETATM   29  F   UNL     1     -12.144  16.007  63.944  1.00  0.00    -0.422 F  
HETATM   30  C   UNL     1     -10.482  14.716  64.985  1.00  0.00    -0.447 A  
HETATM   31  C   UNL     1     -11.803  14.922  64.649  1.00  0.00    -0.407 A  
ENDBRANCH   8  25
BRANCH   6  32
HETATM   32  C   UNL     1     -12.078  11.798  68.891  1.00  0.00    -0.178 C  
BRANCH  32  33
HETATM   33  C   UNL     1     -11.420  12.902  69.739  1.00  0.00    -0.203 C  
BRANCH  33  34
HETATM   34  C   UNL     1     -11.355  14.277  69.044  1.00  0.00    -0.272 C  
HETATM   35  O   UNL     1     -12.567  15.019  69.192  1.00  0.00    -0.572 OA 
HETATM   36  H   UNL     1     -12.527  15.866  68.764  1.00  0.00     0.000 HD 
BRANCH  34  37
HETATM   37  C   UNL     1     -10.232  15.133  69.657  1.00  0.00    -0.219 C  
BRANCH  37  38
HETATM   38  C   UNL     1      -9.008  15.287  68.738  1.00  0.00    -0.200 C  
HETATM   39  H   UNL     1      -7.485  16.545  68.520  1.00  0.00     0.000 HD 
HETATM   40  O   UNL     1      -8.240  16.449  69.088  1.00  0.00    -0.240 OA 
BRANCH  38  41
HETATM   41  C   UNL     1      -8.083  14.079  68.869  1.00  0.00    -0.001 C  
HETATM   42  C   UNL     1      -7.116  13.942  67.716  1.00  0.00    -0.172 C  
HETATM   43  O   UNL     1      -6.594  15.108  67.278  1.00  0.00    -0.293 OA 
HETATM   44  O   UNL     1      -6.772  12.861  67.261  1.00  0.00    -0.152 OA 
ENDBRANCH  38  41
ENDBRANCH  37  38
ENDBRANCH  34  37
ENDBRANCH  33  34
ENDBRANCH  32  33
ENDBRANCH   6  32
TORSDOF 10
ENDMDL
MODEL       63
REMARK 921   NORMALIZED FREE ENERGY PREDICTED BY IDOCK:   -5.78 KCAL/MOL
REMARK 922        TOTAL FREE ENERGY PREDICTED BY IDOCK:  -11.91 KCAL/MOL
REMARK 923 INTER-LIGAND FREE ENERGY PREDICTED BY IDOCK:   -8.15 KCAL/MOL
REMARK 924 INTRA-LIGAND FREE ENERGY PREDICTED BY IDOCK:   -3.76 KCAL/MOL
REMARK 927      BINDING AFFINITY PREDICTED BY RF-SCORE:    0.00 PKD
ROOT
HETATM    1  C   UNL     1     -12.233  10.975  71.523  1.00  0.00    -0.191 C  
HETATM    2  C   UNL     1     -12.411   9.516  71.100  1.00  0.00    -0.399 C  
HETATM    3  C   UNL     1     -11.555   9.058  69.912  1.00  0.00     0.185 A  
HETATM    4  C   UNL     1     -13.900   9.174  70.991  1.00  0.00    -0.017 C  
HETATM    5  C   UNL     1     -11.012   9.741  68.807  1.00  0.00    -0.185 A  
HETATM    6  N   UNL     1     -11.054   7.749  69.868  1.00  0.00    -0.192 NA 
HETATM    7  C   UNL     1      -9.985   8.863  68.232  1.00  0.00    -0.201 A  
HETATM    8  C   UNL     1     -10.089   7.606  68.856  1.00  0.00    -0.197 A  
ENDROOT
BRANCH   5   9
HETATM    9  C   UNL     1     -11.308  11.142  68.373  1.00  0.00    -0.288 C  
HETATM   10  O   UNL     1     -12.159  11.357  67.510  1.00  0.00    -0.592 OA 
HETATM   11  N   UNL     1     -10.574  12.135  69.010  1.00  0.00    -0.399 N  
HETATM   12  H   UNL     1      -9.857  11.829  69.669  1.00  0.00     0.000 HD 
BRANCH  11  13
HETATM   13  C   UNL     1     -10.728  13.535  68.829  1.00  0.00    -0.238 A  
HETATM   14  C   UNL     1     -10.218  15.643  67.719  1.00  0.00    -0.252 A  
HETATM   15  C   UNL     1     -11.107  16.319  68.549  1.00  0.00    -0.368 A  
HETATM   16  C   UNL     1     -11.648  14.221  69.633  1.00  0.00    -0.351 A  
HETATM   17  C   UNL     1     -10.024  14.261  67.864  1.00  0.00    -0.230 A  
HETATM   18  C   UNL     1     -11.816  15.609  69.514  1.00  0.00    -0.387 A  
ENDBRANCH  11  13
ENDBRANCH   5   9
BRANCH   7  19
HETATM   19  C   UNL     1      -8.976   9.170  67.179  1.00  0.00    -0.137 A  
HETATM   20  C   UNL     1      -7.822   9.918  67.481  1.00  0.00    -0.098 A  
HETATM   21  C   UNL     1      -8.170   9.056  64.873  1.00  0.00    -0.154 A  
HETATM   22  C   UNL     1      -7.015   9.757  65.208  1.00  0.00    -0.111 A  
HETATM   23  C   UNL     1      -9.127   8.740  65.852  1.00  0.00    -0.271 A  
HETATM   24  C   UNL     1      -6.836  10.181  66.517  1.00  0.00    -0.090 A  
ENDBRANCH   7  19
BRANCH   8  25
HETATM   25  C   UNL     1      -9.391   6.304  68.550  1.00  0.00    -0.121 A  
HETATM   26  C   UNL     1      -9.978   5.316  67.741  1.00  0.00    -0.204 A  
HETATM   27  C   UNL     1      -7.468   4.801  68.753  1.00  0.00    -0.065 A  
HETATM   28  C   UNL     1      -8.116   6.010  69.062  1.00  0.00    -0.107 A  
HETATM   29  F   UNL     1      -7.410   2.778  67.533  1.00  0.00    -0.054 F  
HETATM   30  C   UNL     1      -9.301   4.158  67.350  1.00  0.00    -0.204 A  
HETATM   31  C   UNL     1      -8.050   3.903  67.870  1.00  0.00    -0.088 A  
ENDBRANCH   8  25
BRANCH   6  32
HETATM   32  C   UNL     1     -11.559   6.645  70.698  1.00  0.00    -0.382 C  
BRANCH  32  33
HETATM   33  C   UNL     1     -10.660   6.231  71.878  1.00  0.00    -0.258 C  
BRANCH  33  34
HETATM   34  C   UNL     1     -10.949   6.992  73.188  1.00  0.00    -0.281 C  
HETATM   35  O   UNL     1     -10.867   6.149  74.337  1.00  0.00    -0.332 OA 
HETATM   36  H   UNL     1     -11.045   6.618  75.144  1.00  0.00     0.000 HD 
BRANCH  34  37
HETATM   37  C   UNL     1      -9.919   8.119  73.388  1.00  0.00    -0.004 C  
BRANCH  37  38
HETATM   38  C   UNL     1      -8.747   8.061  72.392  1.00  0.00    -0.167 C  
HETATM   39  H   UNL     1      -8.003   9.189  70.935  1.00  0.00     0.000 HD 
HETATM   40  O   UNL     1      -8.726   9.224  71.549  1.00  0.00    -0.323 OA 
BRANCH  38  41
HETATM   41  C   UNL     1      -7.413   8.020  73.136  1.00  0.00    -0.171 C  
HETATM   42  C   UNL     1      -6.924   6.615  73.403  1.00  0.00    -0.076 C  
HETATM   43  O   UNL     1      -7.123   5.748  72.387  1.00  0.00    -0.081 OA 
HETATM   44  O   UNL     1      -6.330   6.301  74.425  1.00  0.00    -0.069 OA 
ENDBRANCH  38  41
ENDBRANCH  37  38
ENDBRANCH  34  37
ENDBRANCH  33  34
ENDBRANCH  32  33
ENDBRANCH   6  32
TORSDOF 10
ENDMDL
MODEL       64
REMARK 921   NORMALIZED FREE ENERGY PREDICTED BY IDOCK:   -5.78 KCAL/MOL
REMARK 922        TOTAL FREE ENERGY PREDICTED BY IDOCK:  -11.90 KCAL/MOL
REMARK 923 INTER-LIGAND FREE ENERGY PREDICTED BY IDOCK:   -8.06 KCAL/MOL
REMARK 924 INTRA-LIGAND FREE ENERGY PREDICTED BY IDOCK:   -3.84 KCAL/MOL
REMARK 927      BINDING AFFINITY PREDICTED BY RF-SCORE:    0.00 PKD
ROOT
HETATM    1  C   UNL     1     -12.530  11.416  71.691  1.00  0.00    -0.219 C  
HETATM    2  C   UNL     1     -12.627   9.924  71.367  1.00  0.00    -0.497 C  
HETATM    3  C   UNL     1     -11.643   9.407  70.310  1.00  0.00    -0.138 A  
HETATM    4  C   UNL     1     -14.088   9.526  71.137  1.00  0.00     0.083 C  
HETATM    5  C   UNL     1     -11.007  10.023  69.215  1.00  0.00    -0.264 A  
HETATM    6  N   UNL     1     -11.107   8.116  70.418  1.00  0.00    -0.253 NA 
HETATM    7  C   UNL     1      -9.905   9.139  68.815  1.00  0.00    -0.175 A  
HETATM    8  C   UNL     1     -10.041   7.929  69.522  1.00  0.00    -0.195 A  
ENDROOT
BRANCH   5   9
HETATM    9  C   UNL     1     -11.293  11.377  68.646  1.00  0.00    -0.265 C  
HETATM   10  O   UNL     1     -12.228  11.536  67.861  1.00  0.00    -0.586 OA 
HETATM   11  N   UNL     1     -10.450  12.396  69.071  1.00  0.00    -0.422 N  
HETATM   12  H   UNL     1      -9.676  12.132  69.680  1.00  0.00     0.000 HD 
BRANCH  11  13
HETATM   13  C   UNL     1     -10.566  13.771  68.736  1.00  0.00    -0.239 A  
HETATM   14  C   UNL     1      -9.851  15.779  67.556  1.00  0.00    -0.229 A  
HETATM   15  C   UNL     1     -10.883  16.512  68.134  1.00  0.00    -0.345 A  
HETATM   16  C   UNL     1     -11.622  14.512  69.283  1.00  0.00    -0.339 A  
HETATM   17  C   UNL     1      -9.689  14.419  67.862  1.00  0.00    -0.223 A  
HETATM   18  C   UNL     1     -11.764  15.880  69.007  1.00  0.00    -0.377 A  
ENDBRANCH  11  13
ENDBRANCH   5   9
BRANCH   7  19
HETATM   19  C   UNL     1      -8.803   9.399  67.847  1.00  0.00    -0.124 A  
HETATM   20  C   UNL     1      -8.873   8.919  66.524  1.00  0.00    -0.160 A  
HETATM   21  C   UNL     1      -6.619  10.339  67.276  1.00  0.00    -0.068 A  
HETATM   22  C   UNL     1      -6.734   9.894  65.961  1.00  0.00    -0.094 A  
HETATM   23  C   UNL     1      -7.653  10.120  68.202  1.00  0.00    -0.087 A  
HETATM   24  C   UNL     1      -7.869   9.191  65.583  1.00  0.00    -0.095 A  
ENDBRANCH   7  19
BRANCH   8  25
HETATM   25  C   UNL     1      -9.283   6.632  69.388  1.00  0.00    -0.142 A  
HETATM   26  C   UNL     1      -8.081   6.396  70.078  1.00  0.00    -0.121 A  
HETATM   27  C   UNL     1      -9.034   4.378  68.463  1.00  0.00    -0.151 A  
HETATM   28  C   UNL     1      -9.739   5.590  68.563  1.00  0.00    -0.175 A  
HETATM   29  F   UNL     1      -7.266   2.987  69.187  1.00  0.00    -0.043 F  
HETATM   30  C   UNL     1      -7.428   5.161  70.060  1.00  0.00    -0.063 A  
HETATM   31  C   UNL     1      -7.906   4.161  69.241  1.00  0.00    -0.057 A  
ENDBRANCH   8  25
BRANCH   6  32
HETATM   32  C   UNL     1     -11.666   7.061  71.277  1.00  0.00    -0.317 C  
BRANCH  32  33
HETATM   33  C   UNL     1     -10.954   6.851  72.626  1.00  0.00    -0.303 C  
BRANCH  33  34
HETATM   34  C   UNL     1     -11.144   5.442  73.226  1.00  0.00    -0.297 C  
HETATM   35  O   UNL     1     -12.503   5.009  73.178  1.00  0.00    -0.342 OA 
HETATM   36  H   UNL     1     -12.620   4.141  73.547  1.00  0.00     0.000 HD 
BRANCH  34  37
HETATM   37  C   UNL     1     -10.319   4.411  72.436  1.00  0.00    -0.241 C  
BRANCH  37  38
HETATM   38  C   UNL     1      -9.932   3.172  73.263  1.00  0.00    -0.115 C  
HETATM   39  H   UNL     1     -10.848   1.617  74.093  1.00  0.00     0.000 HD 
HETATM   40  O   UNL     1     -11.087   2.381  73.583  1.00  0.00    -0.185 OA 
BRANCH  38  41
HETATM   41  C   UNL     1      -8.977   2.277  72.475  1.00  0.00    -0.101 C  
HETATM   42  C   UNL     1      -7.543   2.386  72.936  1.00  0.00    -0.045 C  
HETATM   43  O   UNL     1      -7.388   2.471  74.275  1.00  0.00    -0.039 OA 
HETATM   44  O   UNL     1      -6.591   2.327  72.170  1.00  0.00    -0.014 OA 
ENDBRANCH  38  41
ENDBRANCH  37  38
ENDBRANCH  34  37
ENDBRANCH  33  34
ENDBRANCH  32  33
ENDBRANCH   6  32
TORSDOF 10
ENDMDL
MODEL       65
REMARK 921   NORMALIZED FREE ENERGY PREDICTED BY IDOCK:   -5.77 KCAL/MOL
REMARK 922        TOTAL FREE ENERGY PREDICTED BY IDOCK:  -11.89 KCAL/MOL
REMARK 923 INTER-LIGAND FREE ENERGY PREDICTED BY IDOCK:   -8.63 KCAL/MOL
REMARK 924 INTRA-LIGAND FREE ENERGY PREDICTED BY IDOCK:   -3.26 KCAL/MOL
REMARK 927      BINDING AFFINITY PREDICTED BY RF-SCORE:    0.00 PKD
ROOT
HETATM    1  C   UNL     1     -12.559  14.329  66.077  1.00  0.00    -0.335 C  
HETATM    2  C   UNL     1     -11.774  13.040  65.826  1.00  0.00    -0.427 C  
HETATM    3  C   UNL     1     -10.353  13.002  66.403  1.00  0.00    -0.281 A  
HETATM    4  C   UNL     1     -11.883  12.633  64.354  1.00  0.00    -0.452 C  
HETATM    5  C   UNL     1      -9.409  14.009  66.681  1.00  0.00    -0.292 A  
HETATM    6  N   UNL     1      -9.824  11.801  66.896  1.00  0.00    -0.201 NA 
HETATM    7  C   UNL     1      -8.400  13.409  67.564  1.00  0.00    -0.190 A  
HETATM    8  C   UNL     1      -8.637  12.023  67.615  1.00  0.00    -0.163 A  
ENDROOT
BRANCH   5   9
HETATM    9  C   UNL     1      -9.475  15.449  66.281  1.00  0.00    -0.309 C  
HETATM   10  O   UNL     1      -9.623  15.758  65.098  1.00  0.00    -0.275 OA 
HETATM   11  N   UNL     1      -9.368  16.366  67.319  1.00  0.00    -0.219 N  
HETATM   12  H   UNL     1      -9.192  15.990  68.251  1.00  0.00     0.000 HD 
BRANCH  11  13
HETATM   13  C   UNL     1      -9.480  17.777  67.204  1.00  0.00    -0.265 A  
HETATM   14  C   UNL     1      -8.887  19.921  66.210  1.00  0.00    -0.402 A  
HETATM   15  C   UNL     1      -9.777  20.581  67.052  1.00  0.00    -0.548 A  
HETATM   16  C   UNL     1     -10.399  18.449  68.020  1.00  0.00    -0.410 A  
HETATM   17  C   UNL     1      -8.734  18.529  66.292  1.00  0.00    -0.219 A  
HETATM   18  C   UNL     1     -10.528  19.845  67.965  1.00  0.00    -0.490 A  
ENDBRANCH  11  13
ENDBRANCH   5   9
BRANCH   7  19
HETATM   19  C   UNL     1      -7.297  14.076  68.311  1.00  0.00    -0.115 A  
HETATM   20  C   UNL     1      -6.163  14.570  67.637  1.00  0.00    -0.101 A  
HETATM   21  C   UNL     1      -6.270  14.857  70.389  1.00  0.00    -0.127 A  
HETATM   22  C   UNL     1      -5.182  15.377  69.694  1.00  0.00    -0.096 A  
HETATM   23  C   UNL     1      -7.330  14.238  69.704  1.00  0.00     0.110 A  
HETATM   24  C   UNL     1      -5.134  15.242  68.313  1.00  0.00    -0.108 A  
ENDBRANCH   7  19
BRANCH   8  25
HETATM   25  C   UNL     1      -7.825  10.917  68.242  1.00  0.00    -0.118 A  
HETATM   26  C   UNL     1      -8.179  10.337  69.471  1.00  0.00    -0.165 A  
HETATM   27  C   UNL     1      -5.929   9.366  68.212  1.00  0.00    -0.044 A  
HETATM   28  C   UNL     1      -6.667  10.411  67.627  1.00  0.00    -0.074 A  
HETATM   29  F   UNL     1      -5.707   7.733  69.905  1.00  0.00    -0.023 F  
HETATM   30  C   UNL     1      -7.509   9.235  70.009  1.00  0.00    -0.094 A  
HETATM   31  C   UNL     1      -6.378   8.763  69.378  1.00  0.00    -0.041 A  
ENDBRANCH   8  25
BRANCH   6  32
HETATM   32  C   UNL     1     -10.381  10.473  66.600  1.00  0.00    -0.237 C  
BRANCH  32  33
HETATM   33  C   UNL     1      -9.733   9.724  65.421  1.00  0.00    -0.383 C  
BRANCH  33  34
HETATM   34  C   UNL     1      -9.319   8.274  65.746  1.00  0.00    -0.031 C  
HETATM   35  O   UNL     1      -7.928   8.042  65.526  1.00  0.00    -0.103 OA 
HETATM   36  H   UNL     1      -7.673   7.149  65.727  1.00  0.00     0.000 HD 
BRANCH  34  37
HETATM   37  C   UNL     1      -9.593   7.961  67.228  1.00  0.00    -0.205 C  
BRANCH  37  38
HETATM   38  C   UNL     1      -9.355   6.486  67.597  1.00  0.00    -0.118 C  
HETATM   39  H   UNL     1      -9.139   5.403  69.249  1.00  0.00     0.000 HD 
HETATM   40  O   UNL     1      -9.286   6.313  69.021  1.00  0.00    -0.127 OA 
BRANCH  38  41
HETATM   41  C   UNL     1     -10.504   5.614  67.092  1.00  0.00    -0.334 C  
HETATM   42  C   UNL     1     -10.079   4.627  66.031  1.00  0.00    -0.264 C  
HETATM   43  O   UNL     1      -8.879   4.047  66.249  1.00  0.00    -0.114 OA 
HETATM   44  O   UNL     1     -10.792   4.318  65.087  1.00  0.00    -0.242 OA 
ENDBRANCH  38  41
ENDBRANCH  37  38
ENDBRANCH  34  37
ENDBRANCH  33  34
ENDBRANCH  32  33
ENDBRANCH   6  32
TORSDOF 10
ENDMDL
MODEL       66
REMARK 921   NORMALIZED FREE ENERGY PREDICTED BY IDOCK:   -5.76 KCAL/MOL
REMARK 922        TOTAL FREE ENERGY PREDICTED BY IDOCK:  -11.88 KCAL/MOL
REMARK 923 INTER-LIGAND FREE ENERGY PREDICTED BY IDOCK:   -9.92 KCAL/MOL
REMARK 924 INTRA-LIGAND FREE ENERGY PREDICTED BY IDOCK:   -1.96 KCAL/MOL
REMARK 927      BINDING AFFINITY PREDICTED BY RF-SCORE:    0.00 PKD
ROOT
HETATM    1  C   UNL     1     -13.155  10.650  70.314  1.00  0.00    -0.024 C  
HETATM    2  C   UNL     1     -12.148  11.449  69.485  1.00  0.00    -0.370 C  
HETATM    3  C   UNL     1     -10.935  10.662  68.971  1.00  0.00    -0.248 A  
HETATM    4  C   UNL     1     -11.810  12.766  70.188  1.00  0.00    -0.326 C  
HETATM    5  C   UNL     1     -10.256   9.528  69.459  1.00  0.00    -0.225 A  
HETATM    6  N   UNL     1     -10.377  10.963  67.721  1.00  0.00    -0.179 NA 
HETATM    7  C   UNL     1      -9.432   9.022  68.353  1.00  0.00    -0.154 A  
HETATM    8  C   UNL     1      -9.463   9.975  67.318  1.00  0.00    -0.154 A  
ENDROOT
BRANCH   5   9
HETATM    9  C   UNL     1     -10.433   8.870  70.791  1.00  0.00    -0.227 C  
HETATM   10  O   UNL     1     -10.831   9.521  71.757  1.00  0.00    -0.298 OA 
HETATM   11  N   UNL     1     -10.127   7.516  70.836  1.00  0.00    -0.192 N  
HETATM   12  H   UNL     1      -9.752   7.098  69.984  1.00  0.00     0.000 HD 
BRANCH  11  13
HETATM   13  C   UNL     1     -10.287   6.659  71.957  1.00  0.00    -0.197 A  
HETATM   14  C   UNL     1     -10.070   6.131  74.325  1.00  0.00    -0.322 A  
HETATM   15  C   UNL     1     -10.650   4.882  74.122  1.00  0.00    -0.345 A  
HETATM   16  C   UNL     1     -10.903   5.415  71.771  1.00  0.00    -0.242 A  
HETATM   17  C   UNL     1      -9.881   7.010  73.248  1.00  0.00    -0.248 A  
HETATM   18  C   UNL     1     -11.059   4.520  72.841  1.00  0.00    -0.239 A  
ENDBRANCH  11  13
ENDBRANCH   5   9
BRANCH   7  19
HETATM   19  C   UNL     1      -8.673   7.744  68.263  1.00  0.00    -0.127 A  
HETATM   20  C   UNL     1      -7.394   7.620  68.842  1.00  0.00    -0.090 A  
HETATM   21  C   UNL     1      -8.441   5.426  67.516  1.00  0.00    -0.106 A  
HETATM   22  C   UNL     1      -7.199   5.316  68.138  1.00  0.00    -0.071 A  
HETATM   23  C   UNL     1      -9.183   6.617  67.601  1.00  0.00    -0.110 A  
HETATM   24  C   UNL     1      -6.680   6.413  68.810  1.00  0.00    -0.061 A  
ENDBRANCH   7  19
BRANCH   8  25
HETATM   25  C   UNL     1      -8.684  10.038  66.027  1.00  0.00    -0.152 A  
HETATM   26  C   UNL     1      -7.323  10.384  65.995  1.00  0.00    -0.134 A  
HETATM   27  C   UNL     1      -8.541   9.801  63.594  1.00  0.00    -0.207 A  
HETATM   28  C   UNL     1      -9.283   9.757  64.788  1.00  0.00    -0.319 A  
HETATM   29  F   UNL     1      -6.460  10.039  62.500  1.00  0.00    -0.101 F  
HETATM   30  C   UNL     1      -6.557  10.333  64.827  1.00  0.00    -0.097 A  
HETATM   31  C   UNL     1      -7.177  10.052  63.629  1.00  0.00    -0.128 A  
ENDBRANCH   8  25
BRANCH   6  32
HETATM   32  C   UNL     1     -10.633  12.210  66.984  1.00  0.00    -0.228 C  
BRANCH  32  33
HETATM   33  C   UNL     1     -11.813  12.172  65.995  1.00  0.00    -0.328 C  
BRANCH  33  34
HETATM   34  C   UNL     1     -12.024  13.485  65.214  1.00  0.00    -0.373 C  
HETATM   35  O   UNL     1     -13.385  13.917  65.231  1.00  0.00    -0.732 OA 
HETATM   36  H   UNL     1     -13.514  14.726  64.750  1.00  0.00     0.000 HD 
BRANCH  34  37
HETATM   37  C   UNL     1     -11.190  14.617  65.840  1.00  0.00    -0.336 C  
BRANCH  37  38
HETATM   38  C   UNL     1     -10.918  15.784  64.875  1.00  0.00    -0.427 C  
HETATM   39  H   UNL     1     -11.786  16.610  63.289  1.00  0.00     0.000 HD 
HETATM   40  O   UNL     1     -11.954  15.890  63.885  1.00  0.00    -0.730 OA 
BRANCH  38  41
HETATM   41  C   UNL     1     -10.883  17.111  65.632  1.00  0.00    -0.050 C  
HETATM   42  C   UNL     1      -9.590  17.333  66.381  1.00  0.00    -0.274 C  
HETATM   43  O   UNL     1      -8.481  16.941  65.718  1.00  0.00    -0.492 OA 
HETATM   44  O   UNL     1      -9.538  17.891  67.468  1.00  0.00    -0.262 OA 
ENDBRANCH  38  41
ENDBRANCH  37  38
ENDBRANCH  34  37
ENDBRANCH  33  34
ENDBRANCH  32  33
ENDBRANCH   6  32
TORSDOF 10
ENDMDL
MODEL       67
REMARK 921   NORMALIZED FREE ENERGY PREDICTED BY IDOCK:   -5.68 KCAL/MOL
REMARK 922        TOTAL FREE ENERGY PREDICTED BY IDOCK:  -11.76 KCAL/MOL
REMARK 923 INTER-LIGAND FREE ENERGY PREDICTED BY IDOCK:   -8.90 KCAL/MOL
REMARK 924 INTRA-LIGAND FREE ENERGY PREDICTED BY IDOCK:   -2.86 KCAL/MOL
REMARK 927      BINDING AFFINITY PREDICTED BY RF-SCORE:    0.00 PKD
ROOT
HETATM    1  C   UNL     1     -12.514   7.164  71.299  1.00  0.00    -0.425 C  
HETATM    2  C   UNL     1     -11.561   8.272  70.847  1.00  0.00    -0.282 C  
HETATM    3  C   UNL     1     -10.536   7.874  69.777  1.00  0.00    -0.242 A  
HETATM    4  C   UNL     1     -10.973   8.993  72.064  1.00  0.00    -0.355 C  
HETATM    5  C   UNL     1      -9.924   6.648  69.450  1.00  0.00    -0.169 A  
HETATM    6  N   UNL     1     -10.144   8.798  68.798  1.00  0.00    -0.193 NA 
HETATM    7  C   UNL     1      -9.340   6.812  68.112  1.00  0.00    -0.122 A  
HETATM    8  C   UNL     1      -9.420   8.174  67.768  1.00  0.00    -0.142 A  
ENDROOT
BRANCH   5   9
HETATM    9  C   UNL     1      -9.970   5.375  70.235  1.00  0.00    -0.230 C  
HETATM   10  O   UNL     1     -10.251   4.313  69.678  1.00  0.00    -0.066 OA 
HETATM   11  N   UNL     1      -9.673   5.493  71.586  1.00  0.00    -0.158 N  
HETATM   12  H   UNL     1      -9.511   6.434  71.944  1.00  0.00     0.000 HD 
BRANCH  11  13
HETATM   13  C   UNL     1      -9.575   4.425  72.517  1.00  0.00    -0.144 A  
HETATM   14  C   UNL     1      -8.308   2.851  73.879  1.00  0.00    -0.073 A  
HETATM   15  C   UNL     1      -9.486   2.297  74.372  1.00  0.00    -0.107 A  
HETATM   16  C   UNL     1     -10.752   3.884  73.049  1.00  0.00    -0.241 A  
HETATM   17  C   UNL     1      -8.353   3.901  72.950  1.00  0.00    -0.095 A  
HETATM   18  C   UNL     1     -10.710   2.808  73.950  1.00  0.00    -0.271 A  
ENDBRANCH  11  13
ENDBRANCH   5   9
BRANCH   7  19
HETATM   19  C   UNL     1      -8.752   5.777  67.217  1.00  0.00    -0.108 A  
HETATM   20  C   UNL     1      -9.472   5.287  66.108  1.00  0.00    -0.170 A  
HETATM   21  C   UNL     1      -6.947   4.253  66.582  1.00  0.00    -0.059 A  
HETATM   22  C   UNL     1      -7.660   3.821  65.467  1.00  0.00    -0.081 A  
HETATM   23  C   UNL     1      -7.474   5.241  67.433  1.00  0.00    -0.084 A  
HETATM   24  C   UNL     1      -8.921   4.347  65.225  1.00  0.00    -0.140 A  
ENDBRANCH   7  19
BRANCH   8  25
HETATM   25  C   UNL     1      -8.843   8.917  66.588  1.00  0.00    -0.150 A  
HETATM   26  C   UNL     1      -7.486   9.275  66.524  1.00  0.00    -0.093 A  
HETATM   27  C   UNL     1      -9.084   9.968  64.389  1.00  0.00    -0.289 A  
HETATM   28  C   UNL     1      -9.637   9.293  65.492  1.00  0.00    -0.291 A  
HETATM   29  F   UNL     1      -7.183  10.803  63.260  1.00  0.00    -0.070 F  
HETATM   30  C   UNL     1      -6.909   9.856  65.392  1.00  0.00    -0.112 A  
HETATM   31  C   UNL     1      -7.718  10.210  64.333  1.00  0.00    -0.134 A  
ENDBRANCH   8  25
BRANCH   6  32
HETATM   32  C   UNL     1     -10.366  10.248  68.898  1.00  0.00    -0.204 C  
BRANCH  32  33
HETATM   33  C   UNL     1     -11.619  10.784  68.181  1.00  0.00    -0.276 C  
BRANCH  33  34
HETATM   34  C   UNL     1     -11.404  12.129  67.456  1.00  0.00    -0.326 C  
HETATM   35  O   UNL     1     -12.149  12.218  66.242  1.00  0.00    -0.626 OA 
HETATM   36  H   UNL     1     -12.017  13.047  65.796  1.00  0.00     0.000 HD 
BRANCH  34  37
HETATM   37  C   UNL     1     -11.864  13.295  68.349  1.00  0.00    -0.395 C  
BRANCH  37  38
HETATM   38  C   UNL     1     -11.343  14.666  67.882  1.00  0.00    -0.315 C  
HETATM   39  H   UNL     1     -11.455  15.803  66.257  1.00  0.00     0.000 HD 
HETATM   40  O   UNL     1     -11.777  14.958  66.545  1.00  0.00    -0.312 OA 
BRANCH  38  41
HETATM   41  C   UNL     1     -11.878  15.778  68.782  1.00  0.00    -0.321 C  
HETATM   42  C   UNL     1     -11.097  15.933  70.066  1.00  0.00    -0.354 C  
HETATM   43  O   UNL     1      -9.760  15.803  69.930  1.00  0.00    -0.250 OA 
HETATM   44  O   UNL     1     -11.620  16.226  71.132  1.00  0.00    -0.427 OA 
ENDBRANCH  38  41
ENDBRANCH  37  38
ENDBRANCH  34  37
ENDBRANCH  33  34
ENDBRANCH  32  33
ENDBRANCH   6  32
TORSDOF 10
ENDMDL
MODEL       68
REMARK 921   NORMALIZED FREE ENERGY PREDICTED BY IDOCK:   -5.65 KCAL/MOL
REMARK 922        TOTAL FREE ENERGY PREDICTED BY IDOCK:  -11.70 KCAL/MOL
REMARK 923 INTER-LIGAND FREE ENERGY PREDICTED BY IDOCK:   -7.60 KCAL/MOL
REMARK 924 INTRA-LIGAND FREE ENERGY PREDICTED BY IDOCK:   -4.10 KCAL/MOL
REMARK 927      BINDING AFFINITY PREDICTED BY RF-SCORE:    0.00 PKD
ROOT
HETATM    1  C   UNL     1     -10.036   9.114  71.873  1.00  0.00    -0.196 C  
HETATM    2  C   UNL     1     -10.697   7.953  71.128  1.00  0.00    -0.251 C  
HETATM    3  C   UNL     1     -10.394   7.866  69.627  1.00  0.00    -0.216 A  
HETATM    4  C   UNL     1     -12.183   7.869  71.490  1.00  0.00    -0.338 C  
HETATM    5  C   UNL     1     -10.064   8.838  68.662  1.00  0.00    -0.207 A  
HETATM    6  N   UNL     1     -10.277   6.617  69.002  1.00  0.00    -0.168 NA 
HETATM    7  C   UNL     1      -9.521   8.115  67.504  1.00  0.00    -0.184 A  
HETATM    8  C   UNL     1      -9.740   6.740  67.709  1.00  0.00    -0.124 A  
ENDROOT
BRANCH   5   9
HETATM    9  C   UNL     1     -10.117  10.325  68.818  1.00  0.00    -0.187 C  
HETATM   10  O   UNL     1      -9.090  10.960  69.060  1.00  0.00    -0.163 OA 
HETATM   11  N   UNL     1     -11.372  10.899  68.666  1.00  0.00    -0.272 N  
HETATM   12  H   UNL     1     -12.157  10.264  68.523  1.00  0.00     0.000 HD 
BRANCH  11  13
HETATM   13  C   UNL     1     -11.664  12.289  68.690  1.00  0.00    -0.328 A  
HETATM   14  C   UNL     1     -11.957  14.458  67.620  1.00  0.00    -0.378 A  
HETATM   15  C   UNL     1     -12.261  15.045  68.845  1.00  0.00    -0.136 A  
HETATM   16  C   UNL     1     -12.008  12.884  69.911  1.00  0.00    -0.377 A  
HETATM   17  C   UNL     1     -11.652  13.091  67.545  1.00  0.00    -0.405 A  
HETATM   18  C   UNL     1     -12.277  14.259  69.993  1.00  0.00    -0.417 A  
ENDBRANCH  11  13
ENDBRANCH   5   9
BRANCH   7  19
HETATM   19  C   UNL     1      -8.843   8.662  66.296  1.00  0.00    -0.187 A  
HETATM   20  C   UNL     1      -9.575   9.342  65.302  1.00  0.00    -0.251 A  
HETATM   21  C   UNL     1      -6.848   9.034  64.930  1.00  0.00    -0.076 A  
HETATM   22  C   UNL     1      -7.587   9.743  63.986  1.00  0.00    -0.134 A  
HETATM   23  C   UNL     1      -7.463   8.523  66.086  1.00  0.00    -0.089 A  
HETATM   24  C   UNL     1      -8.952   9.905  64.179  1.00  0.00    -0.274 A  
ENDBRANCH   7  19
BRANCH   8  25
HETATM   25  C   UNL     1      -9.522   5.569  66.783  1.00  0.00    -0.147 A  
HETATM   26  C   UNL     1     -10.495   5.160  65.857  1.00  0.00    -0.172 A  
HETATM   27  C   UNL     1      -8.132   3.745  65.921  1.00  0.00    -0.097 A  
HETATM   28  C   UNL     1      -8.332   4.823  66.803  1.00  0.00    -0.106 A  
HETATM   29  F   UNL     1      -8.874   2.457  64.085  1.00  0.00    -0.091 F  
HETATM   30  C   UNL     1     -10.267   4.156  64.912  1.00  0.00    -0.218 A  
HETATM   31  C   UNL     1      -9.086   3.446  64.960  1.00  0.00    -0.142 A  
ENDBRANCH   8  25
BRANCH   6  32
HETATM   32  C   UNL     1     -10.762   5.356  69.585  1.00  0.00    -0.196 C  
BRANCH  32  33
HETATM   33  C   UNL     1      -9.698   4.491  70.286  1.00  0.00    -0.287 C  
BRANCH  33  34
HETATM   34  C   UNL     1      -9.731   4.576  71.826  1.00  0.00    -0.171 C  
HETATM   35  O   UNL     1     -10.285   3.403  72.424  1.00  0.00    -0.162 OA 
HETATM   36  H   UNL     1     -10.305   3.455  73.372  1.00  0.00     0.000 HD 
BRANCH  34  37
HETATM   37  C   UNL     1      -8.305   4.728  72.382  1.00  0.00    -0.116 C  
BRANCH  37  38
HETATM   38  C   UNL     1      -7.691   6.116  72.124  1.00  0.00    -0.101 C  
HETATM   39  H   UNL     1      -6.784   7.538  73.174  1.00  0.00     0.000 HD 
HETATM   40  O   UNL     1      -7.163   6.682  73.333  1.00  0.00    -0.080 OA 
BRANCH  38  41
HETATM   41  C   UNL     1      -6.535   6.015  71.131  1.00  0.00    -0.049 C  
HETATM   42  C   UNL     1      -6.610   7.039  70.023  1.00  0.00    -0.044 C  
HETATM   43  O   UNL     1      -7.014   8.266  70.418  1.00  0.00    -0.036 OA 
HETATM   44  O   UNL     1      -6.264   6.804  68.874  1.00  0.00    -0.025 OA 
ENDBRANCH  38  41
ENDBRANCH  37  38
ENDBRANCH  34  37
ENDBRANCH  33  34
ENDBRANCH  32  33
ENDBRANCH   6  32
TORSDOF 10
ENDMDL
MODEL       69
REMARK 921   NORMALIZED FREE ENERGY PREDICTED BY IDOCK:   -5.57 KCAL/MOL
REMARK 922        TOTAL FREE ENERGY PREDICTED BY IDOCK:  -11.58 KCAL/MOL
REMARK 923 INTER-LIGAND FREE ENERGY PREDICTED BY IDOCK:   -9.15 KCAL/MOL
REMARK 924 INTRA-LIGAND FREE ENERGY PREDICTED BY IDOCK:   -2.43 KCAL/MOL
REMARK 927      BINDING AFFINITY PREDICTED BY RF-SCORE:    0.00 PKD
ROOT
HETATM    1  C   UNL     1     -11.218  11.034  64.966  1.00  0.00     0.099 C  
HETATM    2  C   UNL     1     -10.319  10.231  65.908  1.00  0.00    -0.241 C  
HETATM    3  C   UNL     1     -10.558  10.453  67.407  1.00  0.00    -0.269 A  
HETATM    4  C   UNL     1      -8.857  10.340  65.467  1.00  0.00    -0.191 C  
HETATM    5  C   UNL     1     -11.048  11.549  68.144  1.00  0.00    -0.303 A  
HETATM    6  N   UNL     1     -10.408   9.391  68.310  1.00  0.00    -0.204 NA 
HETATM    7  C   UNL     1     -11.405  11.038  69.474  1.00  0.00    -0.356 A  
HETATM    8  C   UNL     1     -10.923   9.720  69.576  1.00  0.00    -0.227 A  
ENDROOT
BRANCH   5   9
HETATM    9  C   UNL     1     -11.295  12.938  67.645  1.00  0.00    -0.303 C  
HETATM   10  O   UNL     1     -12.372  13.226  67.122  1.00  0.00    -0.280 OA 
HETATM   11  N   UNL     1     -10.250  13.835  67.825  1.00  0.00    -0.237 N  
HETATM   12  H   UNL     1      -9.386  13.464  68.221  1.00  0.00     0.000 HD 
BRANCH  11  13
HETATM   13  C   UNL     1     -10.273  15.219  67.509  1.00  0.00    -0.239 A  
HETATM   14  C   UNL     1     -10.359  17.577  68.117  1.00  0.00    -0.375 A  
HETATM   15  C   UNL     1     -10.311  17.946  66.777  1.00  0.00    -0.357 A  
HETATM   16  C   UNL     1     -10.187  15.605  66.165  1.00  0.00    -0.327 A  
HETATM   17  C   UNL     1     -10.349  16.221  68.480  1.00  0.00    -0.261 A  
HETATM   18  C   UNL     1     -10.234  16.959  65.798  1.00  0.00    -0.287 A  
ENDBRANCH  11  13
ENDBRANCH   5   9
BRANCH   7  19
HETATM   19  C   UNL     1     -12.145  11.723  70.570  1.00  0.00    -0.439 A  
HETATM   20  C   UNL     1     -12.117  13.127  70.694  1.00  0.00    -0.346 A  
HETATM   21  C   UNL     1     -13.567  11.684  72.560  1.00  0.00     0.485 A  
HETATM   22  C   UNL     1     -13.561  13.074  72.632  1.00  0.00    -0.345 A  
HETATM   23  C   UNL     1     -12.890  11.016  71.525  1.00  0.00    -0.555 A  
HETATM   24  C   UNL     1     -12.842  13.797  71.690  1.00  0.00    -0.438 A  
ENDBRANCH   7  19
BRANCH   8  25
HETATM   25  C   UNL     1     -10.879   8.786  70.761  1.00  0.00    -0.282 A  
HETATM   26  C   UNL     1     -10.098   9.059  71.895  1.00  0.00    -0.323 A  
HETATM   27  C   UNL     1     -11.583   6.739  71.906  1.00  0.00    -0.330 A  
HETATM   28  C   UNL     1     -11.617   7.591  70.788  1.00  0.00    -0.300 A  
HETATM   29  F   UNL     1     -10.884   6.321  74.124  1.00  0.00    -0.235 F  
HETATM   30  C   UNL     1     -10.135   8.270  73.048  1.00  0.00    -0.187 A  
HETATM   31  C   UNL     1     -10.872   7.104  73.040  1.00  0.00    -0.328 A  
ENDBRANCH   8  25
BRANCH   6  32
HETATM   32  C   UNL     1      -9.699   8.140  68.000  1.00  0.00    -0.161 C  
BRANCH  32  33
HETATM   33  C   UNL     1      -8.161   8.214  68.048  1.00  0.00    -0.129 C  
BRANCH  33  34
HETATM   34  C   UNL     1      -7.518   7.287  69.100  1.00  0.00    -0.093 C  
HETATM   35  O   UNL     1      -6.560   6.397  68.527  1.00  0.00    -0.050 OA 
HETATM   36  H   UNL     1      -6.163   5.826  69.175  1.00  0.00     0.000 HD 
BRANCH  34  37
HETATM   37  C   UNL     1      -6.776   8.118  70.161  1.00  0.00    -0.036 C  
BRANCH  37  38
HETATM   38  C   UNL     1      -6.765   7.466  71.554  1.00  0.00    -0.050 C  
HETATM   39  H   UNL     1      -6.201   5.740  72.362  1.00  0.00     0.000 HD 
HETATM   40  O   UNL     1      -6.207   6.143  71.503  1.00  0.00    -0.041 OA 
BRANCH  38  41
HETATM   41  C   UNL     1      -5.908   8.279  72.522  1.00  0.00    -0.053 C  
HETATM   42  C   UNL     1      -6.590   8.545  73.843  1.00  0.00    -0.094 C  
HETATM   43  O   UNL     1      -7.298   7.503  74.330  1.00  0.00    -0.109 OA 
HETATM   44  O   UNL     1      -6.456   9.590  74.463  1.00  0.00    -0.353 OA 
ENDBRANCH  38  41
ENDBRANCH  37  38
ENDBRANCH  34  37
ENDBRANCH  33  34
ENDBRANCH  32  33
ENDBRANCH   6  32
TORSDOF 10
ENDMDL
MODEL       70
REMARK 921   NORMALIZED FREE ENERGY PREDICTED BY IDOCK:   -5.56 KCAL/MOL
REMARK 922        TOTAL FREE ENERGY PREDICTED BY IDOCK:  -11.56 KCAL/MOL
REMARK 923 INTER-LIGAND FREE ENERGY PREDICTED BY IDOCK:   -8.88 KCAL/MOL
REMARK 924 INTRA-LIGAND FREE ENERGY PREDICTED BY IDOCK:   -2.69 KCAL/MOL
REMARK 927      BINDING AFFINITY PREDICTED BY RF-SCORE:    0.00 PKD
ROOT
HETATM    1  C   UNL     1      -6.408  13.726  70.382  1.00  0.00    -0.007 C  
HETATM    2  C   UNL     1      -6.752  14.051  68.927  1.00  0.00    -0.105 C  
HETATM    3  C   UNL     1      -7.467  12.939  68.148  1.00  0.00    -0.126 A  
HETATM    4  C   UNL     1      -5.538  14.656  68.218  1.00  0.00    -0.117 C  
HETATM    5  C   UNL     1      -7.459  11.535  68.263  1.00  0.00    -0.103 A  
HETATM    6  N   UNL     1      -8.433  13.262  67.184  1.00  0.00    -0.198 NA 
HETATM    7  C   UNL     1      -8.616  11.043  67.505  1.00  0.00    -0.128 A  
HETATM    8  C   UNL     1      -9.152  12.124  66.781  1.00  0.00    -0.205 A  
ENDROOT
BRANCH   5   9
HETATM    9  C   UNL     1      -6.544  10.701  69.104  1.00  0.00    -0.061 C  
HETATM   10  O   UNL     1      -5.330  10.716  68.902  1.00  0.00    -0.042 OA 
HETATM   11  N   UNL     1      -7.161   9.946  70.093  1.00  0.00    -0.130 N  
HETATM   12  H   UNL     1      -8.180   9.973  70.127  1.00  0.00     0.000 HD 
BRANCH  11  13
HETATM   13  C   UNL     1      -6.505   9.141  71.062  1.00  0.00    -0.081 A  
HETATM   14  C   UNL     1      -5.272   8.829  73.140  1.00  0.00    -0.068 A  
HETATM   15  C   UNL     1      -5.225   7.454  72.930  1.00  0.00    -0.037 A  
HETATM   16  C   UNL     1      -6.483   7.752  70.881  1.00  0.00    -0.038 A  
HETATM   17  C   UNL     1      -5.900   9.668  72.207  1.00  0.00     0.201 A  
HETATM   18  C   UNL     1      -5.823   6.915  71.794  1.00  0.00    -0.037 A  
ENDBRANCH  11  13
ENDBRANCH   5   9
BRANCH   7  19
HETATM   19  C   UNL     1      -9.185   9.667  67.458  1.00  0.00    -0.149 A  
HETATM   20  C   UNL     1      -9.968   9.172  68.519  1.00  0.00    -0.192 A  
HETATM   21  C   UNL     1      -9.502   7.505  66.358  1.00  0.00    -0.208 A  
HETATM   22  C   UNL     1     -10.311   7.058  67.399  1.00  0.00    -0.313 A  
HETATM   23  C   UNL     1      -8.967   8.805  66.372  1.00  0.00    -0.194 A  
HETATM   24  C   UNL     1     -10.552   7.897  68.477  1.00  0.00    -0.146 A  
ENDBRANCH   7  19
BRANCH   8  25
HETATM   25  C   UNL     1     -10.239  12.154  65.735  1.00  0.00    -0.282 A  
HETATM   26  C   UNL     1     -10.013  11.738  64.413  1.00  0.00    -0.281 A  
HETATM   27  C   UNL     1     -12.547  12.609  65.052  1.00  0.00    -0.504 A  
HETATM   28  C   UNL     1     -11.537  12.604  66.031  1.00  0.00    -0.443 A  
HETATM   29  F   UNL     1     -13.271  12.049  62.874  1.00  0.00    -0.409 F  
HETATM   30  C   UNL     1     -11.033  11.646  63.462  1.00  0.00    -0.485 A  
HETATM   31  C   UNL     1     -12.296  12.095  63.788  1.00  0.00    -0.532 A  
ENDBRANCH   8  25
BRANCH   6  32
HETATM   32  C   UNL     1      -8.590  14.599  66.592  1.00  0.00    -0.094 C  
BRANCH  32  33
HETATM   33  C   UNL     1      -9.178  15.677  67.521  1.00  0.00    -0.203 C  
BRANCH  33  34
HETATM   34  C   UNL     1      -8.750  17.116  67.167  1.00  0.00    -0.212 C  
HETATM   35  O   UNL     1      -8.148  17.203  65.875  1.00  0.00    -0.516 OA 
HETATM   36  H   UNL     1      -7.884  18.089  65.657  1.00  0.00     0.000 HD 
BRANCH  34  37
HETATM   37  C   UNL     1      -9.974  18.048  67.152  1.00  0.00    -0.326 C  
BRANCH  37  38
HETATM   38  C   UNL     1      -9.775  19.307  66.289  1.00  0.00    -0.374 C  
HETATM   39  H   UNL     1     -10.906  20.567  65.250  1.00  0.00     0.000 HD 
HETATM   40  O   UNL     1     -11.028  19.791  65.782  1.00  0.00    -0.375 OA 
BRANCH  38  41
HETATM   41  C   UNL     1      -9.159  20.433  67.117  1.00  0.00    -0.489 C  
HETATM   42  C   UNL     1      -7.648  20.409  67.123  1.00  0.00    -0.324 C  
HETATM   43  O   UNL     1      -7.086  20.103  65.935  1.00  0.00    -0.274 OA 
HETATM   44  O   UNL     1      -6.982  20.715  68.102  1.00  0.00    -0.269 OA 
ENDBRANCH  38  41
ENDBRANCH  37  38
ENDBRANCH  34  37
ENDBRANCH  33  34
ENDBRANCH  32  33
ENDBRANCH   6  32
TORSDOF 10
ENDMDL
MODEL       71
REMARK 921   NORMALIZED FREE ENERGY PREDICTED BY IDOCK:   -5.49 KCAL/MOL
REMARK 922        TOTAL FREE ENERGY PREDICTED BY IDOCK:  -11.44 KCAL/MOL
REMARK 923 INTER-LIGAND FREE ENERGY PREDICTED BY IDOCK:   -8.39 KCAL/MOL
REMARK 924 INTRA-LIGAND FREE ENERGY PREDICTED BY IDOCK:   -3.06 KCAL/MOL
REMARK 927      BINDING AFFINITY PREDICTED BY RF-SCORE:    0.00 PKD
ROOT
HETATM    1  C   UNL     1      -6.279  13.227  70.466  1.00  0.00     0.063 C  
HETATM    2  C   UNL     1      -6.626  13.655  69.039  1.00  0.00    -0.109 C  
HETATM    3  C   UNL     1      -7.424  12.636  68.214  1.00  0.00    -0.123 A  
HETATM    4  C   UNL     1      -5.388  14.221  68.339  1.00  0.00    -0.108 C  
HETATM    5  C   UNL     1      -7.505  11.231  68.251  1.00  0.00    -0.099 A  
HETATM    6  N   UNL     1      -8.383  13.074  67.290  1.00  0.00    -0.190 NA 
HETATM    7  C   UNL     1      -8.704  10.857  67.491  1.00  0.00    -0.130 A  
HETATM    8  C   UNL     1      -9.182  12.009  66.839  1.00  0.00    -0.197 A  
ENDROOT
BRANCH   5   9
HETATM    9  C   UNL     1      -6.632  10.293  69.025  1.00  0.00    -0.053 C  
HETATM   10  O   UNL     1      -5.456  10.130  68.700  1.00  0.00    -0.039 OA 
HETATM   11  N   UNL     1      -7.240   9.658  70.101  1.00  0.00    -0.110 N  
HETATM   12  H   UNL     1      -8.236   9.832  70.238  1.00  0.00     0.000 HD 
BRANCH  11  13
HETATM   13  C   UNL     1      -6.604   8.790  71.027  1.00  0.00    -0.060 A  
HETATM   14  C   UNL     1      -5.207   8.352  72.975  1.00  0.00    -0.046 A  
HETATM   15  C   UNL     1      -5.381   6.980  72.818  1.00  0.00    -0.038 A  
HETATM   16  C   UNL     1      -6.802   7.409  70.902  1.00  0.00    -0.048 A  
HETATM   17  C   UNL     1      -5.807   9.251  72.080  1.00  0.00    -0.029 A  
HETATM   18  C   UNL     1      -6.172   6.507  71.774  1.00  0.00    -0.042 A  
ENDBRANCH  11  13
ENDBRANCH   5   9
BRANCH   7  19
HETATM   19  C   UNL     1      -9.362   9.525  67.379  1.00  0.00    -0.153 A  
HETATM   20  C   UNL     1      -9.059   8.656  66.313  1.00  0.00    -0.233 A  
HETATM   21  C   UNL     1     -10.927   7.824  68.179  1.00  0.00     0.100 A  
HETATM   22  C   UNL     1     -10.575   6.965  67.141  1.00  0.00    -0.408 A  
HETATM   23  C   UNL     1     -10.308   9.078  68.314  1.00  0.00    -0.252 A  
HETATM   24  C   UNL     1      -9.631   7.379  66.212  1.00  0.00    -0.119 A  
ENDBRANCH   7  19
BRANCH   8  25
HETATM   25  C   UNL     1     -10.283  12.168  65.819  1.00  0.00    -0.282 A  
HETATM   26  C   UNL     1     -10.051  12.012  64.443  1.00  0.00    -0.298 A  
HETATM   27  C   UNL     1     -12.620  12.609  65.237  1.00  0.00    -0.388 A  
HETATM   28  C   UNL     1     -11.599  12.483  66.195  1.00  0.00    -0.448 A  
HETATM   29  F   UNL     1     -13.340  12.414  62.995  1.00  0.00    -0.086 F  
HETATM   30  C   UNL     1     -11.077  12.038  63.495  1.00  0.00    -0.519 A  
HETATM   31  C   UNL     1     -12.358  12.348  63.900  1.00  0.00    -0.508 A  
ENDBRANCH   8  25
BRANCH   6  32
HETATM   32  C   UNL     1      -8.464  14.450  66.776  1.00  0.00    -0.044 C  
BRANCH  32  33
HETATM   33  C   UNL     1      -9.783  15.193  67.061  1.00  0.00    -0.237 C  
BRANCH  33  34
HETATM   34  C   UNL     1      -9.910  15.720  68.505  1.00  0.00    -0.209 C  
HETATM   35  O   UNL     1      -9.191  16.938  68.706  1.00  0.00    -0.259 OA 
HETATM   36  H   UNL     1      -9.270  17.262  69.595  1.00  0.00     0.000 HD 
BRANCH  34  37
HETATM   37  C   UNL     1     -11.383  16.013  68.838  1.00  0.00    -0.370 C  
BRANCH  37  38
HETATM   38  C   UNL     1     -11.948  15.120  69.956  1.00  0.00    -0.336 C  
HETATM   39  H   UNL     1     -12.038  13.181  70.381  1.00  0.00     0.000 HD 
HETATM   40  O   UNL     1     -11.690  13.732  69.691  1.00  0.00    -0.284 OA 
BRANCH  38  41
HETATM   41  C   UNL     1     -11.290  15.454  71.294  1.00  0.00    -0.441 C  
HETATM   42  C   UNL     1     -12.259  15.446  72.453  1.00  0.00    -0.394 C  
HETATM   43  O   UNL     1     -13.173  14.452  72.415  1.00  0.00    -0.373 OA 
HETATM   44  O   UNL     1     -12.182  16.228  73.390  1.00  0.00    -0.491 OA 
ENDBRANCH  38  41
ENDBRANCH  37  38
ENDBRANCH  34  37
ENDBRANCH  33  34
ENDBRANCH  32  33
ENDBRANCH   6  32
TORSDOF 10
ENDMDL
MODEL       72
REMARK 921   NORMALIZED FREE ENERGY PREDICTED BY IDOCK:   -5.46 KCAL/MOL
REMARK 922        TOTAL FREE ENERGY PREDICTED BY IDOCK:  -11.40 KCAL/MOL
REMARK 923 INTER-LIGAND FREE ENERGY PREDICTED BY IDOCK:   -7.68 KCAL/MOL
REMARK 924 INTRA-LIGAND FREE ENERGY PREDICTED BY IDOCK:   -3.73 KCAL/MOL
REMARK 927      BINDING AFFINITY PREDICTED BY RF-SCORE:    0.00 PKD
ROOT
HETATM    1  C   UNL     1      -9.744   8.874  71.319  1.00  0.00    -0.359 C  
HETATM    2  C   UNL     1     -10.366   7.743  70.497  1.00  0.00    -0.205 C  
HETATM    3  C   UNL     1     -10.054   7.764  68.994  1.00  0.00    -0.196 A  
HETATM    4  C   UNL     1     -11.849   7.589  70.844  1.00  0.00    -0.293 C  
HETATM    5  C   UNL     1      -9.752   8.806  68.096  1.00  0.00    -0.177 A  
HETATM    6  N   UNL     1      -9.896   6.562  68.291  1.00  0.00    -0.130 NA 
HETATM    7  C   UNL     1      -9.182   8.177  66.897  1.00  0.00    -0.198 A  
HETATM    8  C   UNL     1      -9.358   6.786  67.012  1.00  0.00    -0.143 A  
ENDROOT
BRANCH   5   9
HETATM    9  C   UNL     1      -9.853  10.277  68.348  1.00  0.00    -0.156 C  
HETATM   10  O   UNL     1      -8.849  10.926  68.646  1.00  0.00    -0.146 OA 
HETATM   11  N   UNL     1     -11.123  10.823  68.215  1.00  0.00    -0.250 N  
HETATM   12  H   UNL     1     -11.886  10.175  68.019  1.00  0.00     0.000 HD 
BRANCH  11  13
HETATM   13  C   UNL     1     -11.458  12.199  68.325  1.00  0.00    -0.305 A  
HETATM   14  C   UNL     1     -12.121  14.169  69.595  1.00  0.00    -0.400 A  
HETATM   15  C   UNL     1     -12.107  14.945  68.439  1.00  0.00    -0.167 A  
HETATM   16  C   UNL     1     -11.411  12.998  67.176  1.00  0.00    -0.379 A  
HETATM   17  C   UNL     1     -11.807  12.803  69.536  1.00  0.00    -0.379 A  
HETATM   18  C   UNL     1     -11.761  14.356  67.226  1.00  0.00    -0.429 A  
ENDBRANCH  11  13
ENDBRANCH   5   9
BRANCH   7  19
HETATM   19  C   UNL     1      -8.518   8.822  65.730  1.00  0.00    -0.161 A  
HETATM   20  C   UNL     1      -9.275   9.319  64.651  1.00  0.00    -0.112 A  
HETATM   21  C   UNL     1      -6.520   9.559  64.528  1.00  0.00    -0.093 A  
HETATM   22  C   UNL     1      -7.294  10.083  63.496  1.00  0.00    -0.138 A  
HETATM   23  C   UNL     1      -7.124   8.960  65.646  1.00  0.00    -0.084 A  
HETATM   24  C   UNL     1      -8.676   9.971  63.563  1.00  0.00    -0.229 A  
ENDBRANCH   7  19
BRANCH   8  25
HETATM   25  C   UNL     1      -9.100   5.685  66.013  1.00  0.00    -0.164 A  
HETATM   26  C   UNL     1     -10.146   4.992  65.380  1.00  0.00     0.052 A  
HETATM   27  C   UNL     1      -7.568   4.278  64.719  1.00  0.00    -0.077 A  
HETATM   28  C   UNL     1      -7.796   5.292  65.666  1.00  0.00    -0.100 A  
HETATM   29  F   UNL     1      -8.417   2.769  63.111  1.00  0.00    -0.081 F  
HETATM   30  C   UNL     1      -9.929   4.054  64.368  1.00  0.00    -0.192 A  
HETATM   31  C   UNL     1      -8.636   3.694  64.052  1.00  0.00    -0.091 A  
ENDBRANCH   8  25
BRANCH   6  32
HETATM   32  C   UNL     1     -10.342   5.251  68.788  1.00  0.00    -0.136 C  
BRANCH  32  33
HETATM   33  C   UNL     1      -9.238   4.194  68.972  1.00  0.00    -0.213 C  
BRANCH  33  34
HETATM   34  C   UNL     1      -8.435   4.344  70.280  1.00  0.00    -0.073 C  
HETATM   35  O   UNL     1      -7.630   5.523  70.294  1.00  0.00    -0.076 OA 
HETATM   36  H   UNL     1      -7.136   5.615  71.100  1.00  0.00     0.000 HD 
BRANCH  34  37
HETATM   37  C   UNL     1      -9.389   4.442  71.484  1.00  0.00    -0.203 C  
BRANCH  37  38
HETATM   38  C   UNL     1      -8.673   4.350  72.843  1.00  0.00    -0.108 C  
HETATM   39  H   UNL     1      -6.837   3.987  73.513  1.00  0.00     0.000 HD 
HETATM   40  O   UNL     1      -7.279   4.045  72.674  1.00  0.00    -0.058 OA 
BRANCH  38  41
HETATM   41  C   UNL     1      -8.756   5.683  73.584  1.00  0.00    -0.122 C  
HETATM   42  C   UNL     1     -10.153   6.018  74.051  1.00  0.00    -0.260 C  
HETATM   43  O   UNL     1     -10.852   4.968  74.534  1.00  0.00    -0.331 OA 
HETATM   44  O   UNL     1     -10.595   7.158  74.063  1.00  0.00    -0.317 OA 
ENDBRANCH  38  41
ENDBRANCH  37  38
ENDBRANCH  34  37
ENDBRANCH  33  34
ENDBRANCH  32  33
ENDBRANCH   6  32
TORSDOF 10
ENDMDL
MODEL       73
REMARK 921   NORMALIZED FREE ENERGY PREDICTED BY IDOCK:   -5.45 KCAL/MOL
REMARK 922        TOTAL FREE ENERGY PREDICTED BY IDOCK:  -11.39 KCAL/MOL
REMARK 923 INTER-LIGAND FREE ENERGY PREDICTED BY IDOCK:   -8.01 KCAL/MOL
REMARK 924 INTRA-LIGAND FREE ENERGY PREDICTED BY IDOCK:   -3.38 KCAL/MOL
REMARK 927      BINDING AFFINITY PREDICTED BY RF-SCORE:    0.00 PKD
ROOT
HETATM    1  C   UNL     1     -13.220   7.419  71.413  1.00  0.00    -0.395 C  
HETATM    2  C   UNL     1     -12.550   8.764  71.122  1.00  0.00    -0.204 C  
HETATM    3  C   UNL     1     -11.028   8.724  70.936  1.00  0.00    -0.262 A  
HETATM    4  C   UNL     1     -13.052   9.828  72.101  1.00  0.00    -0.513 C  
HETATM    5  C   UNL     1     -10.027   7.868  71.437  1.00  0.00    -0.208 A  
HETATM    6  N   UNL     1     -10.406   9.584  70.020  1.00  0.00    -0.228 NA 
HETATM    7  C   UNL     1      -8.830   8.093  70.616  1.00  0.00    -0.143 A  
HETATM    8  C   UNL     1      -9.068   9.216  69.801  1.00  0.00    -0.167 A  
ENDROOT
BRANCH   5   9
HETATM    9  C   UNL     1     -10.175   6.827  72.502  1.00  0.00    -0.179 C  
HETATM   10  O   UNL     1     -10.574   7.140  73.624  1.00  0.00    -0.372 OA 
HETATM   11  N   UNL     1      -9.843   5.533  72.125  1.00  0.00    -0.161 N  
HETATM   12  H   UNL     1      -9.471   5.406  71.183  1.00  0.00     0.000 HD 
BRANCH  11  13
HETATM   13  C   UNL     1      -9.973   4.369  72.927  1.00  0.00    -0.153 A  
HETATM   14  C   UNL     1      -9.103   2.694  74.469  1.00  0.00    -0.094 A  
HETATM   15  C   UNL     1     -10.335   2.046  74.493  1.00  0.00    -0.175 A  
HETATM   16  C   UNL     1     -11.218   3.728  72.990  1.00  0.00    -0.071 A  
HETATM   17  C   UNL     1      -8.922   3.843  73.684  1.00  0.00    -0.091 A  
HETATM   18  C   UNL     1     -11.392   2.559  73.746  1.00  0.00    -0.259 A  
ENDBRANCH  11  13
ENDBRANCH   5   9
BRANCH   7  19
HETATM   19  C   UNL     1      -7.559   7.318  70.587  1.00  0.00    -0.091 A  
HETATM   20  C   UNL     1      -6.547   7.554  71.538  1.00  0.00    -0.045 A  
HETATM   21  C   UNL     1      -6.091   5.626  69.604  1.00  0.00    -0.025 A  
HETATM   22  C   UNL     1      -5.127   5.846  70.584  1.00  0.00    -0.009 A  
HETATM   23  C   UNL     1      -7.306   6.333  69.620  1.00  0.00    -0.080 A  
HETATM   24  C   UNL     1      -5.360   6.805  71.559  1.00  0.00    -0.027 A  
ENDBRANCH   7  19
BRANCH   8  25
HETATM   25  C   UNL     1      -8.136   9.971  68.886  1.00  0.00    -0.111 A  
HETATM   26  C   UNL     1      -7.116  10.801  69.380  1.00  0.00    -0.122 A  
HETATM   27  C   UNL     1      -7.356  10.578  66.645  1.00  0.00    -0.120 A  
HETATM   28  C   UNL     1      -8.243   9.885  67.488  1.00  0.00    -0.114 A  
HETATM   29  F   UNL     1      -5.429  11.920  66.384  1.00  0.00    -0.127 F  
HETATM   30  C   UNL     1      -6.171  11.414  68.553  1.00  0.00    -0.046 A  
HETATM   31  C   UNL     1      -6.306  11.306  67.185  1.00  0.00    -0.096 A  
ENDBRANCH   8  25
BRANCH   6  32
HETATM   32  C   UNL     1     -11.043  10.782  69.452  1.00  0.00    -0.268 C  
BRANCH  32  33
HETATM   33  C   UNL     1     -11.619  10.623  68.032  1.00  0.00    -0.182 C  
BRANCH  33  34
HETATM   34  C   UNL     1     -11.159  11.712  67.041  1.00  0.00    -0.302 C  
HETATM   35  O   UNL     1     -12.179  12.062  66.105  1.00  0.00    -0.552 OA 
HETATM   36  H   UNL     1     -11.896  12.733  65.495  1.00  0.00     0.000 HD 
BRANCH  34  37
HETATM   37  C   UNL     1     -10.787  13.000  67.797  1.00  0.00    -0.257 C  
BRANCH  37  38
HETATM   38  C   UNL     1     -11.732  14.178  67.502  1.00  0.00    -0.386 C  
HETATM   39  H   UNL     1     -13.083  15.257  68.481  1.00  0.00     0.000 HD 
HETATM   40  O   UNL     1     -12.500  14.531  68.663  1.00  0.00    -0.084 OA 
BRANCH  38  41
HETATM   41  C   UNL     1     -10.934  15.416  67.096  1.00  0.00    -0.317 C  
HETATM   42  C   UNL     1     -10.222  15.259  65.773  1.00  0.00    -0.349 C  
HETATM   43  O   UNL     1     -10.935  14.613  64.825  1.00  0.00    -0.392 OA 
HETATM   44  O   UNL     1      -9.121  15.740  65.549  1.00  0.00    -0.235 OA 
ENDBRANCH  38  41
ENDBRANCH  37  38
ENDBRANCH  34  37
ENDBRANCH  33  34
ENDBRANCH  32  33
ENDBRANCH   6  32
TORSDOF 10
ENDMDL
MODEL       74
REMARK 921   NORMALIZED FREE ENERGY PREDICTED BY IDOCK:   -5.37 KCAL/MOL
REMARK 922        TOTAL FREE ENERGY PREDICTED BY IDOCK:  -11.26 KCAL/MOL
REMARK 923 INTER-LIGAND FREE ENERGY PREDICTED BY IDOCK:  -10.42 KCAL/MOL
REMARK 924 INTRA-LIGAND FREE ENERGY PREDICTED BY IDOCK:   -0.84 KCAL/MOL
REMARK 927      BINDING AFFINITY PREDICTED BY RF-SCORE:    0.00 PKD
ROOT
HETATM    1  C   UNL     1      -6.460  15.126  67.003  1.00  0.00     0.545 C  
HETATM    2  C   UNL     1      -7.739  15.904  67.319  1.00  0.00    -0.224 C  
HETATM    3  C   UNL     1      -8.883  15.084  67.930  1.00  0.00    -0.171 A  
HETATM    4  C   UNL     1      -8.138  16.775  66.125  1.00  0.00    -0.293 C  
HETATM    5  C   UNL     1      -9.243  13.726  67.831  1.00  0.00    -0.200 A  
HETATM    6  N   UNL     1      -9.734  15.662  68.882  1.00  0.00    -0.207 NA 
HETATM    7  C   UNL     1     -10.185  13.459  68.926  1.00  0.00    -0.050 A  
HETATM    8  C   UNL     1     -10.533  14.691  69.510  1.00  0.00    -0.107 A  
ENDROOT
BRANCH   5   9
HETATM    9  C   UNL     1      -8.682  12.706  66.892  1.00  0.00    -0.175 C  
HETATM   10  O   UNL     1      -7.533  12.289  67.043  1.00  0.00    -0.140 OA 
HETATM   11  N   UNL     1      -9.538  12.284  65.883  1.00  0.00    -0.326 N  
HETATM   12  H   UNL     1     -10.448  12.744  65.826  1.00  0.00     0.000 HD 
BRANCH  11  13
HETATM   13  C   UNL     1      -9.266  11.274  64.923  1.00  0.00    -0.112 A  
HETATM   14  C   UNL     1      -9.136  10.439  62.638  1.00  0.00    -0.305 A  
HETATM   15  C   UNL     1      -8.697   9.199  63.093  1.00  0.00    -0.155 A  
HETATM   16  C   UNL     1      -8.788  10.034  65.366  1.00  0.00    -0.199 A  
HETATM   17  C   UNL     1      -9.427  11.466  63.547  1.00  0.00    -0.255 A  
HETATM   18  C   UNL     1      -8.531   8.993  64.460  1.00  0.00    -0.191 A  
ENDBRANCH  11  13
ENDBRANCH   5   9
BRANCH   7  19
HETATM   19  C   UNL     1     -10.720  12.152  69.400  1.00  0.00     0.054 A  
HETATM   20  C   UNL     1      -9.938  10.982  69.328  1.00  0.00    -0.088 A  
HETATM   21  C   UNL     1     -12.502  10.774  70.353  1.00  0.00    -0.430 A  
HETATM   22  C   UNL     1     -11.692   9.642  70.314  1.00  0.00    -0.213 A  
HETATM   23  C   UNL     1     -12.013  12.021  69.927  1.00  0.00    -0.391 A  
HETATM   24  C   UNL     1     -10.404   9.749  69.810  1.00  0.00    -0.274 A  
ENDBRANCH   7  19
BRANCH   8  25
HETATM   25  C   UNL     1     -11.567  15.015  70.560  1.00  0.00    -0.343 A  
HETATM   26  C   UNL     1     -11.210  15.360  71.875  1.00  0.00    -0.378 A  
HETATM   27  C   UNL     1     -13.895  15.310  71.260  1.00  0.00    -0.562 A  
HETATM   28  C   UNL     1     -12.942  14.986  70.278  1.00  0.00    -0.206 A  
HETATM   29  F   UNL     1     -14.390  16.099  73.431  1.00  0.00    -0.407 F  
HETATM   30  C   UNL     1     -12.143  15.777  72.827  1.00  0.00    -0.596 A  
HETATM   31  C   UNL     1     -13.486  15.738  72.514  1.00  0.00    -0.498 A  
ENDBRANCH   8  25
BRANCH   6  32
HETATM   32  C   UNL     1      -9.853  17.110  69.109  1.00  0.00    -0.187 C  
BRANCH  32  33
HETATM   33  C   UNL     1     -10.495  17.916  67.965  1.00  0.00    -0.390 C  
BRANCH  33  34
HETATM   34  C   UNL     1     -10.611  19.429  68.247  1.00  0.00    -0.195 C  
HETATM   35  O   UNL     1     -10.092  19.785  69.528  1.00  0.00    -0.577 OA 
HETATM   36  H   UNL     1     -10.162  20.716  69.701  1.00  0.00     0.000 HD 
BRANCH  34  37
HETATM   37  C   UNL     1      -9.811  20.228  67.203  1.00  0.00    -0.606 C  
BRANCH  37  38
HETATM   38  C   UNL     1      -8.330  19.819  67.121  1.00  0.00    -0.315 C  
HETATM   39  H   UNL     1      -6.883  19.809  65.759  1.00  0.00     0.000 HD 
HETATM   40  O   UNL     1      -7.797  20.062  65.810  1.00  0.00    -0.333 OA 
BRANCH  38  41
HETATM   41  C   UNL     1      -7.493  20.633  68.106  1.00  0.00    -0.032 C  
HETATM   42  C   UNL     1      -6.776  19.778  69.126  1.00  0.00    -0.346 C  
HETATM   43  O   UNL     1      -6.258  18.632  68.634  1.00  0.00    -0.208 OA 
HETATM   44  O   UNL     1      -6.610  20.126  70.286  1.00  0.00    -0.337 OA 
ENDBRANCH  38  41
ENDBRANCH  37  38
ENDBRANCH  34  37
ENDBRANCH  33  34
ENDBRANCH  32  33
ENDBRANCH   6  32
TORSDOF 10
ENDMDL
MODEL       75
REMARK 921   NORMALIZED FREE ENERGY PREDICTED BY IDOCK:   -5.37 KCAL/MOL
REMARK 922        TOTAL FREE ENERGY PREDICTED BY IDOCK:  -11.25 KCAL/MOL
REMARK 923 INTER-LIGAND FREE ENERGY PREDICTED BY IDOCK:  -10.13 KCAL/MOL
REMARK 924 INTRA-LIGAND FREE ENERGY PREDICTED BY IDOCK:   -1.13 KCAL/MOL
REMARK 927      BINDING AFFINITY PREDICTED BY RF-SCORE:    0.00 PKD
ROOT
HETATM    1  C   UNL     1      -7.566  13.452  67.057  1.00  0.00     0.185 C  
HETATM    2  C   UNL     1      -8.641  14.502  67.345  1.00  0.00    -0.213 C  
HETATM    3  C   UNL     1      -9.797  14.043  68.243  1.00  0.00    -0.233 A  
HETATM    4  C   UNL     1      -9.070  15.190  66.046  1.00  0.00    -0.196 C  
HETATM    5  C   UNL     1     -10.381  12.784  68.479  1.00  0.00    -0.231 A  
HETATM    6  N   UNL     1     -10.391  14.941  69.142  1.00  0.00    -0.241 NA 
HETATM    7  C   UNL     1     -11.178  12.910  69.706  1.00  0.00    -0.001 A  
HETATM    8  C   UNL     1     -11.232  14.274  70.049  1.00  0.00    -0.099 A  
ENDROOT
BRANCH   5   9
HETATM    9  C   UNL     1     -10.139  11.517  67.720  1.00  0.00    -0.182 C  
HETATM   10  O   UNL     1     -10.820  11.246  66.731  1.00  0.00    -0.264 OA 
HETATM   11  N   UNL     1      -9.116  10.713  68.206  1.00  0.00    -0.147 N  
HETATM   12  H   UNL     1      -8.659  11.016  69.067  1.00  0.00     0.000 HD 
BRANCH  11  13
HETATM   13  C   UNL     1      -8.648   9.508  67.617  1.00  0.00    -0.122 A  
HETATM   14  C   UNL     1      -7.441   8.263  65.906  1.00  0.00    -0.081 A  
HETATM   15  C   UNL     1      -7.762   7.059  66.526  1.00  0.00    -0.104 A  
HETATM   16  C   UNL     1      -8.933   8.292  68.252  1.00  0.00    -0.136 A  
HETATM   17  C   UNL     1      -7.889   9.479  66.444  1.00  0.00    -0.097 A  
HETATM   18  C   UNL     1      -8.517   7.073  67.696  1.00  0.00    -0.123 A  
ENDBRANCH  11  13
ENDBRANCH   5   9
BRANCH   7  19
HETATM   19  C   UNL     1     -11.839  11.841  70.505  1.00  0.00    -0.288 A  
HETATM   20  C   UNL     1     -12.981  12.120  71.282  1.00  0.00    -0.303 A  
HETATM   21  C   UNL     1     -11.991   9.534  71.304  1.00  0.00    -0.445 A  
HETATM   22  C   UNL     1     -13.146   9.826  72.026  1.00  0.00    -0.546 A  
HETATM   23  C   UNL     1     -11.360  10.523  70.530  1.00  0.00    -0.400 A  
HETATM   24  C   UNL     1     -13.647  11.120  72.006  1.00  0.00    -0.133 A  
ENDBRANCH   7  19
BRANCH   8  25
HETATM   25  C   UNL     1     -12.029  14.980  71.118  1.00  0.00    -0.375 A  
HETATM   26  C   UNL     1     -13.421  15.147  71.022  1.00  0.00    -0.493 A  
HETATM   27  C   UNL     1     -12.175  16.150  73.265  1.00  0.00    -0.639 A  
HETATM   28  C   UNL     1     -11.418  15.512  72.266  1.00  0.00    -0.496 A  
HETATM   29  F   UNL     1     -14.283  16.759  74.142  1.00  0.00     0.694 F  
HETATM   30  C   UNL     1     -14.191  15.691  72.053  1.00  0.00    -0.500 A  
HETATM   31  C   UNL     1     -13.558  16.201  73.166  1.00  0.00    -0.315 A  
ENDBRANCH   8  25
BRANCH   6  32
HETATM   32  C   UNL     1     -10.239  16.402  69.067  1.00  0.00    -0.269 C  
BRANCH  32  33
HETATM   33  C   UNL     1     -10.874  17.078  67.837  1.00  0.00    -0.302 C  
BRANCH  33  34
HETATM   34  C   UNL     1     -10.820  18.619  67.868  1.00  0.00    -0.201 C  
HETATM   35  O   UNL     1     -10.314  19.122  69.104  1.00  0.00    -0.540 OA 
HETATM   36  H   UNL     1     -10.281  20.071  69.123  1.00  0.00     0.000 HD 
BRANCH  34  37
HETATM   37  C   UNL     1      -9.888  19.142  66.760  1.00  0.00    -0.407 C  
BRANCH  37  38
HETATM   38  C   UNL     1      -8.414  18.754  66.966  1.00  0.00    -0.281 C  
HETATM   39  H   UNL     1      -6.899  18.103  65.857  1.00  0.00     0.000 HD 
HETATM   40  O   UNL     1      -7.809  18.343  65.730  1.00  0.00    -0.510 OA 
BRANCH  38  41
HETATM   41  C   UNL     1      -7.612  19.947  67.484  1.00  0.00    -0.318 C  
HETATM   42  C   UNL     1      -6.628  19.577  68.569  1.00  0.00    -0.271 C  
HETATM   43  O   UNL     1      -5.984  18.407  68.369  1.00  0.00    -0.180 OA 
HETATM   44  O   UNL     1      -6.376  20.308  69.516  1.00  0.00    -0.323 OA 
ENDBRANCH  38  41
ENDBRANCH  37  38
ENDBRANCH  34  37
ENDBRANCH  33  34
ENDBRANCH  32  33
ENDBRANCH   6  32
TORSDOF 10
ENDMDL
MODEL       76
REMARK 921   NORMALIZED FREE ENERGY PREDICTED BY IDOCK:   -5.32 KCAL/MOL
REMARK 922        TOTAL FREE ENERGY PREDICTED BY IDOCK:  -11.18 KCAL/MOL
REMARK 923 INTER-LIGAND FREE ENERGY PREDICTED BY IDOCK:   -8.98 KCAL/MOL
REMARK 924 INTRA-LIGAND FREE ENERGY PREDICTED BY IDOCK:   -2.20 KCAL/MOL
REMARK 927      BINDING AFFINITY PREDICTED BY RF-SCORE:    0.00 PKD
ROOT
HETATM    1  C   UNL     1      -5.235  13.262  68.910  1.00  0.00    -0.073 C  
HETATM    2  C   UNL     1      -6.446  12.374  68.620  1.00  0.00    -0.077 C  
HETATM    3  C   UNL     1      -7.684  13.095  68.069  1.00  0.00    -0.146 A  
HETATM    4  C   UNL     1      -6.718  11.445  69.806  1.00  0.00    -0.076 C  
HETATM    5  C   UNL     1      -8.165  14.411  68.213  1.00  0.00    -0.149 A  
HETATM    6  N   UNL     1      -8.512  12.459  67.134  1.00  0.00    -0.181 NA 
HETATM    7  C   UNL     1      -9.167  14.611  67.158  1.00  0.00    -0.231 A  
HETATM    8  C   UNL     1      -9.420  13.364  66.558  1.00  0.00    -0.245 A  
ENDROOT
BRANCH   5   9
HETATM    9  C   UNL     1      -7.667  15.460  69.157  1.00  0.00    -0.207 C  
HETATM   10  O   UNL     1      -7.587  15.222  70.362  1.00  0.00     0.259 OA 
HETATM   11  N   UNL     1      -7.311  16.670  68.575  1.00  0.00    -0.190 N  
HETATM   12  H   UNL     1      -7.475  16.766  67.573  1.00  0.00     0.000 HD 
BRANCH  11  13
HETATM   13  C   UNL     1      -6.742  17.784  69.246  1.00  0.00    -0.218 A  
HETATM   14  C   UNL     1      -6.554  20.170  69.704  1.00  0.00    -0.285 A  
HETATM   15  C   UNL     1      -5.545  19.934  70.633  1.00  0.00    -0.309 A  
HETATM   16  C   UNL     1      -5.752  17.557  70.211  1.00  0.00    -0.196 A  
HETATM   17  C   UNL     1      -7.142  19.103  69.008  1.00  0.00    -0.377 A  
HETATM   18  C   UNL     1      -5.137  18.626  70.881  1.00  0.00    -0.270 A  
ENDBRANCH  11  13
ENDBRANCH   5   9
BRANCH   7  19
HETATM   19  C   UNL     1      -9.839  15.871  66.735  1.00  0.00    -0.254 A  
HETATM   20  C   UNL     1     -10.208  16.847  67.683  1.00  0.00    -0.306 A  
HETATM   21  C   UNL     1     -10.789  17.333  65.020  1.00  0.00     0.158 A  
HETATM   22  C   UNL     1     -11.101  18.301  65.971  1.00  0.00     0.487 A  
HETATM   23  C   UNL     1     -10.140  16.143  65.392  1.00  0.00    -0.220 A  
HETATM   24  C   UNL     1     -10.800  18.061  67.304  1.00  0.00    -0.214 A  
ENDBRANCH   7  19
BRANCH   8  25
HETATM   25  C   UNL     1     -10.457  12.965  65.536  1.00  0.00    -0.305 A  
HETATM   26  C   UNL     1     -10.108  12.581  64.231  1.00  0.00    -0.298 A  
HETATM   27  C   UNL     1     -12.785  12.570  64.884  1.00  0.00    -0.371 A  
HETATM   28  C   UNL     1     -11.829  12.962  65.838  1.00  0.00    -0.476 A  
HETATM   29  F   UNL     1     -13.283  11.680  62.753  1.00  0.00    -0.375 F  
HETATM   30  C   UNL     1     -11.040  12.096  63.310  1.00  0.00    -0.408 A  
HETATM   31  C   UNL     1     -12.378  12.105  63.641  1.00  0.00    -0.568 A  
ENDBRANCH   8  25
BRANCH   6  32
HETATM   32  C   UNL     1      -8.503  11.011  66.876  1.00  0.00    -0.139 C  
BRANCH  32  33
HETATM   33  C   UNL     1      -9.161  10.136  67.958  1.00  0.00    -0.131 C  
BRANCH  33  34
HETATM   34  C   UNL     1     -10.631  10.498  68.255  1.00  0.00    -0.206 C  
HETATM   35  O   UNL     1     -11.428   9.348  68.537  1.00  0.00    -0.379 OA 
HETATM   36  H   UNL     1     -12.333   9.571  68.720  1.00  0.00     0.000 HD 
BRANCH  34  37
HETATM   37  C   UNL     1     -10.716  11.413  69.490  1.00  0.00    -0.098 C  
BRANCH  37  38
HETATM   38  C   UNL     1     -12.141  11.549  70.054  1.00  0.00    -0.331 C  
HETATM   39  H   UNL     1     -13.302  10.597  71.355  1.00  0.00     0.000 HD 
HETATM   40  O   UNL     1     -12.422  10.512  71.007  1.00  0.00    -0.329 OA 
BRANCH  38  41
HETATM   41  C   UNL     1     -12.305  12.884  70.779  1.00  0.00    -0.385 C  
HETATM   42  C   UNL     1     -11.917  14.073  69.931  1.00  0.00    -0.336 C  
HETATM   43  O   UNL     1     -12.300  13.991  68.638  1.00  0.00    -0.271 OA 
HETATM   44  O   UNL     1     -11.368  15.065  70.389  1.00  0.00    -0.255 OA 
ENDBRANCH  38  41
ENDBRANCH  37  38
ENDBRANCH  34  37
ENDBRANCH  33  34
ENDBRANCH  32  33
ENDBRANCH   6  32
TORSDOF 10
ENDMDL
MODEL       77
REMARK 921   NORMALIZED FREE ENERGY PREDICTED BY IDOCK:   -5.28 KCAL/MOL
REMARK 922        TOTAL FREE ENERGY PREDICTED BY IDOCK:  -11.12 KCAL/MOL
REMARK 923 INTER-LIGAND FREE ENERGY PREDICTED BY IDOCK:   -8.20 KCAL/MOL
REMARK 924 INTRA-LIGAND FREE ENERGY PREDICTED BY IDOCK:   -2.92 KCAL/MOL
REMARK 927      BINDING AFFINITY PREDICTED BY RF-SCORE:    0.00 PKD
ROOT
HETATM    1  C   UNL     1     -12.418   9.118  72.261  1.00  0.00    -0.403 C  
HETATM    2  C   UNL     1     -12.247   7.877  71.383  1.00  0.00    -0.337 C  
HETATM    3  C   UNL     1     -11.373   8.059  70.135  1.00  0.00    -0.078 A  
HETATM    4  C   UNL     1     -13.605   7.218  71.126  1.00  0.00    -0.237 C  
HETATM    5  C   UNL     1     -11.083   9.175  69.327  1.00  0.00     0.001 A  
HETATM    6  N   UNL     1     -10.561   7.008  69.683  1.00  0.00    -0.226 NA 
HETATM    7  C   UNL     1      -9.902   8.822  68.527  1.00  0.00    -0.183 A  
HETATM    8  C   UNL     1      -9.651   7.449  68.708  1.00  0.00    -0.147 A  
ENDROOT
BRANCH   5   9
HETATM    9  C   UNL     1     -11.746  10.516  69.362  1.00  0.00    -0.223 C  
HETATM   10  O   UNL     1     -12.378  10.921  68.386  1.00  0.00    -0.477 OA 
HETATM   11  N   UNL     1     -11.598  11.227  70.545  1.00  0.00    -0.467 N  
HETATM   12  H   UNL     1     -11.005  10.812  71.264  1.00  0.00     0.000 HD 
BRANCH  11  13
HETATM   13  C   UNL     1     -12.196  12.479  70.849  1.00  0.00    -0.181 A  
HETATM   14  C   UNL     1     -12.556  14.857  70.458  1.00  0.00    -0.414 A  
HETATM   15  C   UNL     1     -13.438  14.922  71.532  1.00  0.00    -0.491 A  
HETATM   16  C   UNL     1     -13.114  12.550  71.904  1.00  0.00    -0.473 A  
HETATM   17  C   UNL     1     -11.932  13.646  70.124  1.00  0.00    -0.407 A  
HETATM   18  C   UNL     1     -13.711  13.769  72.263  1.00  0.00    -0.673 A  
ENDBRANCH  11  13
ENDBRANCH   5   9
BRANCH   7  19
HETATM   19  C   UNL     1      -9.066   9.698  67.660  1.00  0.00    -0.141 A  
HETATM   20  C   UNL     1      -9.530  10.123  66.400  1.00  0.00    -0.223 A  
HETATM   21  C   UNL     1      -7.012  10.945  67.204  1.00  0.00    -0.098 A  
HETATM   22  C   UNL     1      -7.513  11.389  65.984  1.00  0.00     0.206 A  
HETATM   23  C   UNL     1      -7.789  10.132  68.047  1.00  0.00    -0.096 A  
HETATM   24  C   UNL     1      -8.780  10.984  65.586  1.00  0.00    -0.162 A  
ENDBRANCH   7  19
BRANCH   8  25
HETATM   25  C   UNL     1      -8.666   6.539  68.016  1.00  0.00    -0.116 A  
HETATM   26  C   UNL     1      -7.380   6.304  68.530  1.00  0.00    -0.086 A  
HETATM   27  C   UNL     1      -8.066   5.019  66.192  1.00  0.00    -0.108 A  
HETATM   28  C   UNL     1      -8.985   5.880  66.817  1.00  0.00    -0.120 A  
HETATM   29  F   UNL     1      -5.994   3.884  66.228  1.00  0.00    -0.023 F  
HETATM   30  C   UNL     1      -6.499   5.376  67.970  1.00  0.00    -0.048 A  
HETATM   31  C   UNL     1      -6.846   4.746  66.794  1.00  0.00    -0.055 A  
ENDBRANCH   8  25
BRANCH   6  32
HETATM   32  C   UNL     1     -10.723   5.606  70.097  1.00  0.00    -0.305 C  
BRANCH  32  33
HETATM   33  C   UNL     1      -9.646   5.063  71.054  1.00  0.00    -0.232 C  
BRANCH  33  34
HETATM   34  C   UNL     1     -10.018   5.170  72.547  1.00  0.00    -0.172 C  
HETATM   35  O   UNL     1     -10.306   3.899  73.130  1.00  0.00    -0.150 OA 
HETATM   36  H   UNL     1     -10.534   3.965  74.049  1.00  0.00     0.000 HD 
BRANCH  34  37
HETATM   37  C   UNL     1      -8.848   5.771  73.346  1.00  0.00    -0.123 C  
BRANCH  37  38
HETATM   38  C   UNL     1      -8.549   7.237  72.986  1.00  0.00    -0.124 C  
HETATM   39  H   UNL     1      -8.947   9.039  73.723  1.00  0.00     0.000 HD 
HETATM   40  O   UNL     1      -9.131   8.135  73.945  1.00  0.00    -0.213 OA 
BRANCH  38  41
HETATM   41  C   UNL     1      -7.043   7.493  72.985  1.00  0.00    -0.080 C  
HETATM   42  C   UNL     1      -6.565   8.220  71.750  1.00  0.00    -0.064 C  
HETATM   43  O   UNL     1      -7.385   9.203  71.322  1.00  0.00    -0.214 OA 
HETATM   44  O   UNL     1      -5.487   7.991  71.219  1.00  0.00    -0.033 OA 
ENDBRANCH  38  41
ENDBRANCH  37  38
ENDBRANCH  34  37
ENDBRANCH  33  34
ENDBRANCH  32  33
ENDBRANCH   6  32
TORSDOF 10
ENDMDL
MODEL       78
REMARK 921   NORMALIZED FREE ENERGY PREDICTED BY IDOCK:   -5.26 KCAL/MOL
REMARK 922        TOTAL FREE ENERGY PREDICTED BY IDOCK:  -11.09 KCAL/MOL
REMARK 923 INTER-LIGAND FREE ENERGY PREDICTED BY IDOCK:   -9.16 KCAL/MOL
REMARK 924 INTRA-LIGAND FREE ENERGY PREDICTED BY IDOCK:   -1.93 KCAL/MOL
REMARK 927      BINDING AFFINITY PREDICTED BY RF-SCORE:    0.00 PKD
ROOT
HETATM    1  C   UNL     1     -10.150  10.708  64.871  1.00  0.00    -0.402 C  
HETATM    2  C   UNL     1      -9.202   9.913  65.770  1.00  0.00    -0.228 C  
HETATM    3  C   UNL     1      -9.628   9.784  67.239  1.00  0.00    -0.157 A  
HETATM    4  C   UNL     1      -7.758  10.375  65.557  1.00  0.00    -0.147 C  
HETATM    5  C   UNL     1     -10.403  10.602  68.083  1.00  0.00    -0.203 A  
HETATM    6  N   UNL     1      -9.351   8.610  67.953  1.00  0.00    -0.141 NA 
HETATM    7  C   UNL     1     -10.776   9.780  69.241  1.00  0.00    -0.246 A  
HETATM    8  C   UNL     1     -10.045   8.579  69.174  1.00  0.00    -0.203 A  
ENDROOT
BRANCH   5   9
HETATM    9  C   UNL     1     -10.882  11.993  67.807  1.00  0.00    -0.215 C  
HETATM   10  O   UNL     1     -12.024  12.184  67.389  1.00  0.00    -0.563 OA 
HETATM   11  N   UNL     1      -9.965  13.004  68.061  1.00  0.00    -0.227 N  
HETATM   12  H   UNL     1      -9.030  12.718  68.352  1.00  0.00     0.000 HD 
BRANCH  11  13
HETATM   13  C   UNL     1     -10.208  14.399  67.953  1.00  0.00    -0.232 A  
HETATM   14  C   UNL     1     -10.492  16.454  66.676  1.00  0.00    -0.274 A  
HETATM   15  C   UNL     1     -10.699  17.178  67.846  1.00  0.00    -0.355 A  
HETATM   16  C   UNL     1     -10.454  15.133  69.121  1.00  0.00    -0.252 A  
HETATM   17  C   UNL     1     -10.239  15.075  66.730  1.00  0.00    -0.260 A  
HETATM   18  C   UNL     1     -10.671  16.519  69.071  1.00  0.00    -0.332 A  
ENDBRANCH  11  13
ENDBRANCH   5   9
BRANCH   7  19
HETATM   19  C   UNL     1     -11.745  10.085  70.330  1.00  0.00    -0.365 A  
HETATM   20  C   UNL     1     -12.032  11.416  70.691  1.00  0.00    -0.413 A  
HETATM   21  C   UNL     1     -13.306   9.388  72.081  1.00  0.00    -0.545 A  
HETATM   22  C   UNL     1     -13.606  10.714  72.385  1.00  0.00     0.176 A  
HETATM   23  C   UNL     1     -12.407   9.076  71.046  1.00  0.00    -0.244 A  
HETATM   24  C   UNL     1     -12.975  11.729  71.682  1.00  0.00    -0.467 A  
ENDBRANCH   7  19
BRANCH   8  25
HETATM   25  C   UNL     1      -9.925   7.453  70.171  1.00  0.00    -0.184 A  
HETATM   26  C   UNL     1      -9.158   7.573  71.342  1.00  0.00    -0.145 A  
HETATM   27  C   UNL     1     -10.472   5.187  70.924  1.00  0.00    -0.258 A  
HETATM   28  C   UNL     1     -10.575   6.223  69.978  1.00  0.00    -0.307 A  
HETATM   29  F   UNL     1      -9.729   4.428  73.035  1.00  0.00    -0.142 F  
HETATM   30  C   UNL     1      -9.130   6.587  72.333  1.00  0.00    -0.133 A  
HETATM   31  C   UNL     1      -9.781   5.393  72.110  1.00  0.00    -0.162 A  
ENDBRANCH   8  25
BRANCH   6  32
HETATM   32  C   UNL     1      -8.371   7.599  67.527  1.00  0.00    -0.120 C  
BRANCH  32  33
HETATM   33  C   UNL     1      -8.668   6.905  66.184  1.00  0.00    -0.153 C  
BRANCH  33  34
HETATM   34  C   UNL     1      -9.545   5.642  66.308  1.00  0.00    -0.147 C  
HETATM   35  O   UNL     1     -10.937   5.931  66.185  1.00  0.00    -0.647 OA 
HETATM   36  H   UNL     1     -11.477   5.153  66.261  1.00  0.00     0.000 HD 
BRANCH  34  37
HETATM   37  C   UNL     1      -9.198   4.640  65.192  1.00  0.00    -0.156 C  
BRANCH  37  38
HETATM   38  C   UNL     1      -8.167   3.580  65.618  1.00  0.00    -0.097 C  
HETATM   39  H   UNL     1      -7.797   1.663  65.253  1.00  0.00     0.000 HD 
HETATM   40  O   UNL     1      -8.433   2.316  64.990  1.00  0.00    -0.091 OA 
BRANCH  38  41
HETATM   41  C   UNL     1      -6.759   4.003  65.202  1.00  0.00    -0.048 C  
HETATM   42  C   UNL     1      -6.060   4.850  66.239  1.00  0.00    -0.027 C  
HETATM   43  O   UNL     1      -6.264   4.457  67.516  1.00  0.00    -0.033 OA 
HETATM   44  O   UNL     1      -5.311   5.772  65.951  1.00  0.00    -0.009 OA 
ENDBRANCH  38  41
ENDBRANCH  37  38
ENDBRANCH  34  37
ENDBRANCH  33  34
ENDBRANCH  32  33
ENDBRANCH   6  32
TORSDOF 10
ENDMDL
MODEL       79
REMARK 921   NORMALIZED FREE ENERGY PREDICTED BY IDOCK:   -5.25 KCAL/MOL
REMARK 922        TOTAL FREE ENERGY PREDICTED BY IDOCK:  -11.07 KCAL/MOL
REMARK 923 INTER-LIGAND FREE ENERGY PREDICTED BY IDOCK:   -8.03 KCAL/MOL
REMARK 924 INTRA-LIGAND FREE ENERGY PREDICTED BY IDOCK:   -3.04 KCAL/MOL
REMARK 927      BINDING AFFINITY PREDICTED BY RF-SCORE:    0.00 PKD
ROOT
HETATM    1  C   UNL     1      -5.836   9.512  71.319  1.00  0.00    -0.075 C  
HETATM    2  C   UNL     1      -6.338   9.821  69.907  1.00  0.00    -0.058 C  
HETATM    3  C   UNL     1      -7.856   9.986  69.761  1.00  0.00    -0.177 A  
HETATM    4  C   UNL     1      -5.695   8.868  68.896  1.00  0.00    -0.040 C  
HETATM    5  C   UNL     1      -8.948   9.457  70.477  1.00  0.00    -0.303 A  
HETATM    6  N   UNL     1      -8.380  10.911  68.847  1.00  0.00    -0.150 NA 
HETATM    7  C   UNL     1     -10.120  10.267  70.120  1.00  0.00    -0.099 A  
HETATM    8  C   UNL     1      -9.757  11.106  69.050  1.00  0.00    -0.096 A  
ENDROOT
BRANCH   5   9
HETATM    9  C   UNL     1      -8.915   8.374  71.509  1.00  0.00    -0.194 C  
HETATM   10  O   UNL     1      -8.732   8.652  72.694  1.00  0.00    -0.380 OA 
HETATM   11  N   UNL     1      -9.108   7.084  71.031  1.00  0.00    -0.151 N  
HETATM   12  H   UNL     1      -9.194   6.973  70.021  1.00  0.00     0.000 HD 
BRANCH  11  13
HETATM   13  C   UNL     1      -9.197   5.906  71.818  1.00  0.00    -0.148 A  
HETATM   14  C   UNL     1     -10.431   4.282  73.151  1.00  0.00    -0.251 A  
HETATM   15  C   UNL     1      -9.270   3.546  73.369  1.00  0.00    -0.112 A  
HETATM   16  C   UNL     1      -8.043   5.136  72.014  1.00  0.00    -0.113 A  
HETATM   17  C   UNL     1     -10.393   5.459  72.389  1.00  0.00    -0.257 A  
HETATM   18  C   UNL     1      -8.072   3.979  72.807  1.00  0.00    -0.091 A  
ENDBRANCH  11  13
ENDBRANCH   5   9
BRANCH   7  19
HETATM   19  C   UNL     1     -11.478  10.265  70.731  1.00  0.00    -0.438 A  
HETATM   20  C   UNL     1     -12.193   9.063  70.900  1.00  0.00    -0.205 A  
HETATM   21  C   UNL     1     -13.396  11.419  71.718  1.00  0.00    -0.368 A  
HETATM   22  C   UNL     1     -14.061  10.212  71.916  1.00  0.00     0.251 A  
HETATM   23  C   UNL     1     -12.107  11.445  71.158  1.00  0.00    -0.197 A  
HETATM   24  C   UNL     1     -13.454   9.031  71.515  1.00  0.00    -0.397 A  
ENDBRANCH   7  19
BRANCH   8  25
HETATM   25  C   UNL     1     -10.602  12.024  68.201  1.00  0.00    -0.233 A  
HETATM   26  C   UNL     1     -11.276  11.569  67.056  1.00  0.00    -0.365 A  
HETATM   27  C   UNL     1     -11.560  14.227  67.725  1.00  0.00    -0.383 A  
HETATM   28  C   UNL     1     -10.755  13.386  68.512  1.00  0.00    -0.278 A  
HETATM   29  F   UNL     1     -13.092  14.493  65.945  1.00  0.00    -0.386 F  
HETATM   30  C   UNL     1     -12.156  12.374  66.326  1.00  0.00    -0.256 A  
HETATM   31  C   UNL     1     -12.283  13.705  66.661  1.00  0.00    -0.389 A  
ENDBRANCH   8  25
BRANCH   6  32
HETATM   32  C   UNL     1      -7.608  11.510  67.748  1.00  0.00    -0.111 C  
BRANCH  32  33
HETATM   33  C   UNL     1      -8.263  11.441  66.356  1.00  0.00    -0.124 C  
BRANCH  33  34
HETATM   34  C   UNL     1      -7.862  10.200  65.532  1.00  0.00    -0.147 C  
HETATM   35  O   UNL     1      -6.835   9.436  66.163  1.00  0.00    -0.083 OA 
HETATM   36  H   UNL     1      -6.588   8.671  65.656  1.00  0.00     0.000 HD 
BRANCH  34  37
HETATM   37  C   UNL     1      -9.070   9.262  65.356  1.00  0.00    -0.277 C  
BRANCH  37  38
HETATM   38  C   UNL     1      -9.283   8.309  66.545  1.00  0.00    -0.187 C  
HETATM   39  H   UNL     1     -10.731   7.868  67.832  1.00  0.00     0.000 HD 
HETATM   40  O   UNL     1     -10.600   8.456  67.099  1.00  0.00    -0.311 OA 
BRANCH  38  41
HETATM   41  C   UNL     1      -9.143   6.855  66.098  1.00  0.00    -0.144 C  
HETATM   42  C   UNL     1      -8.194   6.055  66.961  1.00  0.00    -0.105 C  
HETATM   43  O   UNL     1      -8.282   6.317  68.283  1.00  0.00    -0.114 OA 
HETATM   44  O   UNL     1      -7.458   5.188  66.513  1.00  0.00    -0.084 OA 
ENDBRANCH  38  41
ENDBRANCH  37  38
ENDBRANCH  34  37
ENDBRANCH  33  34
ENDBRANCH  32  33
ENDBRANCH   6  32
TORSDOF 10
ENDMDL
MODEL       80
REMARK 921   NORMALIZED FREE ENERGY PREDICTED BY IDOCK:   -5.19 KCAL/MOL
REMARK 922        TOTAL FREE ENERGY PREDICTED BY IDOCK:  -10.97 KCAL/MOL
REMARK 923 INTER-LIGAND FREE ENERGY PREDICTED BY IDOCK:   -8.76 KCAL/MOL
REMARK 924 INTRA-LIGAND FREE ENERGY PREDICTED BY IDOCK:   -2.21 KCAL/MOL
REMARK 927      BINDING AFFINITY PREDICTED BY RF-SCORE:    0.00 PKD
ROOT
HETATM    1  C   UNL     1     -12.674  12.076  70.974  1.00  0.00    -0.337 C  
HETATM    2  C   UNL     1     -12.330  10.594  71.135  1.00  0.00    -0.505 C  
HETATM    3  C   UNL     1     -10.977  10.158  70.557  1.00  0.00    -0.310 A  
HETATM    4  C   UNL     1     -13.519   9.726  70.715  1.00  0.00    -0.070 C  
HETATM    5  C   UNL     1     -10.188  10.650  69.499  1.00  0.00    -0.190 A  
HETATM    6  N   UNL     1     -10.226   9.161  71.195  1.00  0.00    -0.289 NA 
HETATM    7  C   UNL     1      -8.848  10.074  69.669  1.00  0.00    -0.217 A  
HETATM    8  C   UNL     1      -8.921   9.094  70.677  1.00  0.00    -0.244 A  
ENDROOT
BRANCH   5   9
HETATM    9  C   UNL     1     -10.578  11.668  68.474  1.00  0.00    -0.215 C  
HETATM   10  O   UNL     1     -10.433  12.869  68.706  1.00  0.00    -0.233 OA 
HETATM   11  N   UNL     1     -11.090  11.160  67.288  1.00  0.00    -0.295 N  
HETATM   12  H   UNL     1     -11.215  10.148  67.234  1.00  0.00     0.000 HD 
BRANCH  11  13
HETATM   13  C   UNL     1     -11.455  11.915  66.142  1.00  0.00    -0.288 A  
HETATM   14  C   UNL     1     -11.578  12.275  63.736  1.00  0.00    -0.555 A  
HETATM   15  C   UNL     1     -12.223  13.493  63.929  1.00  0.00    -0.458 A  
HETATM   16  C   UNL     1     -12.139  13.125  66.323  1.00  0.00    -0.460 A  
HETATM   17  C   UNL     1     -11.188  11.496  64.836  1.00  0.00    -0.242 A  
HETATM   18  C   UNL     1     -12.496  13.923  65.225  1.00  0.00    -0.504 A  
ENDBRANCH  11  13
ENDBRANCH   5   9
BRANCH   7  19
HETATM   19  C   UNL     1      -7.587  10.412  68.951  1.00  0.00    -0.103 A  
HETATM   20  C   UNL     1      -7.333   9.906  67.660  1.00  0.00    -0.090 A  
HETATM   21  C   UNL     1      -5.413  11.526  68.826  1.00  0.00    -0.042 A  
HETATM   22  C   UNL     1      -5.208  11.050  67.533  1.00  0.00    -0.038 A  
HETATM   23  C   UNL     1      -6.602  11.234  69.517  1.00  0.00    -0.129 A  
HETATM   24  C   UNL     1      -6.175  10.247  66.946  1.00  0.00    -0.068 A  
ENDBRANCH   7  19
BRANCH   8  25
HETATM   25  C   UNL     1      -7.889   8.099  71.147  1.00  0.00    -0.096 A  
HETATM   26  C   UNL     1      -7.319   8.167  72.429  1.00  0.00    -0.130 A  
HETATM   27  C   UNL     1      -6.495   6.120  70.779  1.00  0.00    -0.041 A  
HETATM   28  C   UNL     1      -7.442   7.053  70.323  1.00  0.00    -0.086 A  
HETATM   29  F   UNL     1      -5.177   5.255  72.540  1.00  0.00    -0.010 F  
HETATM   30  C   UNL     1      -6.453   7.188  72.924  1.00  0.00    -0.063 A  
HETATM   31  C   UNL     1      -6.037   6.174  72.088  1.00  0.00    -0.041 A  
ENDBRANCH   8  25
BRANCH   6  32
HETATM   32  C   UNL     1     -10.773   8.232  72.195  1.00  0.00    -0.319 C  
BRANCH  32  33
HETATM   33  C   UNL     1     -10.671   6.736  71.844  1.00  0.00    -0.250 C  
BRANCH  33  34
HETATM   34  C   UNL     1     -11.467   6.328  70.587  1.00  0.00    -0.329 C  
HETATM   35  O   UNL     1     -12.777   6.896  70.564  1.00  0.00    -0.569 OA 
HETATM   36  H   UNL     1     -13.267   6.645  69.790  1.00  0.00     0.000 HD 
BRANCH  34  37
HETATM   37  C   UNL     1     -10.747   6.816  69.318  1.00  0.00    -0.288 C  
BRANCH  37  38
HETATM   38  C   UNL     1     -10.747   5.782  68.178  1.00  0.00    -0.209 C  
HETATM   39  H   UNL     1     -11.499   5.617  66.346  1.00  0.00     0.000 HD 
HETATM   40  O   UNL     1     -11.499   6.255  67.049  1.00  0.00    -0.143 OA 
BRANCH  38  41
HETATM   41  C   UNL     1      -9.323   5.519  67.692  1.00  0.00    -0.116 C  
HETATM   42  C   UNL     1      -8.926   4.063  67.769  1.00  0.00    -0.125 C  
HETATM   43  O   UNL     1      -9.898   3.196  67.413  1.00  0.00    -0.000 OA 
HETATM   44  O   UNL     1      -7.796   3.696  68.058  1.00  0.00    -0.068 OA 
ENDBRANCH  38  41
ENDBRANCH  37  38
ENDBRANCH  34  37
ENDBRANCH  33  34
ENDBRANCH  32  33
ENDBRANCH   6  32
TORSDOF 10
ENDMDL
MODEL       81
REMARK 921   NORMALIZED FREE ENERGY PREDICTED BY IDOCK:   -5.18 KCAL/MOL
REMARK 922        TOTAL FREE ENERGY PREDICTED BY IDOCK:  -10.96 KCAL/MOL
REMARK 923 INTER-LIGAND FREE ENERGY PREDICTED BY IDOCK:   -8.32 KCAL/MOL
REMARK 924 INTRA-LIGAND FREE ENERGY PREDICTED BY IDOCK:   -2.64 KCAL/MOL
REMARK 927      BINDING AFFINITY PREDICTED BY RF-SCORE:    0.00 PKD
ROOT
HETATM    1  C   UNL     1     -12.885  11.917  71.304  1.00  0.00    -0.391 C  
HETATM    2  C   UNL     1     -12.553  10.425  71.346  1.00  0.00    -0.539 C  
HETATM    3  C   UNL     1     -11.220  10.021  70.703  1.00  0.00    -0.350 A  
HETATM    4  C   UNL     1     -13.762   9.600  70.894  1.00  0.00     0.004 C  
HETATM    5  C   UNL     1     -10.452  10.582  69.664  1.00  0.00    -0.257 A  
HETATM    6  N   UNL     1     -10.465   8.972  71.246  1.00  0.00    -0.282 NA 
HETATM    7  C   UNL     1      -9.114   9.983  69.757  1.00  0.00    -0.219 A  
HETATM    8  C   UNL     1      -9.174   8.932  70.691  1.00  0.00    -0.213 A  
ENDROOT
BRANCH   5   9
HETATM    9  C   UNL     1     -10.857  11.677  68.728  1.00  0.00    -0.220 C  
HETATM   10  O   UNL     1     -10.849  12.849  69.104  1.00  0.00    -0.189 OA 
HETATM   11  N   UNL     1     -11.220  11.271  67.451  1.00  0.00    -0.301 N  
HETATM   12  H   UNL     1     -11.241  10.266  67.274  1.00  0.00     0.000 HD 
BRANCH  11  13
HETATM   13  C   UNL     1     -11.564  12.123  66.368  1.00  0.00    -0.364 A  
HETATM   14  C   UNL     1     -12.236  14.270  65.433  1.00  0.00    -0.408 A  
HETATM   15  C   UNL     1     -12.233  13.735  64.148  1.00  0.00    -0.443 A  
HETATM   16  C   UNL     1     -11.529  11.606  65.066  1.00  0.00    -0.189 A  
HETATM   17  C   UNL     1     -11.912  13.466  66.537  1.00  0.00    -0.452 A  
HETATM   18  C   UNL     1     -11.888  12.399  63.965  1.00  0.00    -0.521 A  
ENDBRANCH  11  13
ENDBRANCH   5   9
BRANCH   7  19
HETATM   19  C   UNL     1      -7.869  10.362  69.033  1.00  0.00    -0.120 A  
HETATM   20  C   UNL     1      -6.830  11.048  69.692  1.00  0.00    -0.129 A  
HETATM   21  C   UNL     1      -6.496  10.446  67.011  1.00  0.00    -0.074 A  
HETATM   22  C   UNL     1      -5.466  11.082  67.697  1.00  0.00    -0.040 A  
HETATM   23  C   UNL     1      -7.674  10.064  67.676  1.00  0.00    -0.091 A  
HETATM   24  C   UNL     1      -5.630  11.375  69.044  1.00  0.00    -0.039 A  
ENDBRANCH   7  19
BRANCH   8  25
HETATM   25  C   UNL     1      -8.141   7.896  71.060  1.00  0.00    -0.098 A  
HETATM   26  C   UNL     1      -7.639   6.978  70.123  1.00  0.00    -0.095 A  
HETATM   27  C   UNL     1      -6.653   6.836  72.691  1.00  0.00    -0.062 A  
HETATM   28  C   UNL     1      -7.630   7.793  72.364  1.00  0.00    -0.104 A  
HETATM   29  F   UNL     1      -5.152   5.145  72.003  1.00  0.00    -0.004 F  
HETATM   30  C   UNL     1      -6.600   6.090  70.414  1.00  0.00    -0.044 A  
HETATM   31  C   UNL     1      -6.120   6.018  71.705  1.00  0.00    -0.036 A  
ENDBRANCH   8  25
BRANCH   6  32
HETATM   32  C   UNL     1     -10.996   7.976  72.188  1.00  0.00    -0.295 C  
BRANCH  32  33
HETATM   33  C   UNL     1     -12.111   7.066  71.641  1.00  0.00    -0.384 C  
BRANCH  33  34
HETATM   34  C   UNL     1     -11.632   6.048  70.584  1.00  0.00    -0.062 C  
HETATM   35  O   UNL     1     -11.312   6.667  69.338  1.00  0.00    -0.489 OA 
HETATM   36  H   UNL     1     -11.017   6.040  68.688  1.00  0.00     0.000 HD 
BRANCH  34  37
HETATM   37  C   UNL     1     -10.356   5.337  71.069  1.00  0.00    -0.298 C  
BRANCH  37  38
HETATM   38  C   UNL     1     -10.089   4.002  70.353  1.00  0.00     0.105 C  
HETATM   39  H   UNL     1      -9.616   3.386  68.523  1.00  0.00     0.000 HD 
HETATM   40  O   UNL     1      -9.780   4.210  68.965  1.00  0.00    -0.173 OA 
BRANCH  38  41
HETATM   41  C   UNL     1      -8.892   3.287  70.978  1.00  0.00    -0.142 C  
HETATM   42  C   UNL     1      -9.245   2.519  72.230  1.00  0.00    -0.088 C  
HETATM   43  O   UNL     1     -10.427   1.868  72.176  1.00  0.00    -0.157 OA 
HETATM   44  O   UNL     1      -8.492   2.429  73.189  1.00  0.00    -0.068 OA 
ENDBRANCH  38  41
ENDBRANCH  37  38
ENDBRANCH  34  37
ENDBRANCH  33  34
ENDBRANCH  32  33
ENDBRANCH   6  32
TORSDOF 10
ENDMDL
MODEL       82
REMARK 921   NORMALIZED FREE ENERGY PREDICTED BY IDOCK:   -5.16 KCAL/MOL
REMARK 922        TOTAL FREE ENERGY PREDICTED BY IDOCK:  -10.92 KCAL/MOL
REMARK 923 INTER-LIGAND FREE ENERGY PREDICTED BY IDOCK:   -8.20 KCAL/MOL
REMARK 924 INTRA-LIGAND FREE ENERGY PREDICTED BY IDOCK:   -2.72 KCAL/MOL
REMARK 927      BINDING AFFINITY PREDICTED BY RF-SCORE:    0.00 PKD
ROOT
HETATM    1  C   UNL     1      -8.726  10.370  65.726  1.00  0.00    -0.180 C  
HETATM    2  C   UNL     1      -7.893   9.780  66.866  1.00  0.00    -0.102 C  
HETATM    3  C   UNL     1      -8.639   9.551  68.187  1.00  0.00    -0.120 A  
HETATM    4  C   UNL     1      -6.567  10.535  66.998  1.00  0.00    -0.077 C  
HETATM    5  C   UNL     1      -9.751  10.181  68.777  1.00  0.00    -0.174 A  
HETATM    6  N   UNL     1      -8.316   8.453  68.996  1.00  0.00    -0.118 NA 
HETATM    7  C   UNL     1     -10.227   9.287  69.841  1.00  0.00    -0.235 A  
HETATM    8  C   UNL     1      -9.274   8.265  70.008  1.00  0.00    -0.151 A  
ENDROOT
BRANCH   5   9
HETATM    9  C   UNL     1     -10.419  11.444  68.332  1.00  0.00    -0.200 C  
HETATM   10  O   UNL     1     -11.461  11.398  67.679  1.00  0.00    -0.376 OA 
HETATM   11  N   UNL     1      -9.788  12.621  68.713  1.00  0.00    -0.421 N  
HETATM   12  H   UNL     1      -8.899  12.531  69.205  1.00  0.00     0.000 HD 
BRANCH  11  13
HETATM   13  C   UNL     1     -10.266  13.938  68.480  1.00  0.00    -0.240 A  
HETATM   14  C   UNL     1     -10.888  15.789  67.023  1.00  0.00    -0.273 A  
HETATM   15  C   UNL     1     -11.226  16.570  68.124  1.00  0.00    -0.241 A  
HETATM   16  C   UNL     1     -10.644  14.722  69.579  1.00  0.00    -0.200 A  
HETATM   17  C   UNL     1     -10.403  14.485  67.201  1.00  0.00    -0.265 A  
HETATM   18  C   UNL     1     -11.095  16.039  69.405  1.00  0.00    -0.331 A  
ENDBRANCH  11  13
ENDBRANCH   5   9
BRANCH   7  19
HETATM   19  C   UNL     1     -11.480   9.372  70.642  1.00  0.00    -0.344 A  
HETATM   20  C   UNL     1     -11.950  10.612  71.119  1.00  0.00    -0.401 A  
HETATM   21  C   UNL     1     -13.412   8.342  71.733  1.00  0.00    -0.388 A  
HETATM   22  C   UNL     1     -13.879   9.585  72.153  1.00  0.00    -0.376 A  
HETATM   23  C   UNL     1     -12.241   8.238  70.962  1.00  0.00    -0.189 A  
HETATM   24  C   UNL     1     -13.151  10.723  71.836  1.00  0.00    -0.557 A  
ENDBRANCH   7  19
BRANCH   8  25
HETATM   25  C   UNL     1      -9.181   7.179  71.051  1.00  0.00    -0.158 A  
HETATM   26  C   UNL     1      -9.680   5.885  70.824  1.00  0.00    -0.212 A  
HETATM   27  C   UNL     1      -8.496   6.381  73.262  1.00  0.00    -0.123 A  
HETATM   28  C   UNL     1      -8.594   7.407  72.306  1.00  0.00    -0.135 A  
HETATM   29  F   UNL     1      -8.772   4.106  73.840  1.00  0.00    -0.093 F  
HETATM   30  C   UNL     1      -9.498   4.835  71.729  1.00  0.00    -0.201 A  
HETATM   31  C   UNL     1      -8.915   5.095  72.951  1.00  0.00    -0.120 A  
ENDBRANCH   8  25
BRANCH   6  32
HETATM   32  C   UNL     1      -7.076   7.672  68.870  1.00  0.00    -0.079 C  
BRANCH  32  33
HETATM   33  C   UNL     1      -7.230   6.269  68.252  1.00  0.00    -0.085 C  
BRANCH  33  34
HETATM   34  C   UNL     1      -7.338   6.267  66.714  1.00  0.00    -0.079 C  
HETATM   35  O   UNL     1      -6.479   5.300  66.109  1.00  0.00    -0.038 OA 
HETATM   36  H   UNL     1      -6.547   5.298  65.161  1.00  0.00     0.000 HD 
BRANCH  34  37
HETATM   37  C   UNL     1      -8.774   5.919  66.281  1.00  0.00    -0.136 C  
BRANCH  37  38
HETATM   38  C   UNL     1      -8.948   4.451  65.855  1.00  0.00    -0.124 C  
HETATM   39  H   UNL     1      -8.751   2.652  66.676  1.00  0.00     0.000 HD 
HETATM   40  O   UNL     1      -8.644   3.558  66.939  1.00  0.00    -0.103 OA 
BRANCH  38  41
HETATM   41  C   UNL     1     -10.392   4.180  65.439  1.00  0.00    -0.166 C  
HETATM   42  C   UNL     1     -10.505   3.433  64.131  1.00  0.00    -0.181 C  
HETATM   43  O   UNL     1      -9.592   2.452  63.963  1.00  0.00    -0.129 OA 
HETATM   44  O   UNL     1     -11.394   3.644  63.319  1.00  0.00    -0.079 OA 
ENDBRANCH  38  41
ENDBRANCH  37  38
ENDBRANCH  34  37
ENDBRANCH  33  34
ENDBRANCH  32  33
ENDBRANCH   6  32
TORSDOF 10
ENDMDL
MODEL       83
REMARK 921   NORMALIZED FREE ENERGY PREDICTED BY IDOCK:   -5.15 KCAL/MOL
REMARK 922        TOTAL FREE ENERGY PREDICTED BY IDOCK:  -10.91 KCAL/MOL
REMARK 923 INTER-LIGAND FREE ENERGY PREDICTED BY IDOCK:   -9.54 KCAL/MOL
REMARK 924 INTRA-LIGAND FREE ENERGY PREDICTED BY IDOCK:   -1.37 KCAL/MOL
REMARK 927      BINDING AFFINITY PREDICTED BY RF-SCORE:    0.00 PKD
ROOT
HETATM    1  C   UNL     1      -5.319  12.573  69.014  1.00  0.00    -0.067 C  
HETATM    2  C   UNL     1      -6.563  11.741  68.694  1.00  0.00    -0.065 C  
HETATM    3  C   UNL     1      -7.753  12.517  68.115  1.00  0.00    -0.141 A  
HETATM    4  C   UNL     1      -6.904  10.825  69.873  1.00  0.00    -0.146 C  
HETATM    5  C   UNL     1      -8.177  13.854  68.249  1.00  0.00    -0.158 A  
HETATM    6  N   UNL     1      -8.587  11.920  67.160  1.00  0.00    -0.165 NA 
HETATM    7  C   UNL     1      -9.144  14.099  67.170  1.00  0.00    -0.240 A  
HETATM    8  C   UNL     1      -9.439  12.864  66.563  1.00  0.00    -0.251 A  
ENDROOT
BRANCH   5   9
HETATM    9  C   UNL     1      -7.654  14.879  69.205  1.00  0.00    -0.160 C  
HETATM   10  O   UNL     1      -7.577  14.624  70.407  1.00  0.00     0.371 OA 
HETATM   11  N   UNL     1      -7.274  16.089  68.638  1.00  0.00    -0.138 N  
HETATM   12  H   UNL     1      -7.438  16.202  67.637  1.00  0.00     0.000 HD 
BRANCH  11  13
HETATM   13  C   UNL     1      -6.680  17.182  69.322  1.00  0.00    -0.228 A  
HETATM   14  C   UNL     1      -5.137  18.137  70.948  1.00  0.00    -0.265 A  
HETATM   15  C   UNL     1      -5.557  19.423  70.623  1.00  0.00    -0.257 A  
HETATM   16  C   UNL     1      -7.067  18.484  68.977  1.00  0.00    -0.282 A  
HETATM   17  C   UNL     1      -5.701  17.023  70.308  1.00  0.00    -0.173 A  
HETATM   18  C   UNL     1      -6.530  19.597  69.643  1.00  0.00    -0.371 A  
ENDBRANCH  11  13
ENDBRANCH   5   9
BRANCH   7  19
HETATM   19  C   UNL     1      -9.748  15.388  66.733  1.00  0.00    -0.254 A  
HETATM   20  C   UNL     1     -10.106  16.375  67.673  1.00  0.00    -0.263 A  
HETATM   21  C   UNL     1     -10.578  16.896  64.995  1.00  0.00     0.004 A  
HETATM   22  C   UNL     1     -10.880  17.873  65.941  1.00  0.00     0.038 A  
HETATM   23  C   UNL     1      -9.992  15.678  65.382  1.00  0.00    -0.311 A  
HETATM   24  C   UNL     1     -10.634  17.614  67.282  1.00  0.00    -0.297 A  
ENDBRANCH   7  19
BRANCH   8  25
HETATM   25  C   UNL     1     -10.469  12.513  65.517  1.00  0.00    -0.305 A  
HETATM   26  C   UNL     1     -11.847  12.553  65.785  1.00  0.00    -0.494 A  
HETATM   27  C   UNL     1     -11.068  11.818  63.246  1.00  0.00    -0.370 A  
HETATM   28  C   UNL     1     -10.099  12.124  64.219  1.00  0.00    -0.317 A  
HETATM   29  F   UNL     1     -13.338  11.731  62.594  1.00  0.00    -0.130 F  
HETATM   30  C   UNL     1     -12.816  12.347  64.799  1.00  0.00    -0.185 A  
HETATM   31  C   UNL     1     -12.417  11.968  63.535  1.00  0.00    -0.540 A  
ENDBRANCH   8  25
BRANCH   6  32
HETATM   32  C   UNL     1      -8.638  10.473  66.901  1.00  0.00    -0.125 C  
BRANCH  32  33
HETATM   33  C   UNL     1      -9.742   9.699  67.645  1.00  0.00    -0.182 C  
BRANCH  33  34
HETATM   34  C   UNL     1     -10.489  10.532  68.707  1.00  0.00    -0.196 C  
HETATM   35  O   UNL     1     -11.902  10.528  68.508  1.00  0.00    -0.682 OA 
HETATM   36  H   UNL     1     -12.362  11.040  69.162  1.00  0.00     0.000 HD 
BRANCH  34  37
HETATM   37  C   UNL     1     -10.236   9.956  70.112  1.00  0.00    -0.326 C  
BRANCH  37  38
HETATM   38  C   UNL     1     -11.321  10.334  71.134  1.00  0.00    -0.146 C  
HETATM   39  H   UNL     1     -12.584  11.837  71.446  1.00  0.00     0.000 HD 
HETATM   40  O   UNL     1     -11.914  11.603  70.815  1.00  0.00    -0.334 OA 
BRANCH  38  41
HETATM   41  C   UNL     1     -12.445   9.299  71.132  1.00  0.00    -0.341 C  
HETATM   42  C   UNL     1     -12.063   8.005  71.812  1.00  0.00    -0.305 C  
HETATM   43  O   UNL     1     -11.328   8.155  72.935  1.00  0.00    -0.387 OA 
HETATM   44  O   UNL     1     -12.447   6.911  71.423  1.00  0.00    -0.357 OA 
ENDBRANCH  38  41
ENDBRANCH  37  38
ENDBRANCH  34  37
ENDBRANCH  33  34
ENDBRANCH  32  33
ENDBRANCH   6  32
TORSDOF 10
ENDMDL
MODEL       84
REMARK 921   NORMALIZED FREE ENERGY PREDICTED BY IDOCK:   -5.14 KCAL/MOL
REMARK 922        TOTAL FREE ENERGY PREDICTED BY IDOCK:  -10.90 KCAL/MOL
REMARK 923 INTER-LIGAND FREE ENERGY PREDICTED BY IDOCK:   -9.79 KCAL/MOL
REMARK 924 INTRA-LIGAND FREE ENERGY PREDICTED BY IDOCK:   -1.11 KCAL/MOL
REMARK 927      BINDING AFFINITY PREDICTED BY RF-SCORE:    0.00 PKD
ROOT
HETATM    1  C   UNL     1      -9.069   9.414  65.390  1.00  0.00    -0.280 C  
HETATM    2  C   UNL     1      -8.437   8.725  66.601  1.00  0.00    -0.111 C  
HETATM    3  C   UNL     1      -9.088   9.032  67.957  1.00  0.00    -0.136 A  
HETATM    4  C   UNL     1      -6.915   8.885  66.567  1.00  0.00    -0.080 C  
HETATM    5  C   UNL     1      -9.799  10.146  68.444  1.00  0.00    -0.164 A  
HETATM    6  N   UNL     1      -9.155   8.042  68.947  1.00  0.00    -0.145 NA 
HETATM    7  C   UNL     1     -10.491   9.705  69.662  1.00  0.00    -0.246 A  
HETATM    8  C   UNL     1     -10.010   8.424  69.994  1.00  0.00    -0.188 A  
ENDROOT
BRANCH   5   9
HETATM    9  C   UNL     1      -9.947  11.483  67.789  1.00  0.00    -0.183 C  
HETATM   10  O   UNL     1      -9.169  12.397  68.061  1.00  0.00    -0.190 OA 
HETATM   11  N   UNL     1     -10.992  11.593  66.881  1.00  0.00    -0.277 N  
HETATM   12  H   UNL     1     -11.605  10.783  66.781  1.00  0.00     0.000 HD 
BRANCH  11  13
HETATM   13  C   UNL     1     -11.288  12.728  66.080  1.00  0.00    -0.321 A  
HETATM   14  C   UNL     1     -11.317  15.126  65.650  1.00  0.00    -0.255 A  
HETATM   15  C   UNL     1     -11.913  14.918  64.410  1.00  0.00    -0.408 A  
HETATM   16  C   UNL     1     -11.854  12.530  64.813  1.00  0.00    -0.440 A  
HETATM   17  C   UNL     1     -11.015  14.038  66.483  1.00  0.00    -0.306 A  
HETATM   18  C   UNL     1     -12.191  13.619  63.995  1.00  0.00    -0.443 A  
ENDBRANCH  11  13
ENDBRANCH   5   9
BRANCH   7  19
HETATM   19  C   UNL     1     -11.527  10.419  70.459  1.00  0.00    -0.431 A  
HETATM   20  C   UNL     1     -11.776  11.791  70.256  1.00  0.00    -0.317 A  
HETATM   21  C   UNL     1     -13.252  10.472  72.192  1.00  0.00    -0.398 A  
HETATM   22  C   UNL     1     -13.511  11.816  71.939  1.00  0.00    -0.278 A  
HETATM   23  C   UNL     1     -12.291   9.773  71.442  1.00  0.00    -0.480 A  
HETATM   24  C   UNL     1     -12.778  12.474  70.961  1.00  0.00    -0.316 A  
ENDBRANCH   7  19
BRANCH   8  25
HETATM   25  C   UNL     1     -10.261   7.575  71.216  1.00  0.00    -0.198 A  
HETATM   26  C   UNL     1     -11.422   6.796  71.356  1.00  0.00    -0.336 A  
HETATM   27  C   UNL     1      -9.582   6.711  73.405  1.00  0.00    -0.183 A  
HETATM   28  C   UNL     1      -9.346   7.522  72.280  1.00  0.00    -0.185 A  
HETATM   29  F   UNL     1     -10.894   5.074  74.492  1.00  0.00    -0.309 F  
HETATM   30  C   UNL     1     -11.617   5.914  72.422  1.00  0.00    -0.341 A  
HETATM   31  C   UNL     1     -10.697   5.887  73.448  1.00  0.00    -0.267 A  
ENDBRANCH   8  25
BRANCH   6  32
HETATM   32  C   UNL     1      -8.344   6.815  68.940  1.00  0.00    -0.121 C  
BRANCH  32  33
HETATM   33  C   UNL     1      -9.133   5.493  69.000  1.00  0.00    -0.131 C  
BRANCH  33  34
HETATM   34  C   UNL     1      -9.855   5.130  67.686  1.00  0.00    -0.160 C  
HETATM   35  O   UNL     1     -10.948   6.004  67.406  1.00  0.00    -0.368 OA 
HETATM   36  H   UNL     1     -11.393   5.781  66.597  1.00  0.00     0.000 HD 
BRANCH  34  37
HETATM   37  C   UNL     1      -8.884   5.237  66.496  1.00  0.00    -0.116 C  
BRANCH  37  38
HETATM   38  C   UNL     1      -9.337   4.439  65.261  1.00  0.00    -0.164 C  
HETATM   39  H   UNL     1     -11.048   3.957  64.373  1.00  0.00     0.000 HD 
HETATM   40  O   UNL     1     -10.768   4.450  65.134  1.00  0.00    -0.255 OA 
BRANCH  38  41
HETATM   41  C   UNL     1      -8.767   5.056  63.985  1.00  0.00    -0.089 C  
HETATM   42  C   UNL     1      -7.519   5.872  64.225  1.00  0.00    -0.074 C  
HETATM   43  O   UNL     1      -6.661   5.337  65.120  1.00  0.00    -0.038 OA 
HETATM   44  O   UNL     1      -7.265   6.896  63.606  1.00  0.00    -0.056 OA 
ENDBRANCH  38  41
ENDBRANCH  37  38
ENDBRANCH  34  37
ENDBRANCH  33  34
ENDBRANCH  32  33
ENDBRANCH   6  32
TORSDOF 10
ENDMDL
MODEL       85
REMARK 921   NORMALIZED FREE ENERGY PREDICTED BY IDOCK:   -5.12 KCAL/MOL
REMARK 922        TOTAL FREE ENERGY PREDICTED BY IDOCK:  -10.86 KCAL/MOL
REMARK 923 INTER-LIGAND FREE ENERGY PREDICTED BY IDOCK:   -9.35 KCAL/MOL
REMARK 924 INTRA-LIGAND FREE ENERGY PREDICTED BY IDOCK:   -1.51 KCAL/MOL
REMARK 927      BINDING AFFINITY PREDICTED BY RF-SCORE:    0.00 PKD
ROOT
HETATM    1  C   UNL     1      -5.816  14.342  67.651  1.00  0.00    -0.012 C  
HETATM    2  C   UNL     1      -7.031  15.258  67.811  1.00  0.00    -0.185 C  
HETATM    3  C   UNL     1      -8.332  14.568  68.244  1.00  0.00    -0.152 A  
HETATM    4  C   UNL     1      -7.164  16.179  66.596  1.00  0.00    -0.098 C  
HETATM    5  C   UNL     1      -8.825  13.261  68.065  1.00  0.00    -0.190 A  
HETATM    6  N   UNL     1      -9.235  15.232  69.087  1.00  0.00    -0.222 NA 
HETATM    7  C   UNL     1      -9.931  13.094  69.018  1.00  0.00     0.204 A  
HETATM    8  C   UNL     1     -10.215  14.353  69.578  1.00  0.00     0.104 A  
ENDROOT
BRANCH   5   9
HETATM    9  C   UNL     1      -8.259  12.192  67.185  1.00  0.00    -0.182 C  
HETATM   10  O   UNL     1      -7.128  11.753  67.392  1.00  0.00    -0.106 OA 
HETATM   11  N   UNL     1      -9.091  11.753  66.164  1.00  0.00    -0.282 N  
HETATM   12  H   UNL     1      -9.986  12.232  66.058  1.00  0.00     0.000 HD 
BRANCH  11  13
HETATM   13  C   UNL     1      -8.813  10.700  65.253  1.00  0.00    -0.189 A  
HETATM   14  C   UNL     1      -8.152   8.416  64.722  1.00  0.00    -0.155 A  
HETATM   15  C   UNL     1      -8.285   8.671  63.360  1.00  0.00    -0.155 A  
HETATM   16  C   UNL     1      -8.979  10.933  63.881  1.00  0.00    -0.117 A  
HETATM   17  C   UNL     1      -8.406   9.426  65.661  1.00  0.00    -0.129 A  
HETATM   18  C   UNL     1      -8.690   9.935  62.938  1.00  0.00    -0.213 A  
ENDBRANCH  11  13
ENDBRANCH   5   9
BRANCH   7  19
HETATM   19  C   UNL     1     -10.668  11.852  69.384  1.00  0.00    -0.012 A  
HETATM   20  C   UNL     1      -9.977  10.659  69.671  1.00  0.00    -0.090 A  
HETATM   21  C   UNL     1     -12.743  10.621  69.786  1.00  0.00     0.028 A  
HETATM   22  C   UNL     1     -12.033   9.467  70.111  1.00  0.00     0.040 A  
HETATM   23  C   UNL     1     -12.069  11.808  69.454  1.00  0.00    -0.301 A  
HETATM   24  C   UNL     1     -10.647   9.490  70.063  1.00  0.00    -0.280 A  
ENDBRANCH   7  19
BRANCH   8  25
HETATM   25  C   UNL     1     -11.339  14.784  70.489  1.00  0.00    -0.242 A  
HETATM   26  C   UNL     1     -11.115  15.152  71.826  1.00  0.00    -0.153 A  
HETATM   27  C   UNL     1     -13.707  15.258  70.897  1.00  0.00    -0.363 A  
HETATM   28  C   UNL     1     -12.671  14.836  70.045  1.00  0.00    -0.199 A  
HETATM   29  F   UNL     1     -14.394  16.158  72.971  1.00  0.00    -0.665 F  
HETATM   30  C   UNL     1     -12.121  15.665  72.648  1.00  0.00    -0.565 A  
HETATM   31  C   UNL     1     -13.417  15.704  72.178  1.00  0.00    -0.469 A  
ENDBRANCH   8  25
BRANCH   6  32
HETATM   32  C   UNL     1      -9.221  16.682  69.331  1.00  0.00     0.040 C  
BRANCH  32  33
HETATM   33  C   UNL     1      -9.204  17.571  68.074  1.00  0.00    -0.275 C  
BRANCH  33  34
HETATM   34  C   UNL     1     -10.539  17.593  67.300  1.00  0.00    -0.296 C  
HETATM   35  O   UNL     1     -11.176  18.869  67.349  1.00  0.00    -0.230 OA 
HETATM   36  H   UNL     1     -11.998  18.883  66.872  1.00  0.00     0.000 HD 
BRANCH  34  37
HETATM   37  C   UNL     1     -10.299  17.272  65.814  1.00  0.00    -0.245 C  
BRANCH  37  38
HETATM   38  C   UNL     1     -11.355  16.329  65.212  1.00  0.00     0.109 C  
HETATM   39  H   UNL     1     -12.276  16.077  63.469  1.00  0.00     0.000 HD 
HETATM   40  O   UNL     1     -11.624  16.659  63.840  1.00  0.00    -1.204 OA 
BRANCH  38  41
HETATM   41  C   UNL     1     -10.861  14.883  65.239  1.00  0.00    -0.398 C  
HETATM   42  C   UNL     1     -11.926  13.898  65.662  1.00  0.00    -0.392 C  
HETATM   43  O   UNL     1     -13.155  14.149  65.161  1.00  0.00    -0.757 OA 
HETATM   44  O   UNL     1     -11.686  12.910  66.341  1.00  0.00    -0.355 OA 
ENDBRANCH  38  41
ENDBRANCH  37  38
ENDBRANCH  34  37
ENDBRANCH  33  34
ENDBRANCH  32  33
ENDBRANCH   6  32
TORSDOF 10
ENDMDL
MODEL       86
REMARK 921   NORMALIZED FREE ENERGY PREDICTED BY IDOCK:   -5.12 KCAL/MOL
REMARK 922        TOTAL FREE ENERGY PREDICTED BY IDOCK:  -10.86 KCAL/MOL
REMARK 923 INTER-LIGAND FREE ENERGY PREDICTED BY IDOCK:  -10.59 KCAL/MOL
REMARK 924 INTRA-LIGAND FREE ENERGY PREDICTED BY IDOCK:   -0.27 KCAL/MOL
REMARK 927      BINDING AFFINITY PREDICTED BY RF-SCORE:    0.00 PKD
ROOT
HETATM    1  C   UNL     1      -7.395   7.216  68.281  1.00  0.00    -0.100 C  
HETATM    2  C   UNL     1      -7.872   8.327  67.343  1.00  0.00    -0.106 C  
HETATM    3  C   UNL     1      -9.039   9.179  67.860  1.00  0.00    -0.127 A  
HETATM    4  C   UNL     1      -8.053   7.780  65.924  1.00  0.00    -0.121 C  
HETATM    5  C   UNL     1     -10.098   8.909  68.748  1.00  0.00    -0.215 A  
HETATM    6  N   UNL     1      -9.105  10.545  67.550  1.00  0.00    -0.138 NA 
HETATM    7  C   UNL     1     -10.660  10.208  69.141  1.00  0.00    -0.247 A  
HETATM    8  C   UNL     1     -10.081  11.197  68.324  1.00  0.00    -0.185 A  
ENDROOT
BRANCH   5   9
HETATM    9  C   UNL     1     -10.498   7.579  69.304  1.00  0.00    -0.214 C  
HETATM   10  O   UNL     1     -11.184   6.807  68.634  1.00  0.00    -0.187 OA 
HETATM   11  N   UNL     1     -10.038   7.302  70.586  1.00  0.00    -0.194 N  
HETATM   12  H   UNL     1      -9.525   8.043  71.063  1.00  0.00     0.000 HD 
BRANCH  11  13
HETATM   13  C   UNL     1     -10.218   6.084  71.293  1.00  0.00    -0.205 A  
HETATM   14  C   UNL     1      -9.662   3.762  71.780  1.00  0.00    -0.245 A  
HETATM   15  C   UNL     1     -10.652   3.708  72.757  1.00  0.00    -0.184 A  
HETATM   16  C   UNL     1     -11.186   6.028  72.304  1.00  0.00    -0.341 A  
HETATM   17  C   UNL     1      -9.452   4.940  71.047  1.00  0.00    -0.225 A  
HETATM   18  C   UNL     1     -11.422   4.840  73.013  1.00  0.00    -0.297 A  
ENDBRANCH  11  13
ENDBRANCH   5   9
BRANCH   7  19
HETATM   19  C   UNL     1     -11.660  10.511  70.203  1.00  0.00    -0.408 A  
HETATM   20  C   UNL     1     -11.958  11.841  70.557  1.00  0.00    -0.383 A  
HETATM   21  C   UNL     1     -13.269   9.810  71.907  1.00  0.00    -0.545 A  
HETATM   22  C   UNL     1     -13.579  11.134  72.205  1.00  0.00    -0.074 A  
HETATM   23  C   UNL     1     -12.340   9.500  70.898  1.00  0.00    -0.305 A  
HETATM   24  C   UNL     1     -12.929  12.151  71.521  1.00  0.00    -0.398 A  
ENDBRANCH   7  19
BRANCH   8  25
HETATM   25  C   UNL     1     -10.401  12.666  68.194  1.00  0.00    -0.238 A  
HETATM   26  C   UNL     1     -11.669  13.120  67.796  1.00  0.00    -0.401 A  
HETATM   27  C   UNL     1      -9.758  15.023  68.356  1.00  0.00    -0.216 A  
HETATM   28  C   UNL     1      -9.442  13.657  68.462  1.00  0.00    -0.143 A  
HETATM   29  F   UNL     1     -11.368  16.717  68.009  1.00  0.00    -0.330 F  
HETATM   30  C   UNL     1     -12.020  14.472  67.785  1.00  0.00    -0.345 A  
HETATM   31  C   UNL     1     -11.054  15.418  68.055  1.00  0.00    -0.312 A  
ENDBRANCH   8  25
BRANCH   6  32
HETATM   32  C   UNL     1      -8.333  11.184  66.474  1.00  0.00    -0.166 C  
BRANCH  32  33
HETATM   33  C   UNL     1      -8.499  10.566  65.074  1.00  0.00    -0.166 C  
BRANCH  33  34
HETATM   34  C   UNL     1      -9.939  10.629  64.524  1.00  0.00    -0.345 C  
HETATM   35  O   UNL     1     -10.882  10.003  65.395  1.00  0.00     0.279 OA 
HETATM   36  H   UNL     1     -11.769  10.043  65.056  1.00  0.00     0.000 HD 
BRANCH  34  37
HETATM   37  C   UNL     1     -10.385  12.093  64.363  1.00  0.00    -0.348 C  
BRANCH  37  38
HETATM   38  C   UNL     1     -11.868  12.244  63.984  1.00  0.00    -0.444 C  
HETATM   39  H   UNL     1     -13.618  12.357  64.920  1.00  0.00     0.000 HD 
HETATM   40  O   UNL     1     -12.702  12.264  65.153  1.00  0.00    -0.571 OA 
BRANCH  38  41
HETATM   41  C   UNL     1     -12.102  13.558  63.242  1.00  0.00    -0.223 C  
HETATM   42  C   UNL     1     -11.791  14.778  64.078  1.00  0.00    -0.071 C  
HETATM   43  O   UNL     1     -10.690  14.662  64.853  1.00  0.00    -0.402 OA 
HETATM   44  O   UNL     1     -12.435  15.814  64.008  1.00  0.00    -0.698 OA 
ENDBRANCH  38  41
ENDBRANCH  37  38
ENDBRANCH  34  37
ENDBRANCH  33  34
ENDBRANCH  32  33
ENDBRANCH   6  32
TORSDOF 10
ENDMDL
MODEL       87
REMARK 921   NORMALIZED FREE ENERGY PREDICTED BY IDOCK:   -5.10 KCAL/MOL
REMARK 922        TOTAL FREE ENERGY PREDICTED BY IDOCK:  -10.83 KCAL/MOL
REMARK 923 INTER-LIGAND FREE ENERGY PREDICTED BY IDOCK:   -7.50 KCAL/MOL
REMARK 924 INTRA-LIGAND FREE ENERGY PREDICTED BY IDOCK:   -3.32 KCAL/MOL
REMARK 927      BINDING AFFINITY PREDICTED BY RF-SCORE:    0.00 PKD
ROOT
HETATM    1  C   UNL     1     -13.145   9.940  71.279  1.00  0.00    -0.487 C  
HETATM    2  C   UNL     1     -12.839  11.391  70.905  1.00  0.00    -0.323 C  
HETATM    3  C   UNL     1     -11.897  11.585  69.709  1.00  0.00    -0.357 A  
HETATM    4  C   UNL     1     -12.467  12.193  72.154  1.00  0.00     0.558 C  
HETATM    5  C   UNL     1     -10.862  10.796  69.171  1.00  0.00    -0.281 A  
HETATM    6  N   UNL     1     -12.081  12.666  68.835  1.00  0.00    -0.209 NA 
HETATM    7  C   UNL     1     -10.592  11.316  67.824  1.00  0.00    -0.239 A  
HETATM    8  C   UNL     1     -11.302  12.522  67.674  1.00  0.00    -0.306 A  
ENDROOT
BRANCH   5   9
HETATM    9  C   UNL     1     -10.243   9.576  69.778  1.00  0.00    -0.228 C  
HETATM   10  O   UNL     1     -10.314   8.492  69.200  1.00  0.00    -0.212 OA 
HETATM   11  N   UNL     1      -9.603   9.771  70.995  1.00  0.00    -0.201 N  
HETATM   12  H   UNL     1      -9.659  10.705  71.403  1.00  0.00     0.000 HD 
BRANCH  11  13
HETATM   13  C   UNL     1      -8.879   8.792  71.725  1.00  0.00    -0.186 A  
HETATM   14  C   UNL     1      -8.609   7.236  73.581  1.00  0.00    -0.193 A  
HETATM   15  C   UNL     1      -7.360   6.851  73.104  1.00  0.00    -0.074 A  
HETATM   16  C   UNL     1      -7.636   8.368  71.235  1.00  0.00    -0.100 A  
HETATM   17  C   UNL     1      -9.360   8.207  72.900  1.00  0.00    -0.343 A  
HETATM   18  C   UNL     1      -6.868   7.424  71.934  1.00  0.00    -0.058 A  
ENDBRANCH  11  13
ENDBRANCH   5   9
BRANCH   7  19
HETATM   19  C   UNL     1      -9.738  10.734  66.752  1.00  0.00    -0.221 A  
HETATM   20  C   UNL     1     -10.206   9.674  65.950  1.00  0.00    -0.219 A  
HETATM   21  C   UNL     1      -7.647  10.623  65.488  1.00  0.00    -0.072 A  
HETATM   22  C   UNL     1      -8.151   9.608  64.679  1.00  0.00    -0.141 A  
HETATM   23  C   UNL     1      -8.440  11.200  66.495  1.00  0.00    -0.165 A  
HETATM   24  C   UNL     1      -9.438   9.140  64.905  1.00  0.00     0.057 A  
ENDBRANCH   7  19
BRANCH   8  25
HETATM   25  C   UNL     1     -11.270  13.541  66.562  1.00  0.00    -0.322 A  
HETATM   26  C   UNL     1     -12.374  13.764  65.723  1.00  0.00    -0.523 A  
HETATM   27  C   UNL     1     -10.117  15.279  65.278  1.00  0.00    -0.362 A  
HETATM   28  C   UNL     1     -10.128  14.319  66.305  1.00  0.00    -0.308 A  
HETATM   29  F   UNL     1     -11.274  16.480  63.604  1.00  0.00     0.167 F  
HETATM   30  C   UNL     1     -12.405  14.782  64.767  1.00  0.00    -0.303 A  
HETATM   31  C   UNL     1     -11.267  15.528  64.543  1.00  0.00    -0.315 A  
ENDBRANCH   8  25
BRANCH   6  32
HETATM   32  C   UNL     1     -12.897  13.849  69.148  1.00  0.00     0.929 C  
BRANCH  32  33
HETATM   33  C   UNL     1     -12.212  15.210  68.926  1.00  0.00    -0.138 C  
BRANCH  33  34
HETATM   34  C   UNL     1     -11.115  15.540  69.960  1.00  0.00    -0.315 C  
HETATM   35  O   UNL     1     -10.009  14.642  69.885  1.00  0.00    -0.423 OA 
HETATM   36  H   UNL     1      -9.333  14.845  70.521  1.00  0.00     0.000 HD 
BRANCH  34  37
HETATM   37  C   UNL     1     -10.559  16.954  69.714  1.00  0.00    -0.098 C  
BRANCH  37  38
HETATM   38  C   UNL     1      -9.971  17.145  68.305  1.00  0.00    -0.300 C  
HETATM   39  H   UNL     1     -10.458  18.094  66.629  1.00  0.00     0.000 HD 
HETATM   40  O   UNL     1     -10.820  17.976  67.498  1.00  0.00    -0.379 OA 
BRANCH  38  41
HETATM   41  C   UNL     1      -8.608  17.831  68.381  1.00  0.00    -0.292 C  
HETATM   42  C   UNL     1      -7.536  16.958  68.988  1.00  0.00    -0.220 C  
HETATM   43  O   UNL     1      -7.584  15.662  68.611  1.00  0.00    -0.130 OA 
HETATM   44  O   UNL     1      -6.648  17.397  69.706  1.00  0.00    -0.175 OA 
ENDBRANCH  38  41
ENDBRANCH  37  38
ENDBRANCH  34  37
ENDBRANCH  33  34
ENDBRANCH  32  33
ENDBRANCH   6  32
TORSDOF 10
ENDMDL
MODEL       88
REMARK 921   NORMALIZED FREE ENERGY PREDICTED BY IDOCK:   -5.10 KCAL/MOL
REMARK 922        TOTAL FREE ENERGY PREDICTED BY IDOCK:  -10.83 KCAL/MOL
REMARK 923 INTER-LIGAND FREE ENERGY PREDICTED BY IDOCK:   -9.93 KCAL/MOL
REMARK 924 INTRA-LIGAND FREE ENERGY PREDICTED BY IDOCK:   -0.90 KCAL/MOL
REMARK 927      BINDING AFFINITY PREDICTED BY RF-SCORE:    0.00 PKD
ROOT
HETATM    1  C   UNL     1     -11.461  12.955  63.781  1.00  0.00    -0.519 C  
HETATM    2  C   UNL     1     -10.471  12.061  64.530  1.00  0.00    -0.341 C  
HETATM    3  C   UNL     1     -10.385  12.286  66.045  1.00  0.00    -0.245 A  
HETATM    4  C   UNL     1      -9.122  12.040  63.805  1.00  0.00     0.505 C  
HETATM    5  C   UNL     1     -10.614  13.414  66.857  1.00  0.00    -0.273 A  
HETATM    6  N   UNL     1     -10.156  11.204  66.907  1.00  0.00    -0.208 NA 
HETATM    7  C   UNL     1     -10.745  12.922  68.235  1.00  0.00    -0.261 A  
HETATM    8  C   UNL     1     -10.377  11.564  68.248  1.00  0.00    -0.197 A  
ENDROOT
BRANCH   5   9
HETATM    9  C   UNL     1     -10.827  14.825  66.409  1.00  0.00    -0.322 C  
HETATM   10  O   UNL     1     -11.702  15.089  65.584  1.00  0.00    -0.263 OA 
HETATM   11  N   UNL     1      -9.990  15.771  66.986  1.00  0.00    -0.235 N  
HETATM   12  H   UNL     1      -9.265  15.424  67.615  1.00  0.00     0.000 HD 
BRANCH  11  13
HETATM   13  C   UNL     1     -10.048  17.175  66.783  1.00  0.00    -0.303 A  
HETATM   14  C   UNL     1      -9.469  19.471  67.358  1.00  0.00    -0.415 A  
HETATM   15  C   UNL     1     -10.227  19.951  66.294  1.00  0.00    -0.614 A  
HETATM   16  C   UNL     1     -10.777  17.669  65.694  1.00  0.00    -0.084 A  
HETATM   17  C   UNL     1      -9.387  18.092  67.606  1.00  0.00    -0.260 A  
HETATM   18  C   UNL     1     -10.890  19.049  65.466  1.00  0.00    -0.025 A  
ENDBRANCH  11  13
ENDBRANCH   5   9
BRANCH   7  19
HETATM   19  C   UNL     1     -11.185  13.660  69.452  1.00  0.00    -0.252 A  
HETATM   20  C   UNL     1     -12.259  13.190  70.234  1.00  0.00    -0.376 A  
HETATM   21  C   UNL     1     -11.007  15.533  71.015  1.00  0.00    -0.314 A  
HETATM   22  C   UNL     1     -12.040  15.022  71.796  1.00  0.00    -0.428 A  
HETATM   23  C   UNL     1     -10.564  14.846  69.872  1.00  0.00    -0.152 A  
HETATM   24  C   UNL     1     -12.660  13.842  71.409  1.00  0.00    -0.444 A  
ENDBRANCH   7  19
BRANCH   8  25
HETATM   25  C   UNL     1     -10.184  10.617  69.406  1.00  0.00    -0.218 A  
HETATM   26  C   UNL     1     -11.246  10.239  70.245  1.00  0.00    -0.395 A  
HETATM   27  C   UNL     1      -8.764   9.167  70.779  1.00  0.00    -0.285 A  
HETATM   28  C   UNL     1      -8.928  10.065  69.708  1.00  0.00    -0.209 A  
HETATM   29  F   UNL     1      -9.719   7.856  72.497  1.00  0.00    -0.206 F  
HETATM   30  C   UNL     1     -11.113   9.274  71.247  1.00  0.00    -0.427 A  
HETATM   31  C   UNL     1      -9.865   8.752  71.514  1.00  0.00    -0.301 A  
ENDBRANCH   8  25
BRANCH   6  32
HETATM   32  C   UNL     1      -9.642   9.898  66.470  1.00  0.00    -0.190 C  
BRANCH  32  33
HETATM   33  C   UNL     1     -10.624   8.718  66.593  1.00  0.00    -0.141 C  
BRANCH  33  34
HETATM   34  C   UNL     1     -10.251   7.699  67.690  1.00  0.00    -0.214 C  
HETATM   35  O   UNL     1     -11.397   7.186  68.369  1.00  0.00    -0.465 OA 
HETATM   36  H   UNL     1     -11.167   6.558  69.044  1.00  0.00     0.000 HD 
BRANCH  34  37
HETATM   37  C   UNL     1      -9.523   6.492  67.071  1.00  0.00    -0.161 C  
BRANCH  37  38
HETATM   38  C   UNL     1      -8.232   6.108  67.815  1.00  0.00    -0.117 C  
HETATM   39  H   UNL     1      -6.532   6.984  68.354  1.00  0.00     0.000 HD 
HETATM   40  O   UNL     1      -7.328   7.221  67.895  1.00  0.00    -0.091 OA 
BRANCH  38  41
HETATM   41  C   UNL     1      -8.546   5.680  69.248  1.00  0.00    -0.106 C  
HETATM   42  C   UNL     1      -8.998   4.242  69.354  1.00  0.00    -0.101 C  
HETATM   43  O   UNL     1      -8.328   3.382  68.557  1.00  0.00    -0.074 OA 
HETATM   44  O   UNL     1      -9.849   3.869  70.149  1.00  0.00    -0.200 OA 
ENDBRANCH  38  41
ENDBRANCH  37  38
ENDBRANCH  34  37
ENDBRANCH  33  34
ENDBRANCH  32  33
ENDBRANCH   6  32
TORSDOF 10
ENDMDL
MODEL       89
REMARK 921   NORMALIZED FREE ENERGY PREDICTED BY IDOCK:   -5.05 KCAL/MOL
REMARK 922        TOTAL FREE ENERGY PREDICTED BY IDOCK:  -10.76 KCAL/MOL
REMARK 923 INTER-LIGAND FREE ENERGY PREDICTED BY IDOCK:   -7.71 KCAL/MOL
REMARK 924 INTRA-LIGAND FREE ENERGY PREDICTED BY IDOCK:   -3.05 KCAL/MOL
REMARK 927      BINDING AFFINITY PREDICTED BY RF-SCORE:    0.00 PKD
ROOT
HETATM    1  C   UNL     1     -10.026   8.578  71.620  1.00  0.00    -0.329 C  
HETATM    2  C   UNL     1     -10.637   7.530  70.689  1.00  0.00    -0.231 C  
HETATM    3  C   UNL     1     -10.260   7.655  69.207  1.00  0.00    -0.210 A  
HETATM    4  C   UNL     1     -12.136   7.389  70.962  1.00  0.00    -0.330 C  
HETATM    5  C   UNL     1      -9.895   8.753  68.404  1.00  0.00    -0.189 A  
HETATM    6  N   UNL     1     -10.099   6.506  68.420  1.00  0.00    -0.151 NA 
HETATM    7  C   UNL     1      -9.288   8.202  67.185  1.00  0.00    -0.183 A  
HETATM    8  C   UNL     1      -9.501   6.811  67.186  1.00  0.00    -0.142 A  
ENDROOT
BRANCH   5   9
HETATM    9  C   UNL     1      -9.972  10.204  68.763  1.00  0.00    -0.179 C  
HETATM   10  O   UNL     1      -8.948  10.831  69.037  1.00  0.00    -0.169 OA 
HETATM   11  N   UNL     1     -11.246  10.757  68.754  1.00  0.00    -0.251 N  
HETATM   12  H   UNL     1     -12.024  10.123  68.566  1.00  0.00     0.000 HD 
BRANCH  11  13
HETATM   13  C   UNL     1     -11.567  12.121  68.981  1.00  0.00    -0.319 A  
HETATM   14  C   UNL     1     -11.911  14.417  68.240  1.00  0.00    -0.361 A  
HETATM   15  C   UNL     1     -12.221  14.812  69.537  1.00  0.00    -0.280 A  
HETATM   16  C   UNL     1     -11.917  12.525  70.277  1.00  0.00    -0.364 A  
HETATM   17  C   UNL     1     -11.577  13.082  67.965  1.00  0.00    -0.383 A  
HETATM   18  C   UNL     1     -12.215  13.867  70.559  1.00  0.00    -0.443 A  
ENDBRANCH  11  13
ENDBRANCH   5   9
BRANCH   7  19
HETATM   19  C   UNL     1      -8.559   8.915  66.100  1.00  0.00    -0.155 A  
HETATM   20  C   UNL     1      -7.156   9.038  66.130  1.00  0.00    -0.086 A  
HETATM   21  C   UNL     1      -8.516  10.180  64.007  1.00  0.00    -0.185 A  
HETATM   22  C   UNL     1      -7.125  10.247  64.037  1.00  0.00    -0.053 A  
HETATM   23  C   UNL     1      -9.224   9.499  65.011  1.00  0.00    -0.297 A  
HETATM   24  C   UNL     1      -6.444   9.665  65.097  1.00  0.00    -0.088 A  
ENDBRANCH   7  19
BRANCH   8  25
HETATM   25  C   UNL     1      -9.225   5.782  66.117  1.00  0.00    -0.169 A  
HETATM   26  C   UNL     1      -7.932   5.554  65.619  1.00  0.00    -0.109 A  
HETATM   27  C   UNL     1      -9.979   4.029  64.582  1.00  0.00    -0.205 A  
HETATM   28  C   UNL     1     -10.251   4.999  65.563  1.00  0.00    -0.013 A  
HETATM   29  F   UNL     1      -8.405   2.816  63.303  1.00  0.00    -0.080 F  
HETATM   30  C   UNL     1      -7.638   4.527  64.718  1.00  0.00    -0.073 A  
HETATM   31  C   UNL     1      -8.670   3.776  64.196  1.00  0.00    -0.107 A  
ENDBRANCH   8  25
BRANCH   6  32
HETATM   32  C   UNL     1     -10.597   5.174  68.797  1.00  0.00     0.040 C  
BRANCH  32  33
HETATM   33  C   UNL     1      -9.520   4.139  69.171  1.00  0.00    -0.248 C  
BRANCH  33  34
HETATM   34  C   UNL     1      -9.121   4.155  70.661  1.00  0.00    -0.111 C  
HETATM   35  O   UNL     1      -8.225   5.221  70.974  1.00  0.00    -0.111 OA 
HETATM   36  H   UNL     1      -7.979   5.230  71.892  1.00  0.00     0.000 HD 
BRANCH  34  37
HETATM   37  C   UNL     1     -10.367   4.347  71.545  1.00  0.00    -0.096 C  
BRANCH  37  38
HETATM   38  C   UNL     1     -10.069   4.257  73.052  1.00  0.00    -0.152 C  
HETATM   39  H   UNL     1      -9.664   5.504  74.544  1.00  0.00     0.000 HD 
HETATM   40  O   UNL     1      -9.848   5.560  73.615  1.00  0.00    -0.157 OA 
BRANCH  38  41
HETATM   41  C   UNL     1     -11.252   3.640  73.796  1.00  0.00    -0.237 C  
HETATM   42  C   UNL     1     -11.293   2.133  73.703  1.00  0.00    -0.220 C  
HETATM   43  O   UNL     1     -10.088   1.530  73.797  1.00  0.00    -0.078 OA 
HETATM   44  O   UNL     1     -12.336   1.499  73.623  1.00  0.00    -0.201 OA 
ENDBRANCH  38  41
ENDBRANCH  37  38
ENDBRANCH  34  37
ENDBRANCH  33  34
ENDBRANCH  32  33
ENDBRANCH   6  32
TORSDOF 10
ENDMDL
MODEL       90
REMARK 921   NORMALIZED FREE ENERGY PREDICTED BY IDOCK:   -5.04 KCAL/MOL
REMARK 922        TOTAL FREE ENERGY PREDICTED BY IDOCK:  -10.74 KCAL/MOL
REMARK 923 INTER-LIGAND FREE ENERGY PREDICTED BY IDOCK:   -7.79 KCAL/MOL
REMARK 924 INTRA-LIGAND FREE ENERGY PREDICTED BY IDOCK:   -2.95 KCAL/MOL
REMARK 927      BINDING AFFINITY PREDICTED BY RF-SCORE:    0.00 PKD
ROOT
HETATM    1  C   UNL     1     -10.165  10.349  64.574  1.00  0.00    -0.281 C  
HETATM    2  C   UNL     1      -9.069   9.540  65.270  1.00  0.00    -0.276 C  
HETATM    3  C   UNL     1      -9.370   9.111  66.712  1.00  0.00    -0.165 A  
HETATM    4  C   UNL     1      -7.707  10.211  65.070  1.00  0.00    -0.141 C  
HETATM    5  C   UNL     1     -10.174   9.669  67.725  1.00  0.00    -0.253 A  
HETATM    6  N   UNL     1      -8.908   7.878  67.192  1.00  0.00    -0.130 NA 
HETATM    7  C   UNL     1     -10.364   8.621  68.737  1.00  0.00    -0.228 A  
HETATM    8  C   UNL     1      -9.504   7.553  68.423  1.00  0.00    -0.148 A  
ENDROOT
BRANCH   5   9
HETATM    9  C   UNL     1     -10.830  11.014  67.724  1.00  0.00    -0.249 C  
HETATM   10  O   UNL     1     -12.058  11.105  67.738  1.00  0.00    -0.606 OA 
HETATM   11  N   UNL     1      -9.967  12.102  67.715  1.00  0.00    -0.193 N  
HETATM   12  H   UNL     1      -8.969  11.900  67.647  1.00  0.00     0.000 HD 
BRANCH  11  13
HETATM   13  C   UNL     1     -10.345  13.469  67.790  1.00  0.00    -0.241 A  
HETATM   14  C   UNL     1     -10.912  15.493  69.023  1.00  0.00    -0.256 A  
HETATM   15  C   UNL     1     -11.094  16.191  67.833  1.00  0.00    -0.293 A  
HETATM   16  C   UNL     1     -10.495  14.193  66.600  1.00  0.00    -0.278 A  
HETATM   17  C   UNL     1     -10.548  14.138  69.001  1.00  0.00    -0.227 A  
HETATM   18  C   UNL     1     -10.894  15.539  66.620  1.00  0.00    -0.285 A  
ENDBRANCH  11  13
ENDBRANCH   5   9
BRANCH   7  19
HETATM   19  C   UNL     1     -11.282   8.612  69.911  1.00  0.00    -0.045 A  
HETATM   20  C   UNL     1     -12.157   7.531  70.135  1.00  0.00     0.303 A  
HETATM   21  C   UNL     1     -12.209   9.643  71.926  1.00  0.00    -0.413 A  
HETATM   22  C   UNL     1     -13.031   8.541  72.150  1.00  0.00    -0.403 A  
HETATM   23  C   UNL     1     -11.323   9.667  70.835  1.00  0.00    -0.431 A  
HETATM   24  C   UNL     1     -12.997   7.479  71.258  1.00  0.00    -0.323 A  
ENDBRANCH   7  19
BRANCH   8  25
HETATM   25  C   UNL     1      -9.183   6.299  69.198  1.00  0.00    -0.128 A  
HETATM   26  C   UNL     1      -8.125   6.243  70.119  1.00  0.00    -0.116 A  
HETATM   27  C   UNL     1      -9.630   3.961  69.776  1.00  0.00    -0.271 A  
HETATM   28  C   UNL     1      -9.927   5.118  69.034  1.00  0.00    -0.265 A  
HETATM   29  F   UNL     1      -8.391   2.906  71.489  1.00  0.00    -0.060 F  
HETATM   30  C   UNL     1      -7.886   5.131  70.931  1.00  0.00    -0.096 A  
HETATM   31  C   UNL     1      -8.637   3.989  70.744  1.00  0.00    -0.072 A  
ENDBRANCH   8  25
BRANCH   6  32
HETATM   32  C   UNL     1      -7.850   7.086  66.545  1.00  0.00    -0.106 C  
BRANCH  32  33
HETATM   33  C   UNL     1      -8.332   5.897  65.694  1.00  0.00    -0.143 C  
BRANCH  33  34
HETATM   34  C   UNL     1      -7.935   5.986  64.206  1.00  0.00    -0.121 C  
HETATM   35  O   UNL     1      -6.529   5.841  64.007  1.00  0.00    -0.031 OA 
HETATM   36  H   UNL     1      -6.285   5.896  63.091  1.00  0.00     0.000 HD 
BRANCH  34  37
HETATM   37  C   UNL     1      -8.616   4.862  63.405  1.00  0.00    -0.128 C  
BRANCH  37  38
HETATM   38  C   UNL     1      -9.347   3.836  64.288  1.00  0.00    -0.148 C  
HETATM   39  H   UNL     1     -11.181   3.090  64.461  1.00  0.00     0.000 HD 
HETATM   40  O   UNL     1     -10.730   3.723  63.915  1.00  0.00    -0.272 OA 
BRANCH  38  41
HETATM   41  C   UNL     1      -8.724   2.450  64.130  1.00  0.00    -0.096 C  
HETATM   42  C   UNL     1      -7.646   2.162  65.149  1.00  0.00    -0.068 C  
HETATM   43  O   UNL     1      -7.918   2.608  66.395  1.00  0.00    -0.079 OA 
HETATM   44  O   UNL     1      -6.642   1.514  64.891  1.00  0.00    -0.022 OA 
ENDBRANCH  38  41
ENDBRANCH  37  38
ENDBRANCH  34  37
ENDBRANCH  33  34
ENDBRANCH  32  33
ENDBRANCH   6  32
TORSDOF 10
ENDMDL
MODEL       91
REMARK 921   NORMALIZED FREE ENERGY PREDICTED BY IDOCK:   -5.03 KCAL/MOL
REMARK 922        TOTAL FREE ENERGY PREDICTED BY IDOCK:  -10.72 KCAL/MOL
REMARK 923 INTER-LIGAND FREE ENERGY PREDICTED BY IDOCK:   -8.27 KCAL/MOL
REMARK 924 INTRA-LIGAND FREE ENERGY PREDICTED BY IDOCK:   -2.44 KCAL/MOL
REMARK 927      BINDING AFFINITY PREDICTED BY RF-SCORE:    0.00 PKD
ROOT
HETATM    1  C   UNL     1      -9.550   5.397  69.065  1.00  0.00    -0.191 C  
HETATM    2  C   UNL     1      -8.997   6.701  69.643  1.00  0.00    -0.142 C  
HETATM    3  C   UNL     1      -8.806   7.846  68.639  1.00  0.00    -0.134 A  
HETATM    4  C   UNL     1      -7.783   6.414  70.530  1.00  0.00    -0.105 C  
HETATM    5  C   UNL     1      -8.548   7.870  67.255  1.00  0.00    -0.128 A  
HETATM    6  N   UNL     1      -9.024   9.174  69.035  1.00  0.00    -0.141 NA 
HETATM    7  C   UNL     1      -8.848   9.231  66.793  1.00  0.00    -0.142 A  
HETATM    8  C   UNL     1      -9.061  10.037  67.926  1.00  0.00    -0.131 A  
ENDROOT
BRANCH   5   9
HETATM    9  C   UNL     1      -8.177   6.712  66.383  1.00  0.00    -0.117 C  
HETATM   10  O   UNL     1      -6.996   6.392  66.246  1.00  0.00    -0.063 OA 
HETATM   11  N   UNL     1      -9.238   6.054  65.775  1.00  0.00    -0.333 N  
HETATM   12  H   UNL     1     -10.169   6.447  65.920  1.00  0.00     0.000 HD 
BRANCH  11  13
HETATM   13  C   UNL     1      -9.149   4.887  64.971  1.00  0.00    -0.131 A  
HETATM   14  C   UNL     1      -8.914   3.747  62.830  1.00  0.00    -0.101 A  
HETATM   15  C   UNL     1      -8.979   2.507  63.460  1.00  0.00    -0.092 A  
HETATM   16  C   UNL     1      -9.176   3.634  65.596  1.00  0.00    -0.156 A  
HETATM   17  C   UNL     1      -9.007   4.929  63.580  1.00  0.00    -0.024 A  
HETATM   18  C   UNL     1      -9.120   2.450  64.844  1.00  0.00    -0.129 A  
ENDBRANCH  11  13
ENDBRANCH   5   9
BRANCH   7  19
HETATM   19  C   UNL     1      -8.934   9.746  65.398  1.00  0.00    -0.229 A  
HETATM   20  C   UNL     1     -10.136  10.288  64.900  1.00  0.00    -0.346 A  
HETATM   21  C   UNL     1      -7.951  10.189  63.202  1.00  0.00    -0.154 A  
HETATM   22  C   UNL     1      -9.136  10.763  62.751  1.00  0.00    -0.328 A  
HETATM   23  C   UNL     1      -7.841   9.711  64.520  1.00  0.00    -0.134 A  
HETATM   24  C   UNL     1     -10.228  10.821  63.606  1.00  0.00    -0.327 A  
ENDBRANCH   7  19
BRANCH   8  25
HETATM   25  C   UNL     1      -9.253  11.529  68.040  1.00  0.00    -0.175 A  
HETATM   26  C   UNL     1     -10.522  12.126  67.961  1.00  0.00    -0.227 A  
HETATM   27  C   UNL     1      -8.360  13.789  68.352  1.00  0.00    -0.152 A  
HETATM   28  C   UNL     1      -8.167  12.402  68.228  1.00  0.00    -0.170 A  
HETATM   29  F   UNL     1      -9.831  15.629  68.538  1.00  0.00    -0.195 F  
HETATM   30  C   UNL     1     -10.732  13.490  68.182  1.00  0.00    -0.265 A  
HETATM   31  C   UNL     1      -9.644  14.316  68.365  1.00  0.00    -0.221 A  
ENDBRANCH   8  25
BRANCH   6  32
HETATM   32  C   UNL     1      -9.089   9.616  70.436  1.00  0.00    -0.191 C  
BRANCH  32  33
HETATM   33  C   UNL     1     -10.504   9.777  71.021  1.00  0.00    -0.230 C  
BRANCH  33  34
HETATM   34  C   UNL     1     -11.633   9.322  70.074  1.00  0.00     0.025 C  
HETATM   35  O   UNL     1     -12.355   8.202  70.586  1.00  0.00    -0.497 OA 
HETATM   36  H   UNL     1     -13.051   7.922  70.002  1.00  0.00     0.000 HD 
BRANCH  34  37
HETATM   37  C   UNL     1     -12.654  10.457  69.877  1.00  0.00    -0.059 C  
BRANCH  37  38
HETATM   38  C   UNL     1     -13.132  11.087  71.197  1.00  0.00    -0.232 C  
HETATM   39  H   UNL     1     -13.121  10.629  73.130  1.00  0.00     0.000 HD 
HETATM   40  O   UNL     1     -12.825  10.241  72.316  1.00  0.00    -0.349 OA 
BRANCH  38  41
HETATM   41  C   UNL     1     -12.432  12.424  71.438  1.00  0.00    -0.205 C  
HETATM   42  C   UNL     1     -13.383  13.531  71.829  1.00  0.00    -0.397 C  
HETATM   43  O   UNL     1     -14.364  13.156  72.678  1.00  0.00    -0.636 OA 
HETATM   44  O   UNL     1     -13.237  14.690  71.470  1.00  0.00    -0.319 OA 
ENDBRANCH  38  41
ENDBRANCH  37  38
ENDBRANCH  34  37
ENDBRANCH  33  34
ENDBRANCH  32  33
ENDBRANCH   6  32
TORSDOF 10
ENDMDL
MODEL       92
REMARK 921   NORMALIZED FREE ENERGY PREDICTED BY IDOCK:   -4.99 KCAL/MOL
REMARK 922        TOTAL FREE ENERGY PREDICTED BY IDOCK:  -10.66 KCAL/MOL
REMARK 923 INTER-LIGAND FREE ENERGY PREDICTED BY IDOCK:   -9.16 KCAL/MOL
REMARK 924 INTRA-LIGAND FREE ENERGY PREDICTED BY IDOCK:   -1.50 KCAL/MOL
REMARK 927      BINDING AFFINITY PREDICTED BY RF-SCORE:    0.00 PKD
ROOT
HETATM    1  C   UNL     1     -12.437  13.875  65.958  1.00  0.00    -0.501 C  
HETATM    2  C   UNL     1     -11.523  12.666  65.748  1.00  0.00    -0.399 C  
HETATM    3  C   UNL     1     -10.126  12.771  66.372  1.00  0.00    -0.259 A  
HETATM    4  C   UNL     1     -11.541  12.238  64.278  1.00  0.00    -0.442 C  
HETATM    5  C   UNL     1      -9.293  13.868  66.670  1.00  0.00    -0.282 A  
HETATM    6  N   UNL     1      -9.500  11.632  66.897  1.00  0.00    -0.182 NA 
HETATM    7  C   UNL     1      -8.262  13.376  67.593  1.00  0.00    -0.177 A  
HETATM    8  C   UNL     1      -8.365  11.974  67.652  1.00  0.00    -0.160 A  
ENDROOT
BRANCH   5   9
HETATM    9  C   UNL     1      -9.485  15.291  66.250  1.00  0.00    -0.309 C  
HETATM   10  O   UNL     1      -9.732  15.564  65.076  1.00  0.00    -0.246 OA 
HETATM   11  N   UNL     1      -9.372  16.235  67.263  1.00  0.00    -0.222 N  
HETATM   12  H   UNL     1      -9.109  15.892  68.187  1.00  0.00     0.000 HD 
BRANCH  11  13
HETATM   13  C   UNL     1      -9.588  17.632  67.132  1.00  0.00    -0.278 A  
HETATM   14  C   UNL     1     -10.992  19.622  67.214  1.00  0.00    -0.412 A  
HETATM   15  C   UNL     1      -9.915  20.423  66.846  1.00  0.00    -0.549 A  
HETATM   16  C   UNL     1      -8.504  18.454  66.798  1.00  0.00    -0.274 A  
HETATM   17  C   UNL     1     -10.831  18.235  67.347  1.00  0.00    -0.281 A  
HETATM   18  C   UNL     1      -8.671  19.837  66.628  1.00  0.00    -0.406 A  
ENDBRANCH  11  13
ENDBRANCH   5   9
BRANCH   7  19
HETATM   19  C   UNL     1      -7.255  14.153  68.368  1.00  0.00    -0.109 A  
HETATM   20  C   UNL     1      -6.179  14.791  67.720  1.00  0.00    -0.157 A  
HETATM   21  C   UNL     1      -6.353  15.008  70.475  1.00  0.00    -0.012 A  
HETATM   22  C   UNL     1      -5.326  15.667  69.805  1.00  0.00    -0.110 A  
HETATM   23  C   UNL     1      -7.324  14.283  69.763  1.00  0.00     0.181 A  
HETATM   24  C   UNL     1      -5.245  15.566  68.424  1.00  0.00    -0.103 A  
ENDBRANCH   7  19
BRANCH   8  25
HETATM   25  C   UNL     1      -7.471  10.957  68.319  1.00  0.00    -0.093 A  
HETATM   26  C   UNL     1      -7.535  10.700  69.698  1.00  0.00    -0.121 A  
HETATM   27  C   UNL     1      -5.711   9.258  68.221  1.00  0.00    -0.038 A  
HETATM   28  C   UNL     1      -6.524  10.217  67.592  1.00  0.00    -0.063 A  
HETATM   29  F   UNL     1      -5.147   8.022  70.155  1.00  0.00    -0.022 F  
HETATM   30  C   UNL     1      -6.801   9.681  70.313  1.00  0.00    -0.107 A  
HETATM   31  C   UNL     1      -5.883   8.973  69.568  1.00  0.00    -0.033 A  
ENDBRANCH   8  25
BRANCH   6  32
HETATM   32  C   UNL     1      -9.916  10.253  66.598  1.00  0.00    -0.216 C  
BRANCH  32  33
HETATM   33  C   UNL     1     -10.009   9.305  67.808  1.00  0.00    -0.235 C  
BRANCH  33  34
HETATM   34  C   UNL     1     -11.261   9.522  68.683  1.00  0.00     0.112 C  
HETATM   35  O   UNL     1     -11.492   8.436  69.580  1.00  0.00    -0.442 OA 
HETATM   36  H   UNL     1     -12.263   8.569  70.119  1.00  0.00     0.000 HD 
BRANCH  34  37
HETATM   37  C   UNL     1     -11.096  10.785  69.547  1.00  0.00    -0.334 C  
BRANCH  37  38
HETATM   38  C   UNL     1     -12.425  11.501  69.845  1.00  0.00    -0.094 C  
HETATM   39  H   UNL     1     -14.034  11.198  70.972  1.00  0.00     0.000 HD 
HETATM   40  O   UNL     1     -13.214  10.757  70.788  1.00  0.00    -0.247 OA 
BRANCH  38  41
HETATM   41  C   UNL     1     -12.168  12.876  70.460  1.00  0.00    -0.395 C  
HETATM   42  C   UNL     1     -13.160  13.240  71.539  1.00  0.00    -0.328 C  
HETATM   43  O   UNL     1     -13.498  12.222  72.359  1.00  0.00    -0.467 OA 
HETATM   44  O   UNL     1     -13.570  14.379  71.708  1.00  0.00    -0.345 OA 
ENDBRANCH  38  41
ENDBRANCH  37  38
ENDBRANCH  34  37
ENDBRANCH  33  34
ENDBRANCH  32  33
ENDBRANCH   6  32
TORSDOF 10
ENDMDL
MODEL       93
REMARK 921   NORMALIZED FREE ENERGY PREDICTED BY IDOCK:   -4.99 KCAL/MOL
REMARK 922        TOTAL FREE ENERGY PREDICTED BY IDOCK:  -10.65 KCAL/MOL
REMARK 923 INTER-LIGAND FREE ENERGY PREDICTED BY IDOCK:   -7.92 KCAL/MOL
REMARK 924 INTRA-LIGAND FREE ENERGY PREDICTED BY IDOCK:   -2.74 KCAL/MOL
REMARK 927      BINDING AFFINITY PREDICTED BY RF-SCORE:    0.00 PKD
ROOT
HETATM    1  C   UNL     1      -9.389   9.775  63.100  1.00  0.00    -0.125 C  
HETATM    2  C   UNL     1      -9.867  11.109  63.677  1.00  0.00    -0.387 C  
HETATM    3  C   UNL     1      -9.539  11.350  65.156  1.00  0.00    -0.229 A  
HETATM    4  C   UNL     1     -11.327  11.360  63.292  1.00  0.00    -0.094 C  
HETATM    5  C   UNL     1      -9.345  10.479  66.246  1.00  0.00    -0.202 A  
HETATM    6  N   UNL     1      -9.235  12.641  65.610  1.00  0.00     0.132 NA 
HETATM    7  C   UNL     1      -8.691  11.263  67.302  1.00  0.00    -0.145 A  
HETATM    8  C   UNL     1      -8.709  12.615  66.913  1.00  0.00    -0.175 A  
ENDROOT
BRANCH   5   9
HETATM    9  C   UNL     1      -9.616   9.008  66.289  1.00  0.00    -0.260 C  
HETATM   10  O   UNL     1     -10.739   8.592  66.575  1.00  0.00    -0.099 OA 
HETATM   11  N   UNL     1      -8.536   8.190  65.982  1.00  0.00    -0.139 N  
HETATM   12  H   UNL     1      -7.641   8.650  65.816  1.00  0.00     0.000 HD 
BRANCH  11  13
HETATM   13  C   UNL     1      -8.562   6.774  65.880  1.00  0.00    -0.147 A  
HETATM   14  C   UNL     1      -9.290   4.564  66.604  1.00  0.00    -0.156 A  
HETATM   15  C   UNL     1      -8.549   3.964  65.590  1.00  0.00    -0.111 A  
HETATM   16  C   UNL     1      -7.850   6.160  64.841  1.00  0.00    -0.108 A  
HETATM   17  C   UNL     1      -9.289   5.960  66.753  1.00  0.00    -0.144 A  
HETATM   18  C   UNL     1      -7.821   4.763  64.713  1.00  0.00    -0.092 A  
ENDBRANCH  11  13
ENDBRANCH   5   9
BRANCH   7  19
HETATM   19  C   UNL     1      -8.089  10.789  68.579  1.00  0.00    -0.133 A  
HETATM   20  C   UNL     1      -8.841  10.026  69.494  1.00  0.00    -0.209 A  
HETATM   21  C   UNL     1      -6.222  10.637  70.152  1.00  0.00    -0.125 A  
HETATM   22  C   UNL     1      -6.973   9.844  71.017  1.00  0.00     0.179 A  
HETATM   23  C   UNL     1      -6.764  11.081  68.934  1.00  0.00    -0.074 A  
HETATM   24  C   UNL     1      -8.282   9.530  70.681  1.00  0.00    -0.155 A  
ENDBRANCH   7  19
BRANCH   8  25
HETATM   25  C   UNL     1      -8.314  13.855  67.676  1.00  0.00    -0.183 A  
HETATM   26  C   UNL     1      -9.214  14.531  68.516  1.00  0.00    -0.195 A  
HETATM   27  C   UNL     1      -6.660  15.544  68.314  1.00  0.00    -0.127 A  
HETATM   28  C   UNL     1      -7.023  14.400  67.583  1.00  0.00    -0.203 A  
HETATM   29  F   UNL     1      -7.196  17.172  69.942  1.00  0.00    -0.005 F  
HETATM   30  C   UNL     1      -8.835  15.609  69.321  1.00  0.00    -0.264 A  
HETATM   31  C   UNL     1      -7.558  16.116  69.205  1.00  0.00    -0.230 A  
ENDBRANCH   8  25
BRANCH   6  32
HETATM   32  C   UNL     1      -9.537  13.870  64.859  1.00  0.00     0.478 C  
BRANCH  32  33
HETATM   33  C   UNL     1     -10.773  14.656  65.332  1.00  0.00    -0.382 C  
BRANCH  33  34
HETATM   34  C   UNL     1     -10.741  16.156  64.975  1.00  0.00    -0.337 C  
HETATM   35  O   UNL     1     -11.737  16.509  64.015  1.00  0.00    -1.405 OA 
HETATM   36  H   UNL     1     -11.717  17.433  63.795  1.00  0.00     0.000 HD 
BRANCH  34  37
HETATM   37  C   UNL     1     -11.008  17.009  66.228  1.00  0.00     0.190 C  
BRANCH  37  38
HETATM   38  C   UNL     1     -10.535  18.466  66.090  1.00  0.00    -0.395 C  
HETATM   39  H   UNL     1     -10.833  19.996  64.857  1.00  0.00     0.000 HD 
HETATM   40  O   UNL     1     -11.125  19.096  64.942  1.00  0.00    -0.303 OA 
BRANCH  38  41
HETATM   41  C   UNL     1     -10.948  19.283  67.314  1.00  0.00    -0.443 C  
HETATM   42  C   UNL     1      -9.790  19.616  68.225  1.00  0.00    -0.419 C  
HETATM   43  O   UNL     1      -8.648  19.947  67.586  1.00  0.00    -0.316 OA 
HETATM   44  O   UNL     1      -9.893  19.656  69.443  1.00  0.00    -0.383 OA 
ENDBRANCH  38  41
ENDBRANCH  37  38
ENDBRANCH  34  37
ENDBRANCH  33  34
ENDBRANCH  32  33
ENDBRANCH   6  32
TORSDOF 10
ENDMDL
MODEL       94
REMARK 921   NORMALIZED FREE ENERGY PREDICTED BY IDOCK:   -4.98 KCAL/MOL
REMARK 922        TOTAL FREE ENERGY PREDICTED BY IDOCK:  -10.64 KCAL/MOL
REMARK 923 INTER-LIGAND FREE ENERGY PREDICTED BY IDOCK:   -7.74 KCAL/MOL
REMARK 924 INTRA-LIGAND FREE ENERGY PREDICTED BY IDOCK:   -2.89 KCAL/MOL
REMARK 927      BINDING AFFINITY PREDICTED BY RF-SCORE:    0.00 PKD
ROOT
HETATM    1  C   UNL     1     -10.451  10.949  63.406  1.00  0.00    -0.220 C  
HETATM    2  C   UNL     1     -10.654  12.194  64.272  1.00  0.00    -0.385 C  
HETATM    3  C   UNL     1      -9.881  12.217  65.597  1.00  0.00    -0.231 A  
HETATM    4  C   UNL     1     -12.146  12.518  64.391  1.00  0.00    -0.500 C  
HETATM    5  C   UNL     1      -9.417  11.197  66.450  1.00  0.00    -0.216 A  
HETATM    6  N   UNL     1      -9.381  13.427  66.100  1.00  0.00    -0.129 NA 
HETATM    7  C   UNL     1      -8.430  11.813  67.346  1.00  0.00    -0.158 A  
HETATM    8  C   UNL     1      -8.488  13.207  67.163  1.00  0.00    -0.169 A  
ENDROOT
BRANCH   5   9
HETATM    9  C   UNL     1      -9.746   9.739  66.380  1.00  0.00    -0.216 C  
HETATM   10  O   UNL     1     -10.878   9.344  66.661  1.00  0.00    -0.073 OA 
HETATM   11  N   UNL     1      -8.707   8.908  65.981  1.00  0.00    -0.150 N  
HETATM   12  H   UNL     1      -7.797   9.346  65.829  1.00  0.00     0.000 HD 
BRANCH  11  13
HETATM   13  C   UNL     1      -8.792   7.508  65.764  1.00  0.00    -0.090 A  
HETATM   14  C   UNL     1      -8.445   5.499  64.430  1.00  0.00    -0.080 A  
HETATM   15  C   UNL     1      -9.006   4.711  65.431  1.00  0.00    -0.145 A  
HETATM   16  C   UNL     1      -9.321   6.700  66.779  1.00  0.00    -0.184 A  
HETATM   17  C   UNL     1      -8.347   6.889  64.592  1.00  0.00     0.047 A  
HETATM   18  C   UNL     1      -9.453   5.313  66.604  1.00  0.00    -0.148 A  
ENDBRANCH  11  13
ENDBRANCH   5   9
BRANCH   7  19
HETATM   19  C   UNL     1      -7.498  11.154  68.303  1.00  0.00    -0.094 A  
HETATM   20  C   UNL     1      -6.102  11.257  68.139  1.00  0.00    -0.045 A  
HETATM   21  C   UNL     1      -7.057   9.777  70.276  1.00  0.00    -0.145 A  
HETATM   22  C   UNL     1      -5.682   9.934  70.118  1.00  0.00    -0.047 A  
HETATM   23  C   UNL     1      -7.956  10.403  69.396  1.00  0.00    -0.161 A  
HETATM   24  C   UNL     1      -5.205  10.683  69.052  1.00  0.00    -0.041 A  
ENDBRANCH   7  19
BRANCH   8  25
HETATM   25  C   UNL     1      -7.810  14.320  67.924  1.00  0.00    -0.156 A  
HETATM   26  C   UNL     1      -8.161  14.640  69.246  1.00  0.00    -0.030 A  
HETATM   27  C   UNL     1      -6.155  16.119  68.071  1.00  0.00    -0.131 A  
HETATM   28  C   UNL     1      -6.793  15.097  67.346  1.00  0.00    -0.166 A  
HETATM   29  F   UNL     1      -5.827  17.263  70.113  1.00  0.00    -0.227 F  
HETATM   30  C   UNL     1      -7.466  15.585  70.005  1.00  0.00     0.160 A  
HETATM   31  C   UNL     1      -6.471  16.329  69.406  1.00  0.00    -0.197 A  
ENDBRANCH   8  25
BRANCH   6  32
HETATM   32  C   UNL     1      -9.825  14.754  65.647  1.00  0.00    -0.327 C  
BRANCH  32  33
HETATM   33  C   UNL     1     -11.142  15.264  66.261  1.00  0.00    -0.273 C  
BRANCH  33  34
HETATM   34  C   UNL     1     -10.996  15.818  67.694  1.00  0.00    -0.302 C  
HETATM   35  O   UNL     1     -10.976  17.245  67.727  1.00  0.00    -0.318 OA 
HETATM   36  H   UNL     1     -10.887  17.586  68.609  1.00  0.00     0.000 HD 
BRANCH  34  37
HETATM   37  C   UNL     1     -12.185  15.369  68.562  1.00  0.00     0.068 C  
BRANCH  37  38
HETATM   38  C   UNL     1     -11.860  15.316  70.065  1.00  0.00    -0.334 C  
HETATM   39  H   UNL     1     -10.829  16.388  71.383  1.00  0.00     0.000 HD 
HETATM   40  O   UNL     1     -11.030  16.421  70.456  1.00  0.00    -0.296 OA 
BRANCH  38  41
HETATM   41  C   UNL     1     -13.140  15.400  70.894  1.00  0.00    -0.528 C  
HETATM   42  C   UNL     1     -13.109  14.528  72.128  1.00  0.00    -0.356 C  
HETATM   43  O   UNL     1     -11.923  14.510  72.774  1.00  0.00    -0.094 OA 
HETATM   44  O   UNL     1     -14.094  13.942  72.553  1.00  0.00    -0.658 OA 
ENDBRANCH  38  41
ENDBRANCH  37  38
ENDBRANCH  34  37
ENDBRANCH  33  34
ENDBRANCH  32  33
ENDBRANCH   6  32
TORSDOF 10
ENDMDL
MODEL       95
REMARK 921   NORMALIZED FREE ENERGY PREDICTED BY IDOCK:   -4.96 KCAL/MOL
REMARK 922        TOTAL FREE ENERGY PREDICTED BY IDOCK:  -10.62 KCAL/MOL
REMARK 923 INTER-LIGAND FREE ENERGY PREDICTED BY IDOCK:   -7.86 KCAL/MOL
REMARK 924 INTRA-LIGAND FREE ENERGY PREDICTED BY IDOCK:   -2.76 KCAL/MOL
REMARK 927      BINDING AFFINITY PREDICTED BY RF-SCORE:    0.00 PKD
ROOT
HETATM    1  C   UNL     1      -6.422   9.713  71.113  1.00  0.00    -0.003 C  
HETATM    2  C   UNL     1      -7.385   8.557  70.837  1.00  0.00    -0.068 C  
HETATM    3  C   UNL     1      -7.912   8.458  69.399  1.00  0.00    -0.112 A  
HETATM    4  C   UNL     1      -8.462   8.493  71.923  1.00  0.00    -0.234 C  
HETATM    5  C   UNL     1      -8.128   9.420  68.393  1.00  0.00    -0.109 A  
HETATM    6  N   UNL     1      -8.150   7.204  68.820  1.00  0.00    -0.120 NA 
HETATM    7  C   UNL     1      -8.277   8.684  67.131  1.00  0.00    -0.107 A  
HETATM    8  C   UNL     1      -8.367   7.313  67.436  1.00  0.00    -0.119 A  
ENDROOT
BRANCH   5   9
HETATM    9  C   UNL     1      -8.080  10.909  68.538  1.00  0.00    -0.137 C  
HETATM   10  O   UNL     1      -9.116  11.548  68.719  1.00  0.00    -0.152 OA 
HETATM   11  N   UNL     1      -6.815  11.478  68.460  1.00  0.00    -0.069 N  
HETATM   12  H   UNL     1      -6.038  10.850  68.250  1.00  0.00     0.000 HD 
BRANCH  11  13
HETATM   13  C   UNL     1      -6.503  12.851  68.643  1.00  0.00    -0.087 A  
HETATM   14  C   UNL     1      -6.365  15.160  67.878  1.00  0.00    -0.176 A  
HETATM   15  C   UNL     1      -5.852  15.559  69.109  1.00  0.00    -0.106 A  
HETATM   16  C   UNL     1      -6.022  13.272  69.890  1.00  0.00    -0.136 A  
HETATM   17  C   UNL     1      -6.680  13.813  67.644  1.00  0.00    -0.189 A  
HETATM   18  C   UNL     1      -5.672  14.612  70.113  1.00  0.00    -0.129 A  
ENDBRANCH  11  13
ENDBRANCH   5   9
BRANCH   7  19
HETATM   19  C   UNL     1      -8.327   9.216  65.740  1.00  0.00    -0.131 A  
HETATM   20  C   UNL     1      -9.527   9.725  65.204  1.00  0.00    -0.338 A  
HETATM   21  C   UNL     1      -7.277   9.723  63.590  1.00  0.00    -0.119 A  
HETATM   22  C   UNL     1      -8.463  10.263  63.101  1.00  0.00    -0.180 A  
HETATM   23  C   UNL     1      -7.201   9.230  64.905  1.00  0.00    -0.102 A  
HETATM   24  C   UNL     1      -9.588  10.273  63.914  1.00  0.00    -0.354 A  
ENDBRANCH   7  19
BRANCH   8  25
HETATM   25  C   UNL     1      -8.675   6.135  66.546  1.00  0.00    -0.133 A  
HETATM   26  C   UNL     1      -9.981   5.642  66.388  1.00  0.00    -0.189 A  
HETATM   27  C   UNL     1      -7.970   4.381  64.988  1.00  0.00    -0.097 A  
HETATM   28  C   UNL     1      -7.668   5.466  65.830  1.00  0.00    -0.087 A  
HETATM   29  F   UNL     1      -9.583   3.000  63.949  1.00  0.00    -0.112 F  
HETATM   30  C   UNL     1     -10.303   4.629  65.479  1.00  0.00    -0.225 A  
HETATM   31  C   UNL     1      -9.289   3.997  64.792  1.00  0.00    -0.162 A  
ENDBRANCH   8  25
BRANCH   6  32
HETATM   32  C   UNL     1      -8.268   5.953  69.584  1.00  0.00    -0.110 C  
BRANCH  32  33
HETATM   33  C   UNL     1      -9.705   5.474  69.865  1.00  0.00    -0.233 C  
BRANCH  33  34
HETATM   34  C   UNL     1     -10.747   6.610  69.923  1.00  0.00    -0.250 C  
HETATM   35  O   UNL     1     -11.600   6.625  68.778  1.00  0.00    -0.587 OA 
HETATM   36  H   UNL     1     -12.243   7.324  68.814  1.00  0.00     0.000 HD 
BRANCH  34  37
HETATM   37  C   UNL     1     -11.655   6.438  71.153  1.00  0.00    -0.378 C  
BRANCH  37  38
HETATM   38  C   UNL     1     -12.161   7.771  71.733  1.00  0.00    -0.298 C  
HETATM   39  H   UNL     1     -12.072   8.748  73.461  1.00  0.00     0.000 HD 
HETATM   40  O   UNL     1     -11.760   7.926  73.103  1.00  0.00    -0.264 OA 
BRANCH  38  41
HETATM   41  C   UNL     1     -11.577   8.950  70.956  1.00  0.00    -0.347 C  
HETATM   42  C   UNL     1     -12.521  10.125  70.860  1.00  0.00    -0.360 C  
HETATM   43  O   UNL     1     -13.219  10.380  71.988  1.00  0.00    -0.456 OA 
HETATM   44  O   UNL     1     -12.597  10.838  69.870  1.00  0.00    -0.294 OA 
ENDBRANCH  38  41
ENDBRANCH  37  38
ENDBRANCH  34  37
ENDBRANCH  33  34
ENDBRANCH  32  33
ENDBRANCH   6  32
TORSDOF 10
ENDMDL
MODEL       96
REMARK 921   NORMALIZED FREE ENERGY PREDICTED BY IDOCK:   -4.94 KCAL/MOL
REMARK 922        TOTAL FREE ENERGY PREDICTED BY IDOCK:  -10.59 KCAL/MOL
REMARK 923 INTER-LIGAND FREE ENERGY PREDICTED BY IDOCK:   -8.55 KCAL/MOL
REMARK 924 INTRA-LIGAND FREE ENERGY PREDICTED BY IDOCK:   -2.03 KCAL/MOL
REMARK 927      BINDING AFFINITY PREDICTED BY RF-SCORE:    0.00 PKD
ROOT
HETATM    1  C   UNL     1     -12.853   9.512  72.454  1.00  0.00    -0.361 C  
HETATM    2  C   UNL     1     -12.462   8.301  71.605  1.00  0.00    -0.351 C  
HETATM    3  C   UNL     1     -11.431   8.566  70.501  1.00  0.00    -0.182 A  
HETATM    4  C   UNL     1     -13.714   7.548  71.148  1.00  0.00    -0.247 C  
HETATM    5  C   UNL     1     -11.110   9.714  69.749  1.00  0.00    -0.247 A  
HETATM    6  N   UNL     1     -10.485   7.586  70.169  1.00  0.00    -0.217 NA 
HETATM    7  C   UNL     1      -9.802   9.461  69.130  1.00  0.00    -0.174 A  
HETATM    8  C   UNL     1      -9.477   8.108  69.340  1.00  0.00    -0.162 A  
ENDROOT
BRANCH   5   9
HETATM    9  C   UNL     1     -11.871  11.001  69.693  1.00  0.00    -0.342 C  
HETATM   10  O   UNL     1     -12.521  11.293  68.689  1.00  0.00    -0.442 OA 
HETATM   11  N   UNL     1     -11.788  11.797  70.827  1.00  0.00    -0.408 N  
HETATM   12  H   UNL     1     -11.172  11.475  71.574  1.00  0.00     0.000 HD 
BRANCH  11  13
HETATM   13  C   UNL     1     -12.479  13.019  71.044  1.00  0.00    -0.296 A  
HETATM   14  C   UNL     1     -12.996  15.338  70.506  1.00  0.00    -0.380 A  
HETATM   15  C   UNL     1     -13.904  15.402  71.558  1.00  0.00    -0.599 A  
HETATM   16  C   UNL     1     -13.423  13.085  72.077  1.00  0.00    -0.584 A  
HETATM   17  C   UNL     1     -12.281  14.157  70.256  1.00  0.00    -0.416 A  
HETATM   18  C   UNL     1     -14.112  14.277  72.351  1.00  0.00    -0.561 A  
ENDBRANCH  11  13
ENDBRANCH   5   9
BRANCH   7  19
HETATM   19  C   UNL     1      -8.916  10.410  68.400  1.00  0.00    -0.137 A  
HETATM   20  C   UNL     1      -8.772  10.333  67.000  1.00  0.00    -0.133 A  
HETATM   21  C   UNL     1      -7.344  12.283  68.351  1.00  0.00    -0.109 A  
HETATM   22  C   UNL     1      -7.256  12.215  66.963  1.00  0.00    -0.067 A  
HETATM   23  C   UNL     1      -8.186  11.409  69.060  1.00  0.00     0.015 A  
HETATM   24  C   UNL     1      -7.980  11.243  66.286  1.00  0.00    -0.086 A  
ENDBRANCH   7  19
BRANCH   8  25
HETATM   25  C   UNL     1      -8.336   7.284  68.796  1.00  0.00    -0.129 A  
HETATM   26  C   UNL     1      -7.276   6.851  69.610  1.00  0.00    -0.080 A  
HETATM   27  C   UNL     1      -7.216   6.123  66.953  1.00  0.00    -0.074 A  
HETATM   28  C   UNL     1      -8.275   6.908  67.444  1.00  0.00    -0.119 A  
HETATM   29  F   UNL     1      -5.270   4.849  67.364  1.00  0.00    -0.006 F  
HETATM   30  C   UNL     1      -6.274   5.991  69.153  1.00  0.00    -0.036 A  
HETATM   31  C   UNL     1      -6.246   5.641  67.820  1.00  0.00    -0.033 A  
ENDBRANCH   8  25
BRANCH   6  32
HETATM   32  C   UNL     1     -10.600   6.169  70.547  1.00  0.00    -0.253 C  
BRANCH  32  33
HETATM   33  C   UNL     1     -10.431   5.155  69.400  1.00  0.00    -0.203 C  
BRANCH  33  34
HETATM   34  C   UNL     1      -9.785   3.821  69.829  1.00  0.00    -0.123 C  
HETATM   35  O   UNL     1      -9.183   3.131  68.733  1.00  0.00    -0.137 OA 
HETATM   36  H   UNL     1      -8.785   2.310  68.997  1.00  0.00     0.000 HD 
BRANCH  34  37
HETATM   37  C   UNL     1      -8.672   4.075  70.861  1.00  0.00    -0.118 C  
BRANCH  37  38
HETATM   38  C   UNL     1      -8.873   3.309  72.180  1.00  0.00    -0.090 C  
HETATM   39  H   UNL     1      -7.737   2.501  73.596  1.00  0.00     0.000 HD 
HETATM   40  O   UNL     1      -7.613   2.974  72.782  1.00  0.00    -0.048 OA 
BRANCH  38  41
HETATM   41  C   UNL     1      -9.639   4.166  73.187  1.00  0.00    -0.147 C  
HETATM   42  C   UNL     1     -11.022   3.638  73.487  1.00  0.00    -0.239 C  
HETATM   43  O   UNL     1     -11.100   2.294  73.594  1.00  0.00    -0.172 OA 
HETATM   44  O   UNL     1     -11.983   4.366  73.690  1.00  0.00    -0.057 OA 
ENDBRANCH  38  41
ENDBRANCH  37  38
ENDBRANCH  34  37
ENDBRANCH  33  34
ENDBRANCH  32  33
ENDBRANCH   6  32
TORSDOF 10
ENDMDL
MODEL       97
REMARK 921   NORMALIZED FREE ENERGY PREDICTED BY IDOCK:   -4.89 KCAL/MOL
REMARK 922        TOTAL FREE ENERGY PREDICTED BY IDOCK:  -10.51 KCAL/MOL
REMARK 923 INTER-LIGAND FREE ENERGY PREDICTED BY IDOCK:   -7.00 KCAL/MOL
REMARK 924 INTRA-LIGAND FREE ENERGY PREDICTED BY IDOCK:   -3.51 KCAL/MOL
REMARK 927      BINDING AFFINITY PREDICTED BY RF-SCORE:    0.00 PKD
ROOT
HETATM    1  C   UNL     1     -10.404   7.389  72.177  1.00  0.00    -0.232 C  
HETATM    2  C   UNL     1      -9.560   8.354  71.341  1.00  0.00    -0.254 C  
HETATM    3  C   UNL     1      -9.271   7.909  69.901  1.00  0.00    -0.153 A  
HETATM    4  C   UNL     1      -8.331   8.806  72.134  1.00  0.00    -0.056 C  
HETATM    5  C   UNL     1      -9.164   6.642  69.296  1.00  0.00    -0.140 A  
HETATM    6  N   UNL     1      -9.195   8.858  68.872  1.00  0.00    -0.140 NA 
HETATM    7  C   UNL     1      -9.256   6.857  67.846  1.00  0.00    -0.124 A  
HETATM    8  C   UNL     1      -9.192   8.242  67.609  1.00  0.00    -0.137 A  
ENDROOT
BRANCH   5   9
HETATM    9  C   UNL     1      -9.110   5.313  69.982  1.00  0.00    -0.128 C  
HETATM   10  O   UNL     1      -9.996   4.480  69.792  1.00  0.00    -0.223 OA 
HETATM   11  N   UNL     1      -8.013   5.109  70.809  1.00  0.00    -0.094 N  
HETATM   12  H   UNL     1      -7.373   5.895  70.931  1.00  0.00     0.000 HD 
BRANCH  11  13
HETATM   13  C   UNL     1      -7.699   3.910  71.502  1.00  0.00    -0.061 A  
HETATM   14  C   UNL     1      -6.598   1.744  71.690  1.00  0.00    -0.019 A  
HETATM   15  C   UNL     1      -7.134   1.559  72.962  1.00  0.00    -0.023 A  
HETATM   16  C   UNL     1      -8.202   3.728  72.797  1.00  0.00    -0.090 A  
HETATM   17  C   UNL     1      -6.886   2.908  70.962  1.00  0.00    -0.032 A  
HETATM   18  C   UNL     1      -7.944   2.548  73.512  1.00  0.00    -0.058 A  
ENDBRANCH  11  13
ENDBRANCH   5   9
BRANCH   7  19
HETATM   19  C   UNL     1      -9.396   5.848  66.759  1.00  0.00    -0.144 A  
HETATM   20  C   UNL     1      -8.275   5.423  66.019  1.00  0.00    -0.116 A  
HETATM   21  C   UNL     1     -10.744   4.345  65.379  1.00  0.00    -0.145 A  
HETATM   22  C   UNL     1      -9.613   3.907  64.694  1.00  0.00    -0.175 A  
HETATM   23  C   UNL     1     -10.634   5.284  66.419  1.00  0.00    -0.338 A  
HETATM   24  C   UNL     1      -8.375   4.441  65.022  1.00  0.00    -0.117 A  
ENDBRANCH   7  19
BRANCH   8  25
HETATM   25  C   UNL     1      -9.092   9.006  66.311  1.00  0.00    -0.224 A  
HETATM   26  C   UNL     1     -10.212   9.602  65.708  1.00  0.00    -0.172 A  
HETATM   27  C   UNL     1      -7.784   9.887  64.437  1.00  0.00    -0.142 A  
HETATM   28  C   UNL     1      -7.869   9.157  65.636  1.00  0.00    -0.095 A  
HETATM   29  F   UNL     1      -8.810  11.279  62.826  1.00  0.00    -0.258 F  
HETATM   30  C   UNL     1     -10.119  10.410  64.572  1.00  0.00    -0.365 A  
HETATM   31  C   UNL     1      -8.902  10.538  63.936  1.00  0.00    -0.194 A  
ENDBRANCH   8  25
BRANCH   6  32
HETATM   32  C   UNL     1      -9.026  10.302  69.094  1.00  0.00    -0.180 C  
BRANCH  32  33
HETATM   33  C   UNL     1      -7.648  10.879  68.720  1.00  0.00    -0.121 C  
BRANCH  33  34
HETATM   34  C   UNL     1      -7.673  12.372  68.335  1.00  0.00    -0.144 C  
HETATM   35  O   UNL     1      -6.430  12.815  67.791  1.00  0.00    -0.102 OA 
HETATM   36  H   UNL     1      -6.445  13.735  67.553  1.00  0.00     0.000 HD 
BRANCH  34  37
HETATM   37  C   UNL     1      -8.745  12.628  67.261  1.00  0.00    -0.198 C  
BRANCH  37  38
HETATM   38  C   UNL     1      -9.855  13.590  67.720  1.00  0.00    -0.233 C  
HETATM   39  H   UNL     1     -10.083  15.031  69.070  1.00  0.00     0.000 HD 
HETATM   40  O   UNL     1      -9.398  14.437  68.786  1.00  0.00    -0.200 OA 
BRANCH  38  41
HETATM   41  C   UNL     1     -10.283  14.503  66.572  1.00  0.00    -0.282 C  
HETATM   42  C   UNL     1     -11.242  13.840  65.611  1.00  0.00    -0.302 C  
HETATM   43  O   UNL     1     -12.176  13.061  66.196  1.00  0.00    -0.422 OA 
HETATM   44  O   UNL     1     -11.225  14.048  64.406  1.00  0.00    -0.368 OA 
ENDBRANCH  38  41
ENDBRANCH  37  38
ENDBRANCH  34  37
ENDBRANCH  33  34
ENDBRANCH  32  33
ENDBRANCH   6  32
TORSDOF 10
ENDMDL
MODEL       98
REMARK 921   NORMALIZED FREE ENERGY PREDICTED BY IDOCK:   -4.86 KCAL/MOL
REMARK 922        TOTAL FREE ENERGY PREDICTED BY IDOCK:  -10.46 KCAL/MOL
REMARK 923 INTER-LIGAND FREE ENERGY PREDICTED BY IDOCK:   -7.12 KCAL/MOL
REMARK 924 INTRA-LIGAND FREE ENERGY PREDICTED BY IDOCK:   -3.34 KCAL/MOL
REMARK 927      BINDING AFFINITY PREDICTED BY RF-SCORE:    0.00 PKD
ROOT
HETATM    1  C   UNL     1      -6.504  10.841  70.272  1.00  0.00    -0.128 C  
HETATM    2  C   UNL     1      -7.116   9.454  70.063  1.00  0.00    -0.083 C  
HETATM    3  C   UNL     1      -7.766   9.213  68.694  1.00  0.00    -0.092 A  
HETATM    4  C   UNL     1      -7.985   9.072  71.264  1.00  0.00    -0.139 C  
HETATM    5  C   UNL     1      -8.375  10.075  67.761  1.00  0.00    -0.114 A  
HETATM    6  N   UNL     1      -7.698   7.947  68.095  1.00  0.00    -0.122 NA 
HETATM    7  C   UNL     1      -8.458   9.334  66.495  1.00  0.00    -0.131 A  
HETATM    8  C   UNL     1      -8.108   7.996  66.751  1.00  0.00    -0.107 A  
ENDROOT
BRANCH   5   9
HETATM    9  C   UNL     1      -8.743  11.511  67.960  1.00  0.00    -0.151 C  
HETATM   10  O   UNL     1      -9.674  11.815  68.706  1.00  0.00    -0.168 OA 
HETATM   11  N   UNL     1      -7.969  12.430  67.264  1.00  0.00    -0.177 N  
HETATM   12  H   UNL     1      -7.260  12.055  66.633  1.00  0.00     0.000 HD 
BRANCH  11  13
HETATM   13  C   UNL     1      -8.071  13.844  67.349  1.00  0.00    -0.178 A  
HETATM   14  C   UNL     1      -7.364  16.018  68.191  1.00  0.00    -0.133 A  
HETATM   15  C   UNL     1      -8.356  16.652  67.449  1.00  0.00    -0.190 A  
HETATM   16  C   UNL     1      -9.041  14.498  66.578  1.00  0.00    -0.248 A  
HETATM   17  C   UNL     1      -7.228  14.623  68.148  1.00  0.00    -0.127 A  
HETATM   18  C   UNL     1      -9.202  15.890  66.648  1.00  0.00    -0.280 A  
ENDBRANCH  11  13
ENDBRANCH   5   9
BRANCH   7  19
HETATM   19  C   UNL     1      -8.832   9.835  65.143  1.00  0.00    -0.213 A  
HETATM   20  C   UNL     1      -7.971   9.657  64.042  1.00  0.00    -0.140 A  
HETATM   21  C   UNL     1     -10.365  10.983  63.621  1.00  0.00    -0.415 A  
HETATM   22  C   UNL     1      -9.517  10.752  62.541  1.00  0.00    -0.279 A  
HETATM   23  C   UNL     1     -10.041  10.505  64.903  1.00  0.00    -0.403 A  
HETATM   24  C   UNL     1      -8.322  10.079  62.751  1.00  0.00    -0.167 A  
ENDBRANCH   7  19
BRANCH   8  25
HETATM   25  C   UNL     1      -8.168   6.783  65.855  1.00  0.00    -0.132 A  
HETATM   26  C   UNL     1      -9.312   5.972  65.775  1.00  0.00     0.013 A  
HETATM   27  C   UNL     1      -7.153   5.279  64.211  1.00  0.00    -0.050 A  
HETATM   28  C   UNL     1      -7.078   6.400  65.056  1.00  0.00    -0.060 A  
HETATM   29  F   UNL     1      -8.430   3.538  63.250  1.00  0.00    -0.086 F  
HETATM   30  C   UNL     1      -9.430   4.917  64.866  1.00  0.00    -0.001 A  
HETATM   31  C   UNL     1      -8.341   4.570  64.096  1.00  0.00    -0.115 A  
ENDBRANCH   8  25
BRANCH   6  32
HETATM   32  C   UNL     1      -7.353   6.713  68.815  1.00  0.00    -0.090 C  
BRANCH  32  33
HETATM   33  C   UNL     1      -8.424   6.184  69.788  1.00  0.00    -0.128 C  
BRANCH  33  34
HETATM   34  C   UNL     1      -9.577   5.423  69.102  1.00  0.00    -0.141 C  
HETATM   35  O   UNL     1      -9.857   4.174  69.734  1.00  0.00    -0.215 OA 
HETATM   36  H   UNL     1     -10.568   3.705  69.312  1.00  0.00     0.000 HD 
BRANCH  34  37
HETATM   37  C   UNL     1     -10.873   6.252  69.161  1.00  0.00    -0.403 C  
BRANCH  37  38
HETATM   38  C   UNL     1     -10.902   7.260  70.323  1.00  0.00    -0.245 C  
HETATM   39  H   UNL     1     -11.293   9.191  70.581  1.00  0.00     0.000 HD 
HETATM   40  O   UNL     1     -11.275   8.569  69.864  1.00  0.00    -0.172 OA 
BRANCH  38  41
HETATM   41  C   UNL     1     -11.931   6.841  71.372  1.00  0.00    -0.403 C  
HETATM   42  C   UNL     1     -11.351   5.965  72.458  1.00  0.00    -0.304 C  
HETATM   43  O   UNL     1     -10.119   6.328  72.874  1.00  0.00    -0.175 OA 
HETATM   44  O   UNL     1     -11.972   5.047  72.974  1.00  0.00    -0.226 OA 
ENDBRANCH  38  41
ENDBRANCH  37  38
ENDBRANCH  34  37
ENDBRANCH  33  34
ENDBRANCH  32  33
ENDBRANCH   6  32
TORSDOF 10
ENDMDL
MODEL       99
REMARK 921   NORMALIZED FREE ENERGY PREDICTED BY IDOCK:   -4.84 KCAL/MOL
REMARK 922        TOTAL FREE ENERGY PREDICTED BY IDOCK:  -10.42 KCAL/MOL
REMARK 923 INTER-LIGAND FREE ENERGY PREDICTED BY IDOCK:   -8.10 KCAL/MOL
REMARK 924 INTRA-LIGAND FREE ENERGY PREDICTED BY IDOCK:   -2.32 KCAL/MOL
REMARK 927      BINDING AFFINITY PREDICTED BY RF-SCORE:    0.00 PKD
ROOT
HETATM    1  C   UNL     1     -11.185  11.813  70.262  1.00  0.00     0.295 C  
HETATM    2  C   UNL     1     -11.547  10.366  69.920  1.00  0.00    -0.358 C  
HETATM    3  C   UNL     1     -11.018   9.847  68.577  1.00  0.00    -0.180 A  
HETATM    4  C   UNL     1     -13.039  10.123  70.162  1.00  0.00     0.191 C  
HETATM    5  C   UNL     1     -10.702  10.487  67.363  1.00  0.00    -0.334 A  
HETATM    6  N   UNL     1     -10.624   8.508  68.445  1.00  0.00    -0.160 NA 
HETATM    7  C   UNL     1      -9.893   9.540  66.585  1.00  0.00    -0.293 A  
HETATM    8  C   UNL     1      -9.929   8.296  67.241  1.00  0.00    -0.224 A  
ENDROOT
BRANCH   5   9
HETATM    9  C   UNL     1     -11.001  11.903  66.981  1.00  0.00    -0.278 C  
HETATM   10  O   UNL     1     -12.079  12.190  66.459  1.00  0.00    -0.627 OA 
HETATM   11  N   UNL     1     -10.001  12.824  67.261  1.00  0.00    -0.217 N  
HETATM   12  H   UNL     1      -9.129  12.457  67.644  1.00  0.00     0.000 HD 
BRANCH  11  13
HETATM   13  C   UNL     1     -10.079  14.228  67.066  1.00  0.00    -0.260 A  
HETATM   14  C   UNL     1     -10.701  16.479  67.761  1.00  0.00    -0.329 A  
HETATM   15  C   UNL     1     -10.184  17.009  66.583  1.00  0.00    -0.310 A  
HETATM   16  C   UNL     1      -9.528  14.778  65.901  1.00  0.00    -0.266 A  
HETATM   17  C   UNL     1     -10.657  15.097  67.997  1.00  0.00    -0.258 A  
HETATM   18  C   UNL     1      -9.604  16.157  65.647  1.00  0.00    -0.185 A  
ENDBRANCH  11  13
ENDBRANCH   5   9
BRANCH   7  19
HETATM   19  C   UNL     1      -9.137   9.775  65.323  1.00  0.00    -0.259 A  
HETATM   20  C   UNL     1      -7.731   9.871  65.329  1.00  0.00    -0.129 A  
HETATM   21  C   UNL     1      -9.045  10.153  62.908  1.00  0.00    -0.299 A  
HETATM   22  C   UNL     1      -7.653  10.197  62.935  1.00  0.00    -0.142 A  
HETATM   23  C   UNL     1      -9.778   9.916  64.083  1.00  0.00    -0.071 A  
HETATM   24  C   UNL     1      -6.995  10.045  64.147  1.00  0.00    -0.124 A  
ENDBRANCH   7  19
BRANCH   8  25
HETATM   25  C   UNL     1      -9.404   6.949  66.809  1.00  0.00    -0.190 A  
HETATM   26  C   UNL     1     -10.256   5.928  66.357  1.00  0.00    -0.163 A  
HETATM   27  C   UNL     1      -7.553   5.394  66.416  1.00  0.00    -0.088 A  
HETATM   28  C   UNL     1      -8.033   6.646  66.840  1.00  0.00    -0.109 A  
HETATM   29  F   UNL     1      -7.966   3.286  65.431  1.00  0.00    -0.082 F  
HETATM   30  C   UNL     1      -9.781   4.719  65.842  1.00  0.00    -0.203 A  
HETATM   31  C   UNL     1      -8.428   4.456  65.886  1.00  0.00    -0.114 A  
ENDBRANCH   8  25
BRANCH   6  32
HETATM   32  C   UNL     1     -10.992   7.444  69.390  1.00  0.00    -0.108 C  
BRANCH  32  33
HETATM   33  C   UNL     1      -9.879   6.434  69.728  1.00  0.00    -0.189 C  
BRANCH  33  34
HETATM   34  C   UNL     1      -9.123   6.744  71.037  1.00  0.00    -0.156 C  
HETATM   35  O   UNL     1      -7.707   6.757  70.857  1.00  0.00    -0.090 OA 
HETATM   36  H   UNL     1      -7.242   6.948  71.663  1.00  0.00     0.000 HD 
BRANCH  34  37
HETATM   37  C   UNL     1      -9.518   8.135  71.564  1.00  0.00    -0.222 C  
BRANCH  37  38
HETATM   38  C   UNL     1     -10.289   8.090  72.894  1.00  0.00    -0.327 C  
HETATM   39  H   UNL     1     -12.123   7.639  73.513  1.00  0.00     0.000 HD 
HETATM   40  O   UNL     1     -11.647   7.666  72.692  1.00  0.00    -0.339 OA 
BRANCH  38  41
HETATM   41  C   UNL     1      -9.644   7.093  73.855  1.00  0.00    -0.319 C  
HETATM   42  C   UNL     1      -8.255   7.497  74.288  1.00  0.00    -0.200 C  
HETATM   43  O   UNL     1      -8.104   8.817  74.533  1.00  0.00    -0.283 OA 
HETATM   44  O   UNL     1      -7.355   6.690  74.476  1.00  0.00    -0.101 OA 
ENDBRANCH  38  41
ENDBRANCH  37  38
ENDBRANCH  34  37
ENDBRANCH  33  34
ENDBRANCH  32  33
ENDBRANCH   6  32
TORSDOF 10
ENDMDL
MODEL      100
REMARK 921   NORMALIZED FREE ENERGY PREDICTED BY IDOCK:   -4.83 KCAL/MOL
REMARK 922        TOTAL FREE ENERGY PREDICTED BY IDOCK:  -10.41 KCAL/MOL
REMARK 923 INTER-LIGAND FREE ENERGY PREDICTED BY IDOCK:   -7.91 KCAL/MOL
REMARK 924 INTRA-LIGAND FREE ENERGY PREDICTED BY IDOCK:   -2.50 KCAL/MOL
REMARK 927      BINDING AFFINITY PREDICTED BY RF-SCORE:    0.00 PKD
ROOT
HETATM    1  C   UNL     1      -9.621   5.182  68.810  1.00  0.00    -0.198 C  
HETATM    2  C   UNL     1      -8.855   6.413  69.298  1.00  0.00    -0.128 C  
HETATM    3  C   UNL     1      -8.695   7.547  68.277  1.00  0.00    -0.123 A  
HETATM    4  C   UNL     1      -7.560   5.988  69.996  1.00  0.00    -0.087 C  
HETATM    5  C   UNL     1      -8.643   7.564  66.870  1.00  0.00    -0.124 A  
HETATM    6  N   UNL     1      -8.712   8.883  68.700  1.00  0.00    -0.133 NA 
HETATM    7  C   UNL     1      -8.864   8.956  66.457  1.00  0.00    -0.160 A  
HETATM    8  C   UNL     1      -8.822   9.763  67.609  1.00  0.00    -0.125 A  
ENDROOT
BRANCH   5   9
HETATM    9  C   UNL     1      -8.528   6.387  65.953  1.00  0.00    -0.147 C  
HETATM   10  O   UNL     1      -7.482   6.180  65.338  1.00  0.00    -0.077 OA 
HETATM   11  N   UNL     1      -9.656   5.581  65.868  1.00  0.00    -0.304 N  
HETATM   12  H   UNL     1     -10.483   5.886  66.383  1.00  0.00     0.000 HD 
BRANCH  11  13
HETATM   13  C   UNL     1      -9.765   4.372  65.132  1.00  0.00    -0.178 A  
HETATM   14  C   UNL     1      -9.324   2.001  64.786  1.00  0.00    -0.102 A  
HETATM   15  C   UNL     1     -10.043   2.019  63.595  1.00  0.00    -0.133 A  
HETATM   16  C   UNL     1     -10.517   4.368  63.950  1.00  0.00     0.165 A  
HETATM   17  C   UNL     1      -9.179   3.172  65.545  1.00  0.00    -0.145 A  
HETATM   18  C   UNL     1     -10.633   3.206  63.171  1.00  0.00    -0.229 A  
ENDBRANCH  11  13
ENDBRANCH   5   9
BRANCH   7  19
HETATM   19  C   UNL     1      -9.101   9.499  65.090  1.00  0.00    -0.281 A  
HETATM   20  C   UNL     1      -8.260   9.145  64.016  1.00  0.00    -0.168 A  
HETATM   21  C   UNL     1     -10.348  10.893  63.514  1.00  0.00    -0.342 A  
HETATM   22  C   UNL     1      -9.530  10.490  62.461  1.00  0.00    -0.288 A  
HETATM   23  C   UNL     1     -10.154  10.382  64.809  1.00  0.00    -0.387 A  
HETATM   24  C   UNL     1      -8.490   9.606  62.712  1.00  0.00    -0.179 A  
ENDBRANCH   7  19
BRANCH   8  25
HETATM   25  C   UNL     1      -8.837  11.265  67.750  1.00  0.00    -0.141 A  
HETATM   26  C   UNL     1      -7.696  12.048  67.504  1.00  0.00    -0.155 A  
HETATM   27  C   UNL     1     -10.002  13.361  68.246  1.00  0.00    -0.240 A  
HETATM   28  C   UNL     1      -9.995  11.960  68.138  1.00  0.00    -0.197 A  
HETATM   29  F   UNL     1      -8.899  15.430  67.946  1.00  0.00    -0.163 F  
HETATM   30  C   UNL     1      -7.721  13.445  67.513  1.00  0.00    -0.182 A  
HETATM   31  C   UNL     1      -8.876  14.094  67.897  1.00  0.00    -0.182 A  
ENDBRANCH   8  25
BRANCH   6  32
HETATM   32  C   UNL     1      -8.522   9.308  70.095  1.00  0.00    -0.191 C  
BRANCH  32  33
HETATM   33  C   UNL     1      -9.792   9.325  70.967  1.00  0.00    -0.355 C  
BRANCH  33  34
HETATM   34  C   UNL     1      -9.790   8.280  72.103  1.00  0.00    -0.272 C  
HETATM   35  O   UNL     1      -9.021   8.702  73.229  1.00  0.00    -0.288 OA 
HETATM   36  H   UNL     1      -9.020   8.059  73.928  1.00  0.00     0.000 HD 
BRANCH  34  37
HETATM   37  C   UNL     1     -11.224   8.039  72.608  1.00  0.00    -0.462 C  
BRANCH  37  38
HETATM   38  C   UNL     1     -11.816   6.694  72.151  1.00  0.00    -0.298 C  
HETATM   39  H   UNL     1     -12.534   5.900  70.477  1.00  0.00     0.000 HD 
HETATM   40  O   UNL     1     -12.168   6.729  70.759  1.00  0.00    -0.390 OA 
BRANCH  38  41
HETATM   41  C   UNL     1     -10.797   5.570  72.330  1.00  0.00    -0.297 C  
HETATM   42  C   UNL     1     -11.224   4.535  73.343  1.00  0.00    -0.315 C  
HETATM   43  O   UNL     1     -12.535   4.214  73.301  1.00  0.00     0.268 OA 
HETATM   44  O   UNL     1     -10.438   3.975  74.094  1.00  0.00    -0.177 OA 
ENDBRANCH  38  41
ENDBRANCH  37  38
ENDBRANCH  34  37
ENDBRANCH  33  34
ENDBRANCH  32  33
ENDBRANCH   6  32
TORSDOF 10
ENDMDL
MODEL      101
REMARK 921   NORMALIZED FREE ENERGY PREDICTED BY IDOCK:   -4.66 KCAL/MOL
REMARK 922        TOTAL FREE ENERGY PREDICTED BY IDOCK:  -10.14 KCAL/MOL
REMARK 923 INTER-LIGAND FREE ENERGY PREDICTED BY IDOCK:   -7.32 KCAL/MOL
REMARK 924 INTRA-LIGAND FREE ENERGY PREDICTED BY IDOCK:   -2.81 KCAL/MOL
REMARK 927      BINDING AFFINITY PREDICTED BY RF-SCORE:    0.00 PKD
ROOT
HETATM    1  C   UNL     1     -11.430  11.511  70.808  1.00  0.00     0.470 C  
HETATM    2  C   UNL     1     -11.750  10.071  70.403  1.00  0.00    -0.365 C  
HETATM    3  C   UNL     1     -11.200   9.624  69.042  1.00  0.00     0.011 A  
HETATM    4  C   UNL     1     -13.236   9.776  70.624  1.00  0.00    -0.066 C  
HETATM    5  C   UNL     1     -10.895  10.325  67.859  1.00  0.00    -0.337 A  
HETATM    6  N   UNL     1     -10.767   8.304  68.855  1.00  0.00    -0.127 NA 
HETATM    7  C   UNL     1     -10.055   9.435  67.046  1.00  0.00    -0.304 A  
HETATM    8  C   UNL     1     -10.060   8.164  67.649  1.00  0.00    -0.207 A  
ENDROOT
BRANCH   5   9
HETATM    9  C   UNL     1     -11.232  11.746  67.535  1.00  0.00    -0.291 C  
HETATM   10  O   UNL     1     -12.150  12.004  66.756  1.00  0.00    -0.613 OA 
HETATM   11  N   UNL     1     -10.456  12.707  68.171  1.00  0.00    -0.224 N  
HETATM   12  H   UNL     1      -9.687  12.369  68.751  1.00  0.00     0.000 HD 
BRANCH  11  13
HETATM   13  C   UNL     1     -10.632  14.113  68.088  1.00  0.00    -0.246 A  
HETATM   14  C   UNL     1     -11.264  16.274  69.019  1.00  0.00    -0.326 A  
HETATM   15  C   UNL     1     -10.945  16.907  67.822  1.00  0.00    -0.212 A  
HETATM   16  C   UNL     1     -10.279  14.768  66.900  1.00  0.00    -0.257 A  
HETATM   17  C   UNL     1     -11.116  14.885  69.148  1.00  0.00    -0.279 A  
HETATM   18  C   UNL     1     -10.460  16.152  66.757  1.00  0.00    -0.294 A  
ENDBRANCH  11  13
ENDBRANCH   5   9
BRANCH   7  19
HETATM   19  C   UNL     1      -9.299   9.745  65.800  1.00  0.00    -0.278 A  
HETATM   20  C   UNL     1      -7.892   9.803  65.804  1.00  0.00    -0.110 A  
HETATM   21  C   UNL     1      -9.209  10.301  63.420  1.00  0.00    -0.321 A  
HETATM   22  C   UNL     1      -7.816  10.307  63.441  1.00  0.00    -0.136 A  
HETATM   23  C   UNL     1      -9.943   9.996  64.579  1.00  0.00    -0.151 A  
HETATM   24  C   UNL     1      -7.157  10.048  64.634  1.00  0.00    -0.140 A  
ENDBRANCH   7  19
BRANCH   8  25
HETATM   25  C   UNL     1      -9.495   6.852  67.163  1.00  0.00    -0.168 A  
HETATM   26  C   UNL     1      -8.111   6.625  67.070  1.00  0.00    -0.113 A  
HETATM   27  C   UNL     1      -9.787   4.563  66.342  1.00  0.00    -0.245 A  
HETATM   28  C   UNL     1     -10.326   5.788  66.774  1.00  0.00    -0.312 A  
HETATM   29  F   UNL     1      -7.904   3.176  66.004  1.00  0.00    -0.080 F  
HETATM   30  C   UNL     1      -7.569   5.381  66.736  1.00  0.00    -0.088 A  
HETATM   31  C   UNL     1      -8.415   4.359  66.362  1.00  0.00    -0.112 A  
ENDBRANCH   8  25
BRANCH   6  32
HETATM   32  C   UNL     1     -11.110   7.190  69.753  1.00  0.00    -0.210 C  
BRANCH  32  33
HETATM   33  C   UNL     1     -10.229   7.047  71.007  1.00  0.00    -0.209 C  
BRANCH  33  34
HETATM   34  C   UNL     1     -10.424   5.718  71.766  1.00  0.00    -0.228 C  
HETATM   35  O   UNL     1     -11.714   5.620  72.371  1.00  0.00    -0.277 OA 
HETATM   36  H   UNL     1     -11.834   4.801  72.837  1.00  0.00     0.000 HD 
BRANCH  34  37
HETATM   37  C   UNL     1     -10.295   4.528  70.798  1.00  0.00    -0.055 C  
BRANCH  37  38
HETATM   38  C   UNL     1      -9.039   3.674  71.042  1.00  0.00    -0.108 C  
HETATM   39  H   UNL     1      -8.507   1.766  70.880  1.00  0.00     0.000 HD 
HETATM   40  O   UNL     1      -9.282   2.293  70.730  1.00  0.00    -0.104 OA 
BRANCH  38  41
HETATM   41  C   UNL     1      -7.890   4.142  70.149  1.00  0.00    -0.051 C  
HETATM   42  C   UNL     1      -7.107   5.290  70.741  1.00  0.00    -0.064 C  
HETATM   43  O   UNL     1      -6.892   5.198  72.071  1.00  0.00    -0.056 OA 
HETATM   44  O   UNL     1      -6.638   6.194  70.064  1.00  0.00    -0.041 OA 
ENDBRANCH  38  41
ENDBRANCH  37  38
ENDBRANCH  34  37
ENDBRANCH  33  34
ENDBRANCH  32  33
ENDBRANCH   6  32
TORSDOF 10
ENDMDL
MODEL      102
REMARK 921   NORMALIZED FREE ENERGY PREDICTED BY IDOCK:   -4.65 KCAL/MOL
REMARK 922        TOTAL FREE ENERGY PREDICTED BY IDOCK:  -10.12 KCAL/MOL
REMARK 923 INTER-LIGAND FREE ENERGY PREDICTED BY IDOCK:   -7.34 KCAL/MOL
REMARK 924 INTRA-LIGAND FREE ENERGY PREDICTED BY IDOCK:   -2.78 KCAL/MOL
REMARK 927      BINDING AFFINITY PREDICTED BY RF-SCORE:    0.00 PKD
ROOT
HETATM    1  C   UNL     1      -5.438   8.818  68.544  1.00  0.00    -0.038 C  
HETATM    2  C   UNL     1      -6.109   9.884  67.675  1.00  0.00    -0.054 C  
HETATM    3  C   UNL     1      -7.567  10.208  68.025  1.00  0.00    -0.088 A  
HETATM    4  C   UNL     1      -5.851   9.597  66.193  1.00  0.00    -0.061 C  
HETATM    5  C   UNL     1      -8.598   9.452  68.614  1.00  0.00    -0.123 A  
HETATM    6  N   UNL     1      -8.050  11.517  67.886  1.00  0.00    -0.125 NA 
HETATM    7  C   UNL     1      -9.633  10.406  69.035  1.00  0.00    -0.212 A  
HETATM    8  C   UNL     1      -9.306  11.665  68.500  1.00  0.00    -0.167 A  
ENDROOT
BRANCH   5   9
HETATM    9  C   UNL     1      -8.598   7.982  68.892  1.00  0.00    -0.131 C  
HETATM   10  O   UNL     1      -8.481   7.176  67.969  1.00  0.00    -0.121 OA 
HETATM   11  N   UNL     1      -8.730   7.624  70.228  1.00  0.00    -0.143 N  
HETATM   12  H   UNL     1      -8.877   8.381  70.896  1.00  0.00     0.000 HD 
BRANCH  11  13
HETATM   13  C   UNL     1      -8.679   6.304  70.749  1.00  0.00    -0.136 A  
HETATM   14  C   UNL     1      -9.720   4.238  71.512  1.00  0.00    -0.244 A  
HETATM   15  C   UNL     1      -8.472   3.686  71.787  1.00  0.00    -0.100 A  
HETATM   16  C   UNL     1      -7.428   5.724  70.994  1.00  0.00    -0.090 A  
HETATM   17  C   UNL     1      -9.823   5.542  71.005  1.00  0.00    -0.238 A  
HETATM   18  C   UNL     1      -7.324   4.433  71.536  1.00  0.00    -0.056 A  
ENDBRANCH  11  13
ENDBRANCH   5   9
BRANCH   7  19
HETATM   19  C   UNL     1     -10.837  10.165  69.878  1.00  0.00    -0.347 A  
HETATM   20  C   UNL     1     -10.745   9.432  71.078  1.00  0.00    -0.407 A  
HETATM   21  C   UNL     1     -13.231  10.392  70.326  1.00  0.00     0.110 A  
HETATM   22  C   UNL     1     -13.104   9.704  71.530  1.00  0.00    -0.488 A  
HETATM   23  C   UNL     1     -12.106  10.645  69.522  1.00  0.00    -0.285 A  
HETATM   24  C   UNL     1     -11.856   9.232  71.911  1.00  0.00    -0.426 A  
ENDBRANCH   7  19
BRANCH   8  25
HETATM   25  C   UNL     1     -10.089  12.955  68.492  1.00  0.00    -0.193 A  
HETATM   26  C   UNL     1     -10.978  13.280  67.454  1.00  0.00    -0.287 A  
HETATM   27  C   UNL     1     -10.716  15.090  69.515  1.00  0.00    -0.266 A  
HETATM   28  C   UNL     1      -9.966  13.901  69.524  1.00  0.00     0.529 A  
HETATM   29  F   UNL     1     -12.405  16.422  68.537  1.00  0.00    -0.006 F  
HETATM   30  C   UNL     1     -11.798  14.411  67.487  1.00  0.00    -0.418 A  
HETATM   31  C   UNL     1     -11.652  15.317  68.516  1.00  0.00    -0.352 A  
ENDBRANCH   8  25
BRANCH   6  32
HETATM   32  C   UNL     1      -7.380  12.563  67.099  1.00  0.00    -0.063 C  
BRANCH  32  33
HETATM   33  C   UNL     1      -6.564  13.589  67.908  1.00  0.00    -0.154 C  
BRANCH  33  34
HETATM   34  C   UNL     1      -6.915  15.059  67.598  1.00  0.00    -0.182 C  
HETATM   35  O   UNL     1      -5.802  15.785  67.078  1.00  0.00    -0.316 OA 
HETATM   36  H   UNL     1      -6.018  16.691  66.886  1.00  0.00     0.000 HD 
BRANCH  34  37
HETATM   37  C   UNL     1      -8.028  15.130  66.538  1.00  0.00     0.263 C  
BRANCH  37  38
HETATM   38  C   UNL     1      -8.476  16.566  66.215  1.00  0.00    -0.328 C  
HETATM   39  H   UNL     1     -10.001  17.458  65.306  1.00  0.00     0.000 HD 
HETATM   40  O   UNL     1      -9.725  16.572  65.506  1.00  0.00    -0.524 OA 
BRANCH  38  41
HETATM   41  C   UNL     1      -8.685  17.365  67.500  1.00  0.00    -0.221 C  
HETATM   42  C   UNL     1      -8.053  18.736  67.458  1.00  0.00    -0.256 C  
HETATM   43  O   UNL     1      -8.177  19.376  66.275  1.00  0.00    -0.310 OA 
HETATM   44  O   UNL     1      -7.535  19.261  68.433  1.00  0.00    -0.284 OA 
ENDBRANCH  38  41
ENDBRANCH  37  38
ENDBRANCH  34  37
ENDBRANCH  33  34
ENDBRANCH  32  33
ENDBRANCH   6  32
TORSDOF 10
ENDMDL
MODEL      103
REMARK 921   NORMALIZED FREE ENERGY PREDICTED BY IDOCK:   -4.62 KCAL/MOL
REMARK 922        TOTAL FREE ENERGY PREDICTED BY IDOCK:  -10.08 KCAL/MOL
REMARK 923 INTER-LIGAND FREE ENERGY PREDICTED BY IDOCK:   -8.35 KCAL/MOL
REMARK 924 INTRA-LIGAND FREE ENERGY PREDICTED BY IDOCK:   -1.73 KCAL/MOL
REMARK 927      BINDING AFFINITY PREDICTED BY RF-SCORE:    0.00 PKD
ROOT
HETATM    1  C   UNL     1     -12.373  14.734  67.456  1.00  0.00     0.198 C  
HETATM    2  C   UNL     1     -11.061  13.991  67.199  1.00  0.00    -0.313 C  
HETATM    3  C   UNL     1     -10.848  12.711  68.017  1.00  0.00    -0.225 A  
HETATM    4  C   UNL     1      -9.885  14.971  67.220  1.00  0.00    -0.228 C  
HETATM    5  C   UNL     1     -11.311  12.299  69.282  1.00  0.00    -0.317 A  
HETATM    6  N   UNL     1     -10.177  11.617  67.454  1.00  0.00    -0.201 NA 
HETATM    7  C   UNL     1     -11.094  10.848  69.358  1.00  0.00    -0.317 A  
HETATM    8  C   UNL     1     -10.317  10.466  68.249  1.00  0.00    -0.171 A  
ENDROOT
BRANCH   5   9
HETATM    9  C   UNL     1     -12.016  13.133  70.305  1.00  0.00    -0.292 C  
HETATM   10  O   UNL     1     -13.229  13.011  70.475  1.00  0.00     0.235 OA 
HETATM   11  N   UNL     1     -11.213  14.012  71.019  1.00  0.00    -0.012 N  
HETATM   12  H   UNL     1     -10.230  14.064  70.749  1.00  0.00     0.000 HD 
BRANCH  11  13
HETATM   13  C   UNL     1     -11.631  14.847  72.089  1.00  0.00    -0.199 A  
HETATM   14  C   UNL     1     -12.112  17.022  73.077  1.00  0.00     0.309 A  
HETATM   15  C   UNL     1     -12.480  16.419  74.276  1.00  0.00    -0.552 A  
HETATM   16  C   UNL     1     -12.040  14.250  73.289  1.00  0.00     0.183 A  
HETATM   17  C   UNL     1     -11.682  16.241  71.993  1.00  0.00    -0.528 A  
HETATM   18  C   UNL     1     -12.436  15.032  74.385  1.00  0.00    -0.383 A  
ENDBRANCH  11  13
ENDBRANCH   5   9
BRANCH   7  19
HETATM   19  C   UNL     1     -11.576   9.884  70.387  1.00  0.00    -0.356 A  
HETATM   20  C   UNL     1     -12.790  10.101  71.068  1.00  0.00    -0.474 A  
HETATM   21  C   UNL     1     -11.320   7.845  71.713  1.00  0.00    -0.309 A  
HETATM   22  C   UNL     1     -12.546   8.059  72.338  1.00  0.00    -0.218 A  
HETATM   23  C   UNL     1     -10.852   8.732  70.728  1.00  0.00    -0.282 A  
HETATM   24  C   UNL     1     -13.287   9.184  72.006  1.00  0.00    -0.507 A  
ENDBRANCH   7  19
BRANCH   8  25
HETATM   25  C   UNL     1      -9.682   9.140  67.912  1.00  0.00    -0.182 A  
HETATM   26  C   UNL     1      -8.348   8.848  68.241  1.00  0.00    -0.125 A  
HETATM   27  C   UNL     1      -9.796   6.887  66.958  1.00  0.00    -0.228 A  
HETATM   28  C   UNL     1     -10.393   8.127  67.248  1.00  0.00    -0.373 A  
HETATM   29  F   UNL     1      -7.958   5.418  67.165  1.00  0.00    -0.098 F  
HETATM   30  C   UNL     1      -7.778   7.587  68.045  1.00  0.00    -0.116 A  
HETATM   31  C   UNL     1      -8.507   6.616  67.392  1.00  0.00    -0.120 A  
ENDBRANCH   8  25
BRANCH   6  32
HETATM   32  C   UNL     1      -9.340  11.697  66.247  1.00  0.00    -0.216 C  
BRANCH  32  33
HETATM   33  C   UNL     1     -10.097  11.887  64.920  1.00  0.00    -0.296 C  
BRANCH  33  34
HETATM   34  C   UNL     1     -10.319  10.581  64.129  1.00  0.00    -0.098 C  
HETATM   35  O   UNL     1     -10.501  10.815  62.732  1.00  0.00    -0.763 OA 
HETATM   36  H   UNL     1     -10.638  10.011  62.245  1.00  0.00     0.000 HD 
BRANCH  34  37
HETATM   37  C   UNL     1      -9.096   9.658  64.269  1.00  0.00    -0.267 C  
BRANCH  37  38
HETATM   38  C   UNL     1      -8.090   9.793  63.113  1.00  0.00    -0.149 C  
HETATM   39  H   UNL     1      -7.443  11.219  61.889  1.00  0.00     0.000 HD 
HETATM   40  O   UNL     1      -8.064  11.135  62.603  1.00  0.00    -0.092 OA 
BRANCH  38  41
HETATM   41  C   UNL     1      -6.676   9.466  63.591  1.00  0.00    -0.095 C  
HETATM   42  C   UNL     1      -6.336   7.998  63.484  1.00  0.00    -0.071 C  
HETATM   43  O   UNL     1      -6.793   7.395  62.365  1.00  0.00    -0.068 OA 
HETATM   44  O   UNL     1      -5.641   7.414  64.303  1.00  0.00    -0.033 OA 
ENDBRANCH  38  41
ENDBRANCH  37  38
ENDBRANCH  34  37
ENDBRANCH  33  34
ENDBRANCH  32  33
ENDBRANCH   6  32
TORSDOF 10
ENDMDL
MODEL      104
REMARK 921   NORMALIZED FREE ENERGY PREDICTED BY IDOCK:   -4.59 KCAL/MOL
REMARK 922        TOTAL FREE ENERGY PREDICTED BY IDOCK:  -10.02 KCAL/MOL
REMARK 923 INTER-LIGAND FREE ENERGY PREDICTED BY IDOCK:   -7.20 KCAL/MOL
REMARK 924 INTRA-LIGAND FREE ENERGY PREDICTED BY IDOCK:   -2.83 KCAL/MOL
REMARK 927      BINDING AFFINITY PREDICTED BY RF-SCORE:    0.00 PKD
ROOT
HETATM    1  C   UNL     1      -6.195  12.396  70.745  1.00  0.00     0.558 C  
HETATM    2  C   UNL     1      -6.488  12.958  69.353  1.00  0.00    -0.091 C  
HETATM    3  C   UNL     1      -7.221  12.011  68.394  1.00  0.00    -0.092 A  
HETATM    4  C   UNL     1      -5.234  13.617  68.773  1.00  0.00    -0.074 C  
HETATM    5  C   UNL     1      -7.267  10.607  68.287  1.00  0.00    -0.083 A  
HETATM    6  N   UNL     1      -8.148  12.519  67.473  1.00  0.00    -0.164 NA 
HETATM    7  C   UNL     1      -8.421  10.286  67.437  1.00  0.00    -0.125 A  
HETATM    8  C   UNL     1      -8.898  11.488  66.881  1.00  0.00    -0.182 A  
ENDROOT
BRANCH   5   9
HETATM    9  C   UNL     1      -6.406   9.616  69.005  1.00  0.00    -0.041 C  
HETATM   10  O   UNL     1      -5.226   9.472  68.685  1.00  0.00    -0.034 OA 
HETATM   11  N   UNL     1      -7.029   8.908  70.025  1.00  0.00    -0.042 N  
HETATM   12  H   UNL     1      -8.027   9.074  70.160  1.00  0.00     0.000 HD 
BRANCH  11  13
HETATM   13  C   UNL     1      -6.407   7.975  70.896  1.00  0.00    -0.037 A  
HETATM   14  C   UNL     1      -5.752   5.718  71.540  1.00  0.00    -0.021 A  
HETATM   15  C   UNL     1      -5.142   6.202  72.693  1.00  0.00    -0.023 A  
HETATM   16  C   UNL     1      -5.758   8.453  72.042  1.00  0.00    -0.045 A  
HETATM   17  C   UNL     1      -6.389   6.599  70.652  1.00  0.00    -0.040 A  
HETATM   18  C   UNL     1      -5.153   7.570  72.950  1.00  0.00    -0.037 A  
ENDBRANCH  11  13
ENDBRANCH   5   9
BRANCH   7  19
HETATM   19  C   UNL     1      -9.038   8.959  67.162  1.00  0.00    -0.160 A  
HETATM   20  C   UNL     1      -8.458   8.069  66.236  1.00  0.00    -0.138 A  
HETATM   21  C   UNL     1     -10.787   7.285  67.511  1.00  0.00    -0.284 A  
HETATM   22  C   UNL     1     -10.168   6.406  66.626  1.00  0.00    -0.216 A  
HETATM   23  C   UNL     1     -10.215   8.536  67.798  1.00  0.00    -0.283 A  
HETATM   24  C   UNL     1      -8.995   6.796  65.995  1.00  0.00    -0.129 A  
ENDBRANCH   7  19
BRANCH   8  25
HETATM   25  C   UNL     1      -9.955  11.725  65.830  1.00  0.00    -0.266 A  
HETATM   26  C   UNL     1     -11.272  12.077  66.165  1.00  0.00    -0.394 A  
HETATM   27  C   UNL     1     -10.662  11.844  63.489  1.00  0.00    -0.504 A  
HETATM   28  C   UNL     1      -9.674  11.601  64.459  1.00  0.00    -0.203 A  
HETATM   29  F   UNL     1     -12.845  12.568  62.946  1.00  0.00    -0.365 F  
HETATM   30  C   UNL     1     -12.232  12.415  65.208  1.00  0.00    -0.418 A  
HETATM   31  C   UNL     1     -11.921  12.284  63.871  1.00  0.00    -0.491 A  
ENDBRANCH   8  25
BRANCH   6  32
HETATM   32  C   UNL     1      -8.241  13.937  67.095  1.00  0.00    -0.109 C  
BRANCH  32  33
HETATM   33  C   UNL     1      -9.554  14.646  67.476  1.00  0.00    -0.206 C  
BRANCH  33  34
HETATM   34  C   UNL     1      -9.439  16.182  67.561  1.00  0.00    -0.223 C  
HETATM   35  O   UNL     1     -10.712  16.817  67.690  1.00  0.00    -0.339 OA 
HETATM   36  H   UNL     1     -10.641  17.763  67.743  1.00  0.00     0.000 HD 
BRANCH  34  37
HETATM   37  C   UNL     1      -8.612  16.588  68.794  1.00  0.00    -0.262 C  
BRANCH  37  38
HETATM   38  C   UNL     1      -7.974  17.982  68.672  1.00  0.00    -0.294 C  
HETATM   39  H   UNL     1      -6.433  18.965  69.453  1.00  0.00     0.000 HD 
HETATM   40  O   UNL     1      -6.827  18.104  69.528  1.00  0.00    -0.180 OA 
BRANCH  38  41
HETATM   41  C   UNL     1      -7.498  18.231  67.242  1.00  0.00    -0.222 C  
HETATM   42  C   UNL     1      -7.954  19.560  66.686  1.00  0.00    -0.293 C  
HETATM   43  O   UNL     1      -7.910  20.583  67.566  1.00  0.00    -0.313 OA 
HETATM   44  O   UNL     1      -8.267  19.718  65.515  1.00  0.00    -0.333 OA 
ENDBRANCH  38  41
ENDBRANCH  37  38
ENDBRANCH  34  37
ENDBRANCH  33  34
ENDBRANCH  32  33
ENDBRANCH   6  32
TORSDOF 10
ENDMDL
MODEL      105
REMARK 921   NORMALIZED FREE ENERGY PREDICTED BY IDOCK:   -4.57 KCAL/MOL
REMARK 922        TOTAL FREE ENERGY PREDICTED BY IDOCK:   -9.99 KCAL/MOL
REMARK 923 INTER-LIGAND FREE ENERGY PREDICTED BY IDOCK:   -8.82 KCAL/MOL
REMARK 924 INTRA-LIGAND FREE ENERGY PREDICTED BY IDOCK:   -1.17 KCAL/MOL
REMARK 927      BINDING AFFINITY PREDICTED BY RF-SCORE:    0.00 PKD
ROOT
HETATM    1  C   UNL     1     -11.355   7.257  69.469  1.00  0.00     0.016 C  
HETATM    2  C   UNL     1     -10.932   8.692  69.791  1.00  0.00    -0.132 C  
HETATM    3  C   UNL     1     -10.137   9.414  68.695  1.00  0.00    -0.190 A  
HETATM    4  C   UNL     1     -10.309   8.759  71.188  1.00  0.00    -0.315 C  
HETATM    5  C   UNL     1      -9.280   8.954  67.676  1.00  0.00    -0.151 A  
HETATM    6  N   UNL     1     -10.305  10.791  68.494  1.00  0.00    -0.176 NA 
HETATM    7  C   UNL     1      -9.128  10.059  66.722  1.00  0.00    -0.159 A  
HETATM    8  C   UNL     1      -9.706  11.208  67.293  1.00  0.00    -0.166 A  
ENDROOT
BRANCH   5   9
HETATM    9  C   UNL     1      -8.736   7.570  67.507  1.00  0.00    -0.125 C  
HETATM   10  O   UNL     1      -8.176   7.248  66.459  1.00  0.00    -0.110 OA 
HETATM   11  N   UNL     1      -8.904   6.722  68.594  1.00  0.00    -0.124 N  
HETATM   12  H   UNL     1      -9.433   7.086  69.386  1.00  0.00     0.000 HD 
BRANCH  11  13
HETATM   13  C   UNL     1      -8.408   5.396  68.704  1.00  0.00    -0.093 A  
HETATM   14  C   UNL     1      -6.712   3.766  69.338  1.00  0.00    -0.037 A  
HETATM   15  C   UNL     1      -7.512   2.724  68.881  1.00  0.00    -0.048 A  
HETATM   16  C   UNL     1      -9.219   4.335  68.282  1.00  0.00    -0.190 A  
HETATM   17  C   UNL     1      -7.153   5.094  69.242  1.00  0.00    -0.056 A  
HETATM   18  C   UNL     1      -8.764   3.009  68.343  1.00  0.00    -0.139 A  
ENDBRANCH  11  13
ENDBRANCH   5   9
BRANCH   7  19
HETATM   19  C   UNL     1      -8.495  10.049  65.373  1.00  0.00    -0.158 A  
HETATM   20  C   UNL     1      -7.104  10.214  65.227  1.00  0.00    -0.137 A  
HETATM   21  C   UNL     1      -8.625   9.891  62.936  1.00  0.00    -0.194 A  
HETATM   22  C   UNL     1      -7.242  10.010  62.822  1.00  0.00    -0.126 A  
HETATM   23  C   UNL     1      -9.243   9.882  64.198  1.00  0.00    -0.312 A  
HETATM   24  C   UNL     1      -6.480  10.161  63.971  1.00  0.00    -0.119 A  
ENDBRANCH   7  19
BRANCH   8  25
HETATM   25  C   UNL     1      -9.699  12.641  66.820  1.00  0.00    -0.240 A  
HETATM   26  C   UNL     1      -8.879  13.617  67.411  1.00  0.00    -0.221 A  
HETATM   27  C   UNL     1     -10.487  14.409  65.319  1.00  0.00    -0.410 A  
HETATM   28  C   UNL     1     -10.517  13.075  65.764  1.00  0.00    -0.292 A  
HETATM   29  F   UNL     1      -9.520  16.563  65.413  1.00  0.00    -0.184 F  
HETATM   30  C   UNL     1      -8.771  14.918  66.913  1.00  0.00    -0.276 A  
HETATM   31  C   UNL     1      -9.588  15.308  65.873  1.00  0.00    -0.342 A  
ENDBRANCH   8  25
BRANCH   6  32
HETATM   32  C   UNL     1     -10.928  11.696  69.471  1.00  0.00    -0.098 C  
BRANCH  32  33
HETATM   33  C   UNL     1     -12.028  12.622  68.918  1.00  0.00    -0.284 C  
BRANCH  33  34
HETATM   34  C   UNL     1     -11.900  14.092  69.369  1.00  0.00    -0.333 C  
HETATM   35  O   UNL     1     -13.117  14.819  69.206  1.00  0.00    -0.039 OA 
HETATM   36  H   UNL     1     -13.039  15.724  69.484  1.00  0.00     0.000 HD 
BRANCH  34  37
HETATM   37  C   UNL     1     -11.536  14.161  70.863  1.00  0.00    -0.072 C  
BRANCH  37  38
HETATM   38  C   UNL     1     -12.752  14.388  71.779  1.00  0.00    -0.351 C  
HETATM   39  H   UNL     1     -14.317  13.348  72.425  1.00  0.00     0.000 HD 
HETATM   40  O   UNL     1     -13.567  13.208  71.860  1.00  0.00    -0.432 OA 
BRANCH  38  41
HETATM   41  C   UNL     1     -12.298  14.720  73.200  1.00  0.00    -0.418 C  
HETATM   42  C   UNL     1     -12.867  16.020  73.718  1.00  0.00    -0.572 C  
HETATM   43  O   UNL     1     -14.158  16.241  73.386  1.00  0.00    -0.404 OA 
HETATM   44  O   UNL     1     -12.239  16.779  74.442  1.00  0.00    -0.611 OA 
ENDBRANCH  38  41
ENDBRANCH  37  38
ENDBRANCH  34  37
ENDBRANCH  33  34
ENDBRANCH  32  33
ENDBRANCH   6  32
TORSDOF 10
ENDMDL
MODEL      106
REMARK 921   NORMALIZED FREE ENERGY PREDICTED BY IDOCK:   -4.53 KCAL/MOL
REMARK 922        TOTAL FREE ENERGY PREDICTED BY IDOCK:   -9.93 KCAL/MOL
REMARK 923 INTER-LIGAND FREE ENERGY PREDICTED BY IDOCK:   -6.64 KCAL/MOL
REMARK 924 INTRA-LIGAND FREE ENERGY PREDICTED BY IDOCK:   -3.30 KCAL/MOL
REMARK 927      BINDING AFFINITY PREDICTED BY RF-SCORE:    0.00 PKD
ROOT
HETATM    1  C   UNL     1      -9.944  11.630  66.719  1.00  0.00    -0.229 C  
HETATM    2  C   UNL     1      -9.955  10.111  66.541  1.00  0.00    -0.283 C  
HETATM    3  C   UNL     1      -9.217   9.309  67.620  1.00  0.00    -0.124 A  
HETATM    4  C   UNL     1      -9.587   9.744  65.101  1.00  0.00    -0.356 C  
HETATM    5  C   UNL     1      -8.129   9.615  68.461  1.00  0.00    -0.104 A  
HETATM    6  N   UNL     1      -9.700   8.055  68.020  1.00  0.00    -0.156 NA 
HETATM    7  C   UNL     1      -8.124   8.606  69.528  1.00  0.00    -0.110 A  
HETATM    8  C   UNL     1      -9.055   7.607  69.186  1.00  0.00    -0.141 A  
ENDROOT
BRANCH   5   9
HETATM    9  C   UNL     1      -7.230  10.808  68.380  1.00  0.00    -0.085 C  
HETATM   10  O   UNL     1      -6.189  10.756  67.725  1.00  0.00    -0.047 OA 
HETATM   11  N   UNL     1      -7.660  11.931  69.074  1.00  0.00    -0.313 N  
HETATM   12  H   UNL     1      -8.512  11.835  69.627  1.00  0.00     0.000 HD 
BRANCH  11  13
HETATM   13  C   UNL     1      -7.025  13.201  69.086  1.00  0.00    -0.028 A  
HETATM   14  C   UNL     1      -5.543  14.870  70.063  1.00  0.00    -0.119 A  
HETATM   15  C   UNL     1      -5.810  15.749  69.018  1.00  0.00    -0.106 A  
HETATM   16  C   UNL     1      -7.256  14.081  68.021  1.00  0.00    -0.146 A  
HETATM   17  C   UNL     1      -6.153  13.607  70.101  1.00  0.00    -0.131 A  
HETATM   18  C   UNL     1      -6.675  15.358  68.000  1.00  0.00    -0.156 A  
ENDBRANCH  11  13
ENDBRANCH   5   9
BRANCH   7  19
HETATM   19  C   UNL     1      -7.316   8.573  70.779  1.00  0.00    -0.066 A  
HETATM   20  C   UNL     1      -5.911   8.668  70.734  1.00  0.00    -0.033 A  
HETATM   21  C   UNL     1      -7.119   8.399  73.211  1.00  0.00    -0.115 A  
HETATM   22  C   UNL     1      -5.735   8.541  73.141  1.00  0.00    -0.076 A  
HETATM   23  C   UNL     1      -7.904   8.443  72.046  1.00  0.00    -0.171 A  
HETATM   24  C   UNL     1      -5.131   8.686  71.900  1.00  0.00    -0.037 A  
ENDBRANCH   7  19
BRANCH   8  25
HETATM   25  C   UNL     1      -9.344   6.279  69.840  1.00  0.00    -0.158 A  
HETATM   26  C   UNL     1      -8.641   5.112  69.499  1.00  0.00    -0.099 A  
HETATM   27  C   UNL     1     -10.585   4.900  71.440  1.00  0.00    -0.104 A  
HETATM   28  C   UNL     1     -10.338   6.140  70.823  1.00  0.00    -0.266 A  
HETATM   29  F   UNL     1      -9.993   2.635  71.762  1.00  0.00    -0.215 F  
HETATM   30  C   UNL     1      -8.812   3.900  70.175  1.00  0.00    -0.138 A  
HETATM   31  C   UNL     1      -9.795   3.801  71.136  1.00  0.00    -0.143 A  
ENDBRANCH   8  25
BRANCH   6  32
HETATM   32  C   UNL     1     -10.673   7.263  67.252  1.00  0.00    -0.321 C  
BRANCH  32  33
HETATM   33  C   UNL     1     -10.076   6.281  66.228  1.00  0.00    -0.007 C  
BRANCH  33  34
HETATM   34  C   UNL     1     -10.646   4.850  66.321  1.00  0.00    -0.255 C  
HETATM   35  O   UNL     1     -11.386   4.482  65.157  1.00  0.00    -1.034 OA 
HETATM   36  H   UNL     1     -11.737   3.601  65.214  1.00  0.00     0.000 HD 
BRANCH  34  37
HETATM   37  C   UNL     1      -9.503   3.829  66.462  1.00  0.00    -0.204 C  
BRANCH  37  38
HETATM   38  C   UNL     1      -8.236   4.214  65.677  1.00  0.00    -0.109 C  
HETATM   39  H   UNL     1      -6.330   4.613  66.071  1.00  0.00     0.000 HD 
HETATM   40  O   UNL     1      -7.111   4.375  66.555  1.00  0.00    -0.067 OA 
BRANCH  38  41
HETATM   41  C   UNL     1      -7.873   3.120  64.675  1.00  0.00    -0.078 C  
HETATM   42  C   UNL     1      -8.814   3.058  63.495  1.00  0.00    -0.092 C  
HETATM   43  O   UNL     1      -9.203   4.261  63.021  1.00  0.00    -0.126 OA 
HETATM   44  O   UNL     1      -9.142   2.008  62.960  1.00  0.00    -0.090 OA 
ENDBRANCH  38  41
ENDBRANCH  37  38
ENDBRANCH  34  37
ENDBRANCH  33  34
ENDBRANCH  32  33
ENDBRANCH   6  32
TORSDOF 10
ENDMDL
MODEL      107
REMARK 921   NORMALIZED FREE ENERGY PREDICTED BY IDOCK:   -4.52 KCAL/MOL
REMARK 922        TOTAL FREE ENERGY PREDICTED BY IDOCK:   -9.92 KCAL/MOL
REMARK 923 INTER-LIGAND FREE ENERGY PREDICTED BY IDOCK:   -7.32 KCAL/MOL
REMARK 924 INTRA-LIGAND FREE ENERGY PREDICTED BY IDOCK:   -2.60 KCAL/MOL
REMARK 927      BINDING AFFINITY PREDICTED BY RF-SCORE:    0.00 PKD
ROOT
HETATM    1  C   UNL     1      -6.046  10.863  70.280  1.00  0.00    -0.142 C  
HETATM    2  C   UNL     1      -6.488   9.419  70.034  1.00  0.00    -0.057 C  
HETATM    3  C   UNL     1      -7.225   9.164  68.713  1.00  0.00    -0.074 A  
HETATM    4  C   UNL     1      -7.184   8.859  71.278  1.00  0.00    -0.111 C  
HETATM    5  C   UNL     1      -8.026   9.983  67.893  1.00  0.00    -0.105 A  
HETATM    6  N   UNL     1      -7.049   7.953  68.030  1.00  0.00    -0.083 NA 
HETATM    7  C   UNL     1      -8.129   9.305  66.593  1.00  0.00    -0.108 A  
HETATM    8  C   UNL     1      -7.584   8.015  66.732  1.00  0.00    -0.094 A  
ENDROOT
BRANCH   5   9
HETATM    9  C   UNL     1      -8.559  11.343  68.215  1.00  0.00    -0.156 C  
HETATM   10  O   UNL     1      -7.786  12.282  68.407  1.00  0.00    -0.143 OA 
HETATM   11  N   UNL     1      -9.942  11.448  68.267  1.00  0.00    -0.192 N  
HETATM   12  H   UNL     1     -10.476  10.587  68.145  1.00  0.00     0.000 HD 
BRANCH  11  13
HETATM   13  C   UNL     1     -10.683  12.642  68.475  1.00  0.00    -0.248 A  
HETATM   14  C   UNL     1     -12.307  13.998  69.683  1.00  0.00    -0.309 A  
HETATM   15  C   UNL     1     -12.107  15.058  68.804  1.00  0.00    -0.215 A  
HETATM   16  C   UNL     1     -10.463  13.729  67.619  1.00  0.00    -0.242 A  
HETATM   17  C   UNL     1     -11.606  12.795  69.514  1.00  0.00    -0.342 A  
HETATM   18  C   UNL     1     -11.191  14.921  67.765  1.00  0.00    -0.329 A  
ENDBRANCH  11  13
ENDBRANCH   5   9
BRANCH   7  19
HETATM   19  C   UNL     1      -8.690   9.821  65.313  1.00  0.00    -0.182 A  
HETATM   20  C   UNL     1      -7.941   9.765  64.121  1.00  0.00    -0.143 A  
HETATM   21  C   UNL     1     -10.473  10.880  64.017  1.00  0.00    -0.379 A  
HETATM   22  C   UNL     1      -9.730  10.770  62.844  1.00  0.00    -0.337 A  
HETATM   23  C   UNL     1      -9.971  10.386  65.233  1.00  0.00    -0.376 A  
HETATM   24  C   UNL     1      -8.465  10.202  62.896  1.00  0.00    -0.180 A  
ENDBRANCH   7  19
BRANCH   8  25
HETATM   25  C   UNL     1      -7.568   6.855  65.768  1.00  0.00    -0.091 A  
HETATM   26  C   UNL     1      -6.413   6.493  65.056  1.00  0.00    -0.038 A  
HETATM   27  C   UNL     1      -8.681   4.984  64.644  1.00  0.00    -0.141 A  
HETATM   28  C   UNL     1      -8.713   6.076  65.530  1.00  0.00    -0.120 A  
HETATM   29  F   UNL     1      -7.444   3.539  63.242  1.00  0.00    -0.050 F  
HETATM   30  C   UNL     1      -6.345   5.353  64.251  1.00  0.00    -0.026 A  
HETATM   31  C   UNL     1      -7.488   4.610  64.042  1.00  0.00    -0.059 A  
ENDBRANCH   8  25
BRANCH   6  32
HETATM   32  C   UNL     1      -6.479   6.740  68.637  1.00  0.00    -0.040 C  
BRANCH  32  33
HETATM   33  C   UNL     1      -7.371   6.027  69.670  1.00  0.00    -0.079 C  
BRANCH  33  34
HETATM   34  C   UNL     1      -8.798   5.724  69.168  1.00  0.00    -0.112 C  
HETATM   35  O   UNL     1      -8.988   4.341  68.869  1.00  0.00    -0.095 OA 
HETATM   36  H   UNL     1      -9.867   4.155  68.560  1.00  0.00     0.000 HD 
BRANCH  34  37
HETATM   37  C   UNL     1      -9.833   6.093  70.246  1.00  0.00    -0.206 C  
BRANCH  37  38
HETATM   38  C   UNL     1     -10.423   7.504  70.073  1.00  0.00    -0.228 C  
HETATM   39  H   UNL     1     -10.991   8.683  68.578  1.00  0.00     0.000 HD 
HETATM   40  O   UNL     1     -10.628   7.813  68.685  1.00  0.00    -0.192 OA 
BRANCH  38  41
HETATM   41  C   UNL     1     -11.782   7.605  70.762  1.00  0.00    -0.260 C  
HETATM   42  C   UNL     1     -11.930   8.850  71.605  1.00  0.00    -0.345 C  
HETATM   43  O   UNL     1     -11.400   9.966  71.058  1.00  0.00    -0.342 OA 
HETATM   44  O   UNL     1     -12.543   8.869  72.663  1.00  0.00    -0.352 OA 
ENDBRANCH  38  41
ENDBRANCH  37  38
ENDBRANCH  34  37
ENDBRANCH  33  34
ENDBRANCH  32  33
ENDBRANCH   6  32
TORSDOF 10
ENDMDL
MODEL      108
REMARK 921   NORMALIZED FREE ENERGY PREDICTED BY IDOCK:   -4.52 KCAL/MOL
REMARK 922        TOTAL FREE ENERGY PREDICTED BY IDOCK:   -9.91 KCAL/MOL
REMARK 923 INTER-LIGAND FREE ENERGY PREDICTED BY IDOCK:   -6.79 KCAL/MOL
REMARK 924 INTRA-LIGAND FREE ENERGY PREDICTED BY IDOCK:   -3.12 KCAL/MOL
REMARK 927      BINDING AFFINITY PREDICTED BY RF-SCORE:    0.00 PKD
ROOT
HETATM    1  C   UNL     1      -7.599   8.117  72.221  1.00  0.00    -0.147 C  
HETATM    2  C   UNL     1      -7.328   9.156  71.132  1.00  0.00    -0.091 C  
HETATM    3  C   UNL     1      -7.655   8.719  69.698  1.00  0.00    -0.076 A  
HETATM    4  C   UNL     1      -5.937   9.767  71.317  1.00  0.00    -0.029 C  
HETATM    5  C   UNL     1      -7.681   7.461  69.066  1.00  0.00    -0.118 A  
HETATM    6  N   UNL     1      -8.152   9.649  68.773  1.00  0.00    -0.095 NA 
HETATM    7  C   UNL     1      -8.428   7.634  67.813  1.00  0.00    -0.122 A  
HETATM    8  C   UNL     1      -8.636   9.012  67.618  1.00  0.00    -0.120 A  
ENDROOT
BRANCH   5   9
HETATM    9  C   UNL     1      -7.177   6.162  69.612  1.00  0.00    -0.074 C  
HETATM   10  O   UNL     1      -5.971   5.912  69.603  1.00  0.00    -0.022 OA 
HETATM   11  N   UNL     1      -8.148   5.306  70.114  1.00  0.00    -0.086 N  
HETATM   12  H   UNL     1      -9.120   5.600  70.015  1.00  0.00     0.000 HD 
BRANCH  11  13
HETATM   13  C   UNL     1      -7.914   4.059  70.752  1.00  0.00    -0.059 A  
HETATM   14  C   UNL     1      -7.522   2.673  72.717  1.00  0.00    -0.045 A  
HETATM   15  C   UNL     1      -7.453   1.531  71.924  1.00  0.00    -0.039 A  
HETATM   16  C   UNL     1      -7.879   2.897  69.969  1.00  0.00    -0.048 A  
HETATM   17  C   UNL     1      -7.742   3.930  72.133  1.00  0.00    -0.071 A  
HETATM   18  C   UNL     1      -7.623   1.644  70.547  1.00  0.00    -0.036 A  
ENDBRANCH  11  13
ENDBRANCH   5   9
BRANCH   7  19
HETATM   19  C   UNL     1      -8.916   6.593  66.865  1.00  0.00    -0.131 A  
HETATM   20  C   UNL     1     -10.132   5.921  67.094  1.00  0.00    -0.213 A  
HETATM   21  C   UNL     1      -8.669   5.235  64.846  1.00  0.00    -0.122 A  
HETATM   22  C   UNL     1      -9.897   4.619  65.071  1.00  0.00    -0.067 A  
HETATM   23  C   UNL     1      -8.195   6.231  65.717  1.00  0.00    -0.136 A  
HETATM   24  C   UNL     1     -10.635   4.971  66.192  1.00  0.00    -0.321 A  
ENDBRANCH   7  19
BRANCH   8  25
HETATM   25  C   UNL     1      -9.207   9.755  66.435  1.00  0.00    -0.200 A  
HETATM   26  C   UNL     1      -8.487   9.919  65.240  1.00  0.00    -0.158 A  
HETATM   27  C   UNL     1     -11.020  10.998  65.355  1.00  0.00    -0.091 A  
HETATM   28  C   UNL     1     -10.490  10.325  66.470  1.00  0.00    -0.241 A  
HETATM   29  F   UNL     1     -10.831  11.638  63.088  1.00  0.00    -0.386 F  
HETATM   30  C   UNL     1      -9.042  10.499  64.096  1.00  0.00    -0.258 A  
HETATM   31  C   UNL     1     -10.305  11.046  64.166  1.00  0.00    -0.369 A  
ENDBRANCH   8  25
BRANCH   6  32
HETATM   32  C   UNL     1      -8.069  11.107  68.947  1.00  0.00    -0.115 C  
BRANCH  32  33
HETATM   33  C   UNL     1      -7.022  11.826  68.075  1.00  0.00    -0.076 C  
BRANCH  33  34
HETATM   34  C   UNL     1      -7.091  13.365  68.148  1.00  0.00    -0.116 C  
HETATM   35  O   UNL     1      -6.590  13.989  66.966  1.00  0.00    -0.357 OA 
HETATM   36  H   UNL     1      -6.633  14.937  67.010  1.00  0.00     0.000 HD 
BRANCH  34  37
HETATM   37  C   UNL     1      -8.551  13.827  68.311  1.00  0.00    -0.175 C  
BRANCH  37  38
HETATM   38  C   UNL     1      -9.031  14.749  67.177  1.00  0.00    -0.224 C  
HETATM   39  H   UNL     1      -9.813  14.557  65.360  1.00  0.00     0.000 HD 
HETATM   40  O   UNL     1      -9.517  13.988  66.060  1.00  0.00    -0.239 OA 
BRANCH  38  41
HETATM   41  C   UNL     1     -10.183  15.632  67.655  1.00  0.00    -0.261 C  
HETATM   42  C   UNL     1     -10.310  16.919  66.874  1.00  0.00    -0.304 C  
HETATM   43  O   UNL     1     -10.105  16.792  65.545  1.00  0.00    -0.566 OA 
HETATM   44  O   UNL     1     -10.646  17.977  67.386  1.00  0.00    -0.386 OA 
ENDBRANCH  38  41
ENDBRANCH  37  38
ENDBRANCH  34  37
ENDBRANCH  33  34
ENDBRANCH  32  33
ENDBRANCH   6  32
TORSDOF 10
ENDMDL
MODEL      109
REMARK 921   NORMALIZED FREE ENERGY PREDICTED BY IDOCK:   -4.49 KCAL/MOL
REMARK 922        TOTAL FREE ENERGY PREDICTED BY IDOCK:   -9.87 KCAL/MOL
REMARK 923 INTER-LIGAND FREE ENERGY PREDICTED BY IDOCK:   -6.76 KCAL/MOL
REMARK 924 INTRA-LIGAND FREE ENERGY PREDICTED BY IDOCK:   -3.11 KCAL/MOL
REMARK 927      BINDING AFFINITY PREDICTED BY RF-SCORE:    0.00 PKD
ROOT
HETATM    1  C   UNL     1      -9.792  10.481  67.138  1.00  0.00    -0.213 C  
HETATM    2  C   UNL     1      -9.902   8.964  67.303  1.00  0.00    -0.256 C  
HETATM    3  C   UNL     1      -9.292   8.389  68.588  1.00  0.00    -0.143 A  
HETATM    4  C   UNL     1      -9.473   8.258  66.014  1.00  0.00    -0.189 C  
HETATM    5  C   UNL     1      -8.239   8.817  69.419  1.00  0.00    -0.108 A  
HETATM    6  N   UNL     1      -9.888   7.289  69.220  1.00  0.00    -0.164 NA 
HETATM    7  C   UNL     1      -8.372   8.079  70.683  1.00  0.00    -0.123 A  
HETATM    8  C   UNL     1      -9.350   7.083  70.503  1.00  0.00    -0.159 A  
ENDROOT
BRANCH   5   9
HETATM    9  C   UNL     1      -7.252   9.907  69.143  1.00  0.00    -0.072 C  
HETATM   10  O   UNL     1      -6.154   9.641  68.654  1.00  0.00    -0.043 OA 
HETATM   11  N   UNL     1      -7.671  11.191  69.467  1.00  0.00    -0.373 N  
HETATM   12  H   UNL     1      -8.581  11.280  69.919  1.00  0.00     0.000 HD 
BRANCH  11  13
HETATM   13  C   UNL     1      -6.950  12.391  69.228  1.00  0.00     0.021 A  
HETATM   14  C   UNL     1      -6.453  14.396  67.936  1.00  0.00    -0.175 A  
HETATM   15  C   UNL     1      -5.461  14.760  68.842  1.00  0.00    -0.087 A  
HETATM   16  C   UNL     1      -5.975  12.787  70.152  1.00  0.00    -0.135 A  
HETATM   17  C   UNL     1      -7.187  13.215  68.123  1.00  0.00    -0.117 A  
HETATM   18  C   UNL     1      -5.215  13.949  69.947  1.00  0.00    -0.094 A  
ENDBRANCH  11  13
ENDBRANCH   5   9
BRANCH   7  19
HETATM   19  C   UNL     1      -7.647   8.287  71.967  1.00  0.00    -0.145 A  
HETATM   20  C   UNL     1      -8.340   8.315  73.193  1.00  0.00    -0.253 A  
HETATM   21  C   UNL     1      -5.596   8.680  73.241  1.00  0.00    -0.089 A  
HETATM   22  C   UNL     1      -6.299   8.656  74.443  1.00  0.00    -0.147 A  
HETATM   23  C   UNL     1      -6.257   8.470  72.018  1.00  0.00    -0.069 A  
HETATM   24  C   UNL     1      -7.673   8.463  74.418  1.00  0.00    -0.263 A  
ENDBRANCH   7  19
BRANCH   8  25
HETATM   25  C   UNL     1      -9.774   5.957  71.413  1.00  0.00    -0.196 A  
HETATM   26  C   UNL     1     -10.911   6.050  72.232  1.00  0.00    -0.310 A  
HETATM   27  C   UNL     1      -9.467   3.706  72.326  1.00  0.00    -0.189 A  
HETATM   28  C   UNL     1      -9.050   4.756  71.489  1.00  0.00    -0.172 A  
HETATM   29  F   UNL     1     -11.077   2.793  73.795  1.00  0.00    -0.249 F  
HETATM   30  C   UNL     1     -11.387   4.977  72.991  1.00  0.00    -0.374 A  
HETATM   31  C   UNL     1     -10.651   3.812  73.041  1.00  0.00    -0.167 A  
ENDBRANCH   8  25
BRANCH   6  32
HETATM   32  C   UNL     1     -10.866   6.399  68.577  1.00  0.00    -0.314 C  
BRANCH  32  33
HETATM   33  C   UNL     1     -10.312   5.488  67.465  1.00  0.00    -0.268 C  
BRANCH  33  34
HETATM   34  C   UNL     1      -9.520   4.271  67.985  1.00  0.00    -0.159 C  
HETATM   35  O   UNL     1      -9.759   3.095  67.211  1.00  0.00    -0.371 OA 
HETATM   36  H   UNL     1      -9.271   2.345  67.531  1.00  0.00     0.000 HD 
BRANCH  34  37
HETATM   37  C   UNL     1      -8.008   4.549  67.916  1.00  0.00    -0.088 C  
BRANCH  37  38
HETATM   38  C   UNL     1      -7.600   5.422  66.716  1.00  0.00    -0.088 C  
HETATM   39  H   UNL     1      -6.437   6.997  66.374  1.00  0.00     0.000 HD 
HETATM   40  O   UNL     1      -6.689   6.458  67.114  1.00  0.00    -0.056 OA 
BRANCH  38  41
HETATM   41  C   UNL     1      -6.889   4.580  65.657  1.00  0.00    -0.057 C  
HETATM   42  C   UNL     1      -7.841   3.808  64.774  1.00  0.00    -0.085 C  
HETATM   43  O   UNL     1      -8.953   4.486  64.417  1.00  0.00    -0.147 OA 
HETATM   44  O   UNL     1      -7.595   2.687  64.351  1.00  0.00    -0.072 OA 
ENDBRANCH  38  41
ENDBRANCH  37  38
ENDBRANCH  34  37
ENDBRANCH  33  34
ENDBRANCH  32  33
ENDBRANCH   6  32
TORSDOF 10
ENDMDL
MODEL      110
REMARK 921   NORMALIZED FREE ENERGY PREDICTED BY IDOCK:   -4.41 KCAL/MOL
REMARK 922        TOTAL FREE ENERGY PREDICTED BY IDOCK:   -9.74 KCAL/MOL
REMARK 923 INTER-LIGAND FREE ENERGY PREDICTED BY IDOCK:   -6.39 KCAL/MOL
REMARK 924 INTRA-LIGAND FREE ENERGY PREDICTED BY IDOCK:   -3.35 KCAL/MOL
REMARK 927      BINDING AFFINITY PREDICTED BY RF-SCORE:    0.00 PKD
ROOT
HETATM    1  C   UNL     1     -11.638  10.264  71.525  1.00  0.00    -0.089 C  
HETATM    2  C   UNL     1     -11.514   8.810  71.064  1.00  0.00    -0.337 C  
HETATM    3  C   UNL     1     -10.670   8.581  69.803  1.00  0.00    -0.213 A  
HETATM    4  C   UNL     1     -12.891   8.141  71.047  1.00  0.00     0.003 C  
HETATM    5  C   UNL     1     -10.381   9.390  68.688  1.00  0.00    -0.227 A  
HETATM    6  N   UNL     1      -9.892   7.422  69.677  1.00  0.00    -0.173 NA 
HETATM    7  C   UNL     1      -9.229   8.779  68.011  1.00  0.00    -0.147 A  
HETATM    8  C   UNL     1      -8.999   7.521  68.596  1.00  0.00    -0.132 A  
ENDROOT
BRANCH   5   9
HETATM    9  C   UNL     1     -11.017  10.695  68.326  1.00  0.00    -0.263 C  
HETATM   10  O   UNL     1     -12.027  10.718  67.622  1.00  0.00    -0.411 OA 
HETATM   11  N   UNL     1     -10.397  11.827  68.838  1.00  0.00    -0.357 N  
HETATM   12  H   UNL     1      -9.533  11.685  69.362  1.00  0.00     0.000 HD 
BRANCH  11  13
HETATM   13  C   UNL     1     -10.854  13.165  68.701  1.00  0.00    -0.259 A  
HETATM   14  C   UNL     1     -12.098  15.116  69.464  1.00  0.00    -0.316 A  
HETATM   15  C   UNL     1     -11.708  15.832  68.336  1.00  0.00    -0.279 A  
HETATM   16  C   UNL     1     -10.438  13.909  67.589  1.00  0.00    -0.245 A  
HETATM   17  C   UNL     1     -11.681  13.788  69.641  1.00  0.00    -0.379 A  
HETATM   18  C   UNL     1     -10.884  15.225  67.393  1.00  0.00    -0.304 A  
ENDBRANCH  11  13
ENDBRANCH   5   9
BRANCH   7  19
HETATM   19  C   UNL     1      -8.399   9.327  66.902  1.00  0.00    -0.123 A  
HETATM   20  C   UNL     1      -7.124   9.870  67.153  1.00  0.00    -0.085 A  
HETATM   21  C   UNL     1      -8.048   9.872  64.543  1.00  0.00    -0.149 A  
HETATM   22  C   UNL     1      -6.772  10.360  64.812  1.00  0.00    -0.037 A  
HETATM   23  C   UNL     1      -8.843   9.335  65.571  1.00  0.00    -0.224 A  
HETATM   24  C   UNL     1      -6.306  10.350  66.119  1.00  0.00    -0.106 A  
ENDBRANCH   7  19
BRANCH   8  25
HETATM   25  C   UNL     1      -8.051   6.417  68.196  1.00  0.00    -0.113 A  
HETATM   26  C   UNL     1      -6.886   6.133  68.928  1.00  0.00    -0.066 A  
HETATM   27  C   UNL     1      -7.404   4.578  66.713  1.00  0.00    -0.081 A  
HETATM   28  C   UNL     1      -8.284   5.617  67.065  1.00  0.00    -0.101 A  
HETATM   29  F   UNL     1      -5.514   3.255  67.222  1.00  0.00    -0.016 F  
HETATM   30  C   UNL     1      -6.060   5.043  68.642  1.00  0.00    -0.030 A  
HETATM   31  C   UNL     1      -6.321   4.277  67.526  1.00  0.00    -0.037 A  
ENDBRANCH   8  25
BRANCH   6  32
HETATM   32  C   UNL     1     -10.069   6.216  70.502  1.00  0.00    -0.189 C  
BRANCH  32  33
HETATM   33  C   UNL     1     -10.457   4.936  69.739  1.00  0.00    -0.074 C  
BRANCH  33  34
HETATM   34  C   UNL     1      -9.751   3.662  70.247  1.00  0.00    -0.122 C  
HETATM   35  O   UNL     1      -9.195   2.887  69.184  1.00  0.00    -0.131 OA 
HETATM   36  H   UNL     1      -8.760   2.103  69.497  1.00  0.00     0.000 HD 
BRANCH  34  37
HETATM   37  C   UNL     1      -8.587   4.034  71.183  1.00  0.00    -0.110 C  
BRANCH  37  38
HETATM   38  C   UNL     1      -8.403   3.051  72.352  1.00  0.00    -0.074 C  
HETATM   39  H   UNL     1      -7.780   1.182  72.614  1.00  0.00     0.000 HD 
HETATM   40  O   UNL     1      -7.893   1.789  71.893  1.00  0.00    -0.040 OA 
BRANCH  38  41
HETATM   41  C   UNL     1      -7.400   3.602  73.364  1.00  0.00    -0.060 C  
HETATM   42  C   UNL     1      -7.871   4.867  74.041  1.00  0.00    -0.101 C  
HETATM   43  O   UNL     1      -9.182   4.878  74.364  1.00  0.00    -0.113 OA 
HETATM   44  O   UNL     1      -7.116   5.781  74.341  1.00  0.00    -0.084 OA 
ENDBRANCH  38  41
ENDBRANCH  37  38
ENDBRANCH  34  37
ENDBRANCH  33  34
ENDBRANCH  32  33
ENDBRANCH   6  32
TORSDOF 10
ENDMDL
MODEL      111
REMARK 921   NORMALIZED FREE ENERGY PREDICTED BY IDOCK:   -4.36 KCAL/MOL
REMARK 922        TOTAL FREE ENERGY PREDICTED BY IDOCK:   -9.66 KCAL/MOL
REMARK 923 INTER-LIGAND FREE ENERGY PREDICTED BY IDOCK:   -7.32 KCAL/MOL
REMARK 924 INTRA-LIGAND FREE ENERGY PREDICTED BY IDOCK:   -2.33 KCAL/MOL
REMARK 927      BINDING AFFINITY PREDICTED BY RF-SCORE:    0.00 PKD
ROOT
HETATM    1  C   UNL     1      -6.936   8.651  64.394  1.00  0.00    -0.081 C  
HETATM    2  C   UNL     1      -8.153   9.054  65.230  1.00  0.00    -0.126 C  
HETATM    3  C   UNL     1      -8.644   8.007  66.238  1.00  0.00    -0.143 A  
HETATM    4  C   UNL     1      -9.243   9.642  64.329  1.00  0.00    -0.235 C  
HETATM    5  C   UNL     1      -8.577   6.600  66.262  1.00  0.00    -0.139 A  
HETATM    6  N   UNL     1      -9.175   8.410  67.471  1.00  0.00    -0.139 NA 
HETATM    7  C   UNL     1      -8.870   6.188  67.641  1.00  0.00    -0.103 A  
HETATM    8  C   UNL     1      -9.315   7.321  68.348  1.00  0.00    -0.143 A  
ENDROOT
BRANCH   5   9
HETATM    9  C   UNL     1      -8.156   5.694  65.149  1.00  0.00    -0.127 C  
HETATM   10  O   UNL     1      -8.738   5.730  64.065  1.00  0.00     0.039 OA 
HETATM   11  N   UNL     1      -7.090   4.850  65.434  1.00  0.00    -0.062 N  
HETATM   12  H   UNL     1      -6.725   4.871  66.387  1.00  0.00     0.000 HD 
BRANCH  11  13
HETATM   13  C   UNL     1      -6.461   3.960  64.523  1.00  0.00    -0.042 A  
HETATM   14  C   UNL     1      -5.554   3.386  62.336  1.00  0.00    -0.008 A  
HETATM   15  C   UNL     1      -5.205   2.118  62.790  1.00  0.00    -0.003 A  
HETATM   16  C   UNL     1      -6.071   2.694  64.978  1.00  0.00    -0.019 A  
HETATM   17  C   UNL     1      -6.186   4.298  63.195  1.00  0.00    -0.018 A  
HETATM   18  C   UNL     1      -5.472   1.767  64.111  1.00  0.00    -0.008 A  
ENDBRANCH  11  13
ENDBRANCH   5   9
BRANCH   7  19
HETATM   19  C   UNL     1      -8.741   4.839  68.260  1.00  0.00    -0.111 A  
HETATM   20  C   UNL     1      -9.626   3.798  67.916  1.00  0.00    -0.187 A  
HETATM   21  C   UNL     1      -7.658   3.268  69.791  1.00  0.00    -0.044 A  
HETATM   22  C   UNL     1      -8.516   2.244  69.398  1.00  0.00    -0.088 A  
HETATM   23  C   UNL     1      -7.750   4.544  69.209  1.00  0.00    -0.055 A  
HETATM   24  C   UNL     1      -9.495   2.508  68.451  1.00  0.00    -0.217 A  
ENDBRANCH   7  19
BRANCH   8  25
HETATM   25  C   UNL     1      -9.886   7.440  69.739  1.00  0.00    -0.171 A  
HETATM   26  C   UNL     1      -9.349   8.322  70.692  1.00  0.00    -0.172 A  
HETATM   27  C   UNL     1     -11.522   6.806  71.448  1.00  0.00    -0.336 A  
HETATM   28  C   UNL     1     -10.986   6.672  70.155  1.00  0.00    -0.358 A  
HETATM   29  F   UNL     1     -11.559   7.929  73.527  1.00  0.00    -0.224 F  
HETATM   30  C   UNL     1      -9.934   8.533  71.943  1.00  0.00    -0.365 A  
HETATM   31  C   UNL     1     -11.015   7.762  72.317  1.00  0.00    -0.290 A  
ENDBRANCH   8  25
BRANCH   6  32
HETATM   32  C   UNL     1      -9.631   9.777  67.763  1.00  0.00    -0.135 C  
BRANCH  32  33
HETATM   33  C   UNL     1      -8.520  10.824  67.968  1.00  0.00    -0.124 C  
BRANCH  33  34
HETATM   34  C   UNL     1      -8.876  12.231  67.445  1.00  0.00    -0.185 C  
HETATM   35  O   UNL     1      -8.236  12.529  66.204  1.00  0.00    -0.232 OA 
HETATM   36  H   UNL     1      -8.456  13.395  65.882  1.00  0.00     0.000 HD 
BRANCH  34  37
HETATM   37  C   UNL     1     -10.392  12.343  67.203  1.00  0.00    -0.232 C  
BRANCH  37  38
HETATM   38  C   UNL     1     -10.849  13.763  66.828  1.00  0.00    -0.284 C  
HETATM   39  H   UNL     1     -10.220  15.628  67.103  1.00  0.00     0.000 HD 
HETATM   40  O   UNL     1      -9.938  14.752  67.335  1.00  0.00    -0.223 OA 
BRANCH  38  41
HETATM   41  C   UNL     1     -10.895  13.929  65.310  1.00  0.00    -0.337 C  
HETATM   42  C   UNL     1     -12.193  13.455  64.699  1.00  0.00    -0.407 C  
HETATM   43  O   UNL     1     -13.297  13.763  65.414  1.00  0.00    -0.669 OA 
HETATM   44  O   UNL     1     -12.253  12.903  63.610  1.00  0.00    -0.519 OA 
ENDBRANCH  38  41
ENDBRANCH  37  38
ENDBRANCH  34  37
ENDBRANCH  33  34
ENDBRANCH  32  33
ENDBRANCH   6  32
TORSDOF 10
ENDMDL
MODEL      112
REMARK 921   NORMALIZED FREE ENERGY PREDICTED BY IDOCK:   -4.33 KCAL/MOL
REMARK 922        TOTAL FREE ENERGY PREDICTED BY IDOCK:   -9.61 KCAL/MOL
REMARK 923 INTER-LIGAND FREE ENERGY PREDICTED BY IDOCK:   -7.81 KCAL/MOL
REMARK 924 INTRA-LIGAND FREE ENERGY PREDICTED BY IDOCK:   -1.81 KCAL/MOL
REMARK 927      BINDING AFFINITY PREDICTED BY RF-SCORE:    0.00 PKD
ROOT
HETATM    1  C   UNL     1      -9.020   8.816  72.118  1.00  0.00    -0.184 C  
HETATM    2  C   UNL     1      -8.645   8.138  70.799  1.00  0.00    -0.138 C  
HETATM    3  C   UNL     1      -8.903   8.960  69.530  1.00  0.00    -0.144 A  
HETATM    4  C   UNL     1      -9.195   6.709  70.763  1.00  0.00    -0.155 C  
HETATM    5  C   UNL     1      -9.833   9.972  69.220  1.00  0.00    -0.227 A  
HETATM    6  N   UNL     1      -8.033   8.859  68.435  1.00  0.00    -0.104 NA 
HETATM    7  C   UNL     1      -9.348  10.631  68.001  1.00  0.00    -0.151 A  
HETATM    8  C   UNL     1      -8.279   9.871  67.492  1.00  0.00    -0.114 A  
ENDROOT
BRANCH   5   9
HETATM    9  C   UNL     1     -11.012  10.398  70.036  1.00  0.00    -0.308 C  
HETATM   10  O   UNL     1     -11.713   9.558  70.601  1.00  0.00    -0.270 OA 
HETATM   11  N   UNL     1     -11.231  11.768  70.102  1.00  0.00    -0.456 N  
HETATM   12  H   UNL     1     -10.616  12.362  69.546  1.00  0.00     0.000 HD 
BRANCH  11  13
HETATM   13  C   UNL     1     -12.232  12.419  70.872  1.00  0.00    -0.193 A  
HETATM   14  C   UNL     1     -14.010  12.438  72.538  1.00  0.00     0.222 A  
HETATM   15  C   UNL     1     -14.195  13.805  72.355  1.00  0.00    -0.501 A  
HETATM   16  C   UNL     1     -12.403  13.802  70.724  1.00  0.00    -0.451 A  
HETATM   17  C   UNL     1     -13.040  11.748  71.794  1.00  0.00    -0.480 A  
HETATM   18  C   UNL     1     -13.397  14.487  71.440  1.00  0.00    -0.427 A  
ENDBRANCH  11  13
ENDBRANCH   5   9
BRANCH   7  19
HETATM   19  C   UNL     1      -9.841  11.881  67.356  1.00  0.00    -0.192 A  
HETATM   20  C   UNL     1      -9.202  13.115  67.589  1.00  0.00    -0.207 A  
HETATM   21  C   UNL     1     -11.409  13.086  65.917  1.00  0.00    -0.344 A  
HETATM   22  C   UNL     1     -10.731  14.284  66.127  1.00  0.00    -0.295 A  
HETATM   23  C   UNL     1     -10.953  11.892  66.501  1.00  0.00    -0.337 A  
HETATM   24  C   UNL     1      -9.619  14.296  66.957  1.00  0.00    -0.260 A  
ENDBRANCH   7  19
BRANCH   8  25
HETATM   25  C   UNL     1      -7.519  10.003  66.195  1.00  0.00    -0.109 A  
HETATM   26  C   UNL     1      -6.165  10.376  66.160  1.00  0.00    -0.101 A  
HETATM   27  C   UNL     1      -7.405   9.870  63.752  1.00  0.00    -0.130 A  
HETATM   28  C   UNL     1      -8.129   9.763  64.953  1.00  0.00    -0.140 A  
HETATM   29  F   UNL     1      -5.344  10.193  62.642  1.00  0.00    -0.086 F  
HETATM   30  C   UNL     1      -5.414  10.388  64.981  1.00  0.00    -0.136 A  
HETATM   31  C   UNL     1      -6.045  10.145  63.780  1.00  0.00    -0.138 A  
ENDBRANCH   8  25
BRANCH   6  32
HETATM   32  C   UNL     1      -7.067   7.765  68.249  1.00  0.00    -0.084 C  
BRANCH  32  33
HETATM   33  C   UNL     1      -6.972   7.193  66.823  1.00  0.00    -0.073 C  
BRANCH  33  34
HETATM   34  C   UNL     1      -6.946   5.651  66.763  1.00  0.00    -0.065 C  
HETATM   35  O   UNL     1      -5.874   5.095  67.523  1.00  0.00    -0.020 OA 
HETATM   36  H   UNL     1      -5.858   4.146  67.487  1.00  0.00     0.000 HD 
BRANCH  34  37
HETATM   37  C   UNL     1      -8.250   5.073  67.342  1.00  0.00    -0.106 C  
BRANCH  37  38
HETATM   38  C   UNL     1      -9.462   5.241  66.409  1.00  0.00    -0.153 C  
HETATM   39  H   UNL     1     -10.247   4.308  64.840  1.00  0.00     0.000 HD 
HETATM   40  O   UNL     1      -9.499   4.204  65.415  1.00  0.00    -0.149 OA 
BRANCH  38  41
HETATM   41  C   UNL     1     -10.765   5.151  67.202  1.00  0.00    -0.067 C  
HETATM   42  C   UNL     1     -11.193   6.473  67.794  1.00  0.00    -0.161 C  
HETATM   43  O   UNL     1     -11.002   7.540  66.987  1.00  0.00    -0.306 OA 
HETATM   44  O   UNL     1     -11.737   6.568  68.885  1.00  0.00    -0.071 OA 
ENDBRANCH  38  41
ENDBRANCH  37  38
ENDBRANCH  34  37
ENDBRANCH  33  34
ENDBRANCH  32  33
ENDBRANCH   6  32
TORSDOF 10
ENDMDL
MODEL      113
REMARK 921   NORMALIZED FREE ENERGY PREDICTED BY IDOCK:   -4.29 KCAL/MOL
REMARK 922        TOTAL FREE ENERGY PREDICTED BY IDOCK:   -9.55 KCAL/MOL
REMARK 923 INTER-LIGAND FREE ENERGY PREDICTED BY IDOCK:   -9.49 KCAL/MOL
REMARK 924 INTRA-LIGAND FREE ENERGY PREDICTED BY IDOCK:   -0.06 KCAL/MOL
REMARK 927      BINDING AFFINITY PREDICTED BY RF-SCORE:    0.00 PKD
ROOT
HETATM    1  C   UNL     1     -12.456  13.802  67.656  1.00  0.00     0.161 C  
HETATM    2  C   UNL     1     -11.072  13.221  67.361  1.00  0.00    -0.300 C  
HETATM    3  C   UNL     1     -10.717  11.932  68.114  1.00  0.00    -0.215 A  
HETATM    4  C   UNL     1     -10.010  14.321  67.432  1.00  0.00    -0.242 C  
HETATM    5  C   UNL     1     -11.125  11.409  69.356  1.00  0.00    -0.301 A  
HETATM    6  N   UNL     1      -9.933  10.948  67.496  1.00  0.00    -0.172 NA 
HETATM    7  C   UNL     1     -10.751   9.988  69.359  1.00  0.00    -0.258 A  
HETATM    8  C   UNL     1      -9.944   9.750  68.232  1.00  0.00    -0.153 A  
ENDROOT
BRANCH   5   9
HETATM    9  C   UNL     1     -11.911  12.108  70.420  1.00  0.00    -0.272 C  
HETATM   10  O   UNL     1     -12.616  11.463  71.196  1.00  0.00    -0.394 OA 
HETATM   11  N   UNL     1     -11.774  13.490  70.456  1.00  0.00    -0.533 N  
HETATM   12  H   UNL     1     -11.205  13.917  69.725  1.00  0.00     0.000 HD 
BRANCH  11  13
HETATM   13  C   UNL     1     -12.352  14.363  71.416  1.00  0.00    -0.360 A  
HETATM   14  C   UNL     1     -14.254  15.352  72.573  1.00  0.00    -0.500 A  
HETATM   15  C   UNL     1     -13.403  16.129  73.352  1.00  0.00    -0.492 A  
HETATM   16  C   UNL     1     -11.505  15.123  72.232  1.00  0.00    -0.414 A  
HETATM   17  C   UNL     1     -13.732  14.481  71.605  1.00  0.00    -0.486 A  
HETATM   18  C   UNL     1     -12.026  16.022  73.176  1.00  0.00    -0.570 A  
ENDBRANCH  11  13
ENDBRANCH   5   9
BRANCH   7  19
HETATM   19  C   UNL     1     -11.120   8.927  70.337  1.00  0.00    -0.270 A  
HETATM   20  C   UNL     1     -11.500   7.642  69.902  1.00  0.00     0.064 A  
HETATM   21  C   UNL     1     -11.481   8.141  72.625  1.00  0.00    -0.454 A  
HETATM   22  C   UNL     1     -11.808   6.866  72.170  1.00  0.00    -0.318 A  
HETATM   23  C   UNL     1     -11.114   9.153  71.722  1.00  0.00    -0.437 A  
HETATM   24  C   UNL     1     -11.807   6.614  70.805  1.00  0.00    -0.441 A  
ENDBRANCH   7  19
BRANCH   8  25
HETATM   25  C   UNL     1      -9.170   8.519  67.829  1.00  0.00    -0.146 A  
HETATM   26  C   UNL     1      -9.663   7.605  66.883  1.00  0.00    -0.277 A  
HETATM   27  C   UNL     1      -7.193   7.082  67.986  1.00  0.00    -0.095 A  
HETATM   28  C   UNL     1      -7.914   8.222  68.383  1.00  0.00    -0.119 A  
HETATM   29  F   UNL     1      -6.971   5.212  66.558  1.00  0.00    -0.060 F  
HETATM   30  C   UNL     1      -8.912   6.526  66.410  1.00  0.00    -0.158 A  
HETATM   31  C   UNL     1      -7.682   6.265  66.976  1.00  0.00    -0.100 A  
ENDBRANCH   8  25
BRANCH   6  32
HETATM   32  C   UNL     1      -9.117  11.179  66.295  1.00  0.00    -0.194 C  
BRANCH  32  33
HETATM   33  C   UNL     1      -7.933  12.149  66.468  1.00  0.00     0.146 C  
BRANCH  33  34
HETATM   34  C   UNL     1      -6.702  11.524  67.155  1.00  0.00    -0.129 C  
HETATM   35  O   UNL     1      -6.404  10.220  66.658  1.00  0.00    -0.067 OA 
HETATM   36  H   UNL     1      -5.645   9.835  67.081  1.00  0.00     0.000 HD 
BRANCH  34  37
HETATM   37  C   UNL     1      -5.455  12.391  66.906  1.00  0.00     0.167 C  
BRANCH  37  38
HETATM   38  C   UNL     1      -5.173  13.398  68.036  1.00  0.00    -0.111 C  
HETATM   39  H   UNL     1      -5.350  15.354  68.336  1.00  0.00     0.000 HD 
HETATM   40  O   UNL     1      -5.524  14.733  67.639  1.00  0.00    -0.304 OA 
BRANCH  38  41
HETATM   41  C   UNL     1      -6.003  13.062  69.273  1.00  0.00    -0.093 C  
HETATM   42  C   UNL     1      -5.593  13.848  70.496  1.00  0.00    -0.147 C  
HETATM   43  O   UNL     1      -5.288  15.142  70.257  1.00  0.00    -0.112 OA 
HETATM   44  O   UNL     1      -5.605  13.378  71.625  1.00  0.00    -0.334 OA 
ENDBRANCH  38  41
ENDBRANCH  37  38
ENDBRANCH  34  37
ENDBRANCH  33  34
ENDBRANCH  32  33
ENDBRANCH   6  32
TORSDOF 10
ENDMDL
MODEL      114
REMARK 921   NORMALIZED FREE ENERGY PREDICTED BY IDOCK:   -4.24 KCAL/MOL
REMARK 922        TOTAL FREE ENERGY PREDICTED BY IDOCK:   -9.47 KCAL/MOL
REMARK 923 INTER-LIGAND FREE ENERGY PREDICTED BY IDOCK:   -7.07 KCAL/MOL
REMARK 924 INTRA-LIGAND FREE ENERGY PREDICTED BY IDOCK:   -2.40 KCAL/MOL
REMARK 927      BINDING AFFINITY PREDICTED BY RF-SCORE:    0.00 PKD
ROOT
HETATM    1  C   UNL     1      -5.992   7.642  64.281  1.00  0.00    -0.048 C  
HETATM    2  C   UNL     1      -6.851   8.433  65.270  1.00  0.00    -0.067 C  
HETATM    3  C   UNL     1      -7.427   7.630  66.443  1.00  0.00    -0.084 A  
HETATM    4  C   UNL     1      -7.871   9.292  64.516  1.00  0.00    -0.118 C  
HETATM    5  C   UNL     1      -7.775   6.274  66.592  1.00  0.00    -0.100 A  
HETATM    6  N   UNL     1      -7.568   8.227  67.704  1.00  0.00    -0.097 NA 
HETATM    7  C   UNL     1      -7.906   6.028  68.034  1.00  0.00    -0.106 A  
HETATM    8  C   UNL     1      -7.852   7.270  68.693  1.00  0.00    -0.122 A  
ENDROOT
BRANCH   5   9
HETATM    9  C   UNL     1      -7.862   5.237  65.517  1.00  0.00    -0.093 C  
HETATM   10  O   UNL     1      -6.839   4.818  64.975  1.00  0.00    -0.050 OA 
HETATM   11  N   UNL     1      -9.144   4.804  65.203  1.00  0.00    -0.155 N  
HETATM   12  H   UNL     1      -9.918   5.266  65.682  1.00  0.00     0.000 HD 
BRANCH  11  13
HETATM   13  C   UNL     1      -9.478   3.778  64.280  1.00  0.00    -0.158 A  
HETATM   14  C   UNL     1      -9.201   1.556  63.321  1.00  0.00    -0.087 A  
HETATM   15  C   UNL     1     -10.217   1.803  62.402  1.00  0.00    -0.095 A  
HETATM   16  C   UNL     1     -10.523   4.001  63.374  1.00  0.00    -0.128 A  
HETATM   17  C   UNL     1      -8.828   2.541  64.248  1.00  0.00    -0.100 A  
HETATM   18  C   UNL     1     -10.873   3.030  62.422  1.00  0.00    -0.157 A  
ENDBRANCH  11  13
ENDBRANCH   5   9
BRANCH   7  19
HETATM   19  C   UNL     1      -8.065   4.731  68.750  1.00  0.00    -0.083 A  
HETATM   20  C   UNL     1      -9.329   4.304  69.201  1.00  0.00    -0.229 A  
HETATM   21  C   UNL     1      -7.149   2.673  69.704  1.00  0.00    -0.040 A  
HETATM   22  C   UNL     1      -8.417   2.253  70.097  1.00  0.00    -0.087 A  
HETATM   23  C   UNL     1      -6.977   3.885  69.013  1.00  0.00    -0.046 A  
HETATM   24  C   UNL     1      -9.511   3.067  69.836  1.00  0.00    -0.189 A  
ENDBRANCH   7  19
BRANCH   8  25
HETATM   25  C   UNL     1      -8.084   7.616  70.143  1.00  0.00    -0.118 A  
HETATM   26  C   UNL     1      -9.369   7.865  70.654  1.00  0.00    -0.158 A  
HETATM   27  C   UNL     1      -7.254   8.013  72.413  1.00  0.00    -0.109 A  
HETATM   28  C   UNL     1      -7.023   7.710  71.060  1.00  0.00    -0.049 A  
HETATM   29  F   UNL     1      -8.774   8.388  74.183  1.00  0.00    -0.301 F  
HETATM   30  C   UNL     1      -9.617   8.069  72.014  1.00  0.00    -0.262 A  
HETATM   31  C   UNL     1      -8.551   8.153  72.885  1.00  0.00    -0.205 A  
ENDBRANCH   8  25
BRANCH   6  32
HETATM   32  C   UNL     1      -7.535   9.679  67.936  1.00  0.00    -0.083 C  
BRANCH  32  33
HETATM   33  C   UNL     1      -8.881  10.411  67.785  1.00  0.00    -0.128 C  
BRANCH  33  34
HETATM   34  C   UNL     1      -8.749  11.927  67.531  1.00  0.00    -0.163 C  
HETATM   35  O   UNL     1      -8.415  12.225  66.176  1.00  0.00    -0.394 OA 
HETATM   36  H   UNL     1      -8.335  13.159  66.019  1.00  0.00     0.000 HD 
BRANCH  34  37
HETATM   37  C   UNL     1     -10.083  12.635  67.828  1.00  0.00    -0.220 C  
BRANCH  37  38
HETATM   38  C   UNL     1     -10.959  12.839  66.579  1.00  0.00    -0.262 C  
HETATM   39  H   UNL     1     -12.665  12.125  65.851  1.00  0.00     0.000 HD 
HETATM   40  O   UNL     1     -12.124  12.000  66.622  1.00  0.00    -0.615 OA 
BRANCH  38  41
HETATM   41  C   UNL     1     -11.448  14.284  66.496  1.00  0.00    -0.368 C  
HETATM   42  C   UNL     1     -11.361  14.862  65.103  1.00  0.00    -0.379 C  
HETATM   43  O   UNL     1     -11.709  14.007  64.117  1.00  0.00    -0.381 OA 
HETATM   44  O   UNL     1     -11.073  16.030  64.885  1.00  0.00    -0.431 OA 
ENDBRANCH  38  41
ENDBRANCH  37  38
ENDBRANCH  34  37
ENDBRANCH  33  34
ENDBRANCH  32  33
ENDBRANCH   6  32
TORSDOF 10
ENDMDL
MODEL      115
REMARK 921   NORMALIZED FREE ENERGY PREDICTED BY IDOCK:   -4.23 KCAL/MOL
REMARK 922        TOTAL FREE ENERGY PREDICTED BY IDOCK:   -9.45 KCAL/MOL
REMARK 923 INTER-LIGAND FREE ENERGY PREDICTED BY IDOCK:   -6.32 KCAL/MOL
REMARK 924 INTRA-LIGAND FREE ENERGY PREDICTED BY IDOCK:   -3.13 KCAL/MOL
REMARK 927      BINDING AFFINITY PREDICTED BY RF-SCORE:    0.00 PKD
ROOT
HETATM    1  C   UNL     1     -11.525   6.127  71.724  1.00  0.00    -0.342 C  
HETATM    2  C   UNL     1     -11.222   7.544  71.233  1.00  0.00    -0.274 C  
HETATM    3  C   UNL     1     -10.139   7.657  70.152  1.00  0.00    -0.199 A  
HETATM    4  C   UNL     1     -11.044   8.490  72.424  1.00  0.00    -0.397 C  
HETATM    5  C   UNL     1      -9.017   6.867  69.838  1.00  0.00    -0.142 A  
HETATM    6  N   UNL     1     -10.245   8.630  69.148  1.00  0.00    -0.204 NA 
HETATM    7  C   UNL     1      -8.591   7.256  68.487  1.00  0.00    -0.124 A  
HETATM    8  C   UNL     1      -9.317   8.403  68.117  1.00  0.00    -0.133 A  
ENDROOT
BRANCH   5   9
HETATM    9  C   UNL     1      -8.441   5.749  70.649  1.00  0.00    -0.128 C  
HETATM   10  O   UNL     1      -8.590   4.581  70.289  1.00  0.00    -0.076 OA 
HETATM   11  N   UNL     1      -7.747   6.130  71.790  1.00  0.00    -0.100 N  
HETATM   12  H   UNL     1      -7.739   7.126  72.014  1.00  0.00     0.000 HD 
BRANCH  11  13
HETATM   13  C   UNL     1      -7.049   5.265  72.672  1.00  0.00    -0.087 A  
HETATM   14  C   UNL     1      -5.163   4.701  74.109  1.00  0.00    -0.009 A  
HETATM   15  C   UNL     1      -5.739   3.472  74.419  1.00  0.00    -0.004 A  
HETATM   16  C   UNL     1      -7.635   4.041  73.021  1.00  0.00    -0.075 A  
HETATM   17  C   UNL     1      -5.810   5.587  73.234  1.00  0.00    -0.028 A  
HETATM   18  C   UNL     1      -6.973   3.138  73.867  1.00  0.00    -0.041 A  
ENDBRANCH  11  13
ENDBRANCH   5   9
BRANCH   7  19
HETATM   19  C   UNL     1      -7.585   6.606  67.602  1.00  0.00    -0.106 A  
HETATM   20  C   UNL     1      -6.231   6.992  67.642  1.00  0.00    -0.041 A  
HETATM   21  C   UNL     1      -6.968   5.009  65.855  1.00  0.00    -0.066 A  
HETATM   22  C   UNL     1      -5.628   5.376  65.948  1.00  0.00    -0.013 A  
HETATM   23  C   UNL     1      -7.932   5.596  66.692  1.00  0.00    -0.101 A  
HETATM   24  C   UNL     1      -5.258   6.363  66.850  1.00  0.00    -0.008 A  
ENDBRANCH   7  19
BRANCH   8  25
HETATM   25  C   UNL     1      -9.175   9.301  66.913  1.00  0.00    -0.178 A  
HETATM   26  C   UNL     1      -7.981   9.986  66.631  1.00  0.00    -0.115 A  
HETATM   27  C   UNL     1     -10.082  10.324  64.881  1.00  0.00    -0.346 A  
HETATM   28  C   UNL     1     -10.233   9.500  66.011  1.00  0.00    -0.242 A  
HETATM   29  F   UNL     1      -8.693  11.637  63.493  1.00  0.00     0.064 F  
HETATM   30  C   UNL     1      -7.792  10.726  65.461  1.00  0.00    -0.041 A  
HETATM   31  C   UNL     1      -8.852  10.899  64.596  1.00  0.00    -0.085 A  
ENDBRANCH   8  25
BRANCH   6  32
HETATM   32  C   UNL     1     -11.135   9.799  69.224  1.00  0.00    -0.149 C  
BRANCH  32  33
HETATM   33  C   UNL     1     -10.472  11.116  69.669  1.00  0.00     0.003 C  
BRANCH  33  34
HETATM   34  C   UNL     1     -10.936  12.355  68.876  1.00  0.00    -0.223 C  
HETATM   35  O   UNL     1     -11.399  13.404  69.726  1.00  0.00    -0.450 OA 
HETATM   36  H   UNL     1     -11.684  14.167  69.237  1.00  0.00     0.000 HD 
BRANCH  34  37
HETATM   37  C   UNL     1      -9.768  12.929  68.054  1.00  0.00    -0.224 C  
BRANCH  37  38
HETATM   38  C   UNL     1      -9.960  14.406  67.667  1.00  0.00    -0.224 C  
HETATM   39  H   UNL     1      -9.101  16.152  68.071  1.00  0.00     0.000 HD 
HETATM   40  O   UNL     1      -8.983  15.241  68.309  1.00  0.00    -0.169 OA 
BRANCH  38  41
HETATM   41  C   UNL     1      -9.792  14.593  66.160  1.00  0.00    -0.334 C  
HETATM   42  C   UNL     1     -11.067  14.355  65.385  1.00  0.00    -0.331 C  
HETATM   43  O   UNL     1     -12.181  14.840  65.974  1.00  0.00    -0.201 OA 
HETATM   44  O   UNL     1     -11.085  13.832  64.280  1.00  0.00    -0.372 OA 
ENDBRANCH  38  41
ENDBRANCH  37  38
ENDBRANCH  34  37
ENDBRANCH  33  34
ENDBRANCH  32  33
ENDBRANCH   6  32
TORSDOF 10
ENDMDL
MODEL      116
REMARK 921   NORMALIZED FREE ENERGY PREDICTED BY IDOCK:   -4.21 KCAL/MOL
REMARK 922        TOTAL FREE ENERGY PREDICTED BY IDOCK:   -9.42 KCAL/MOL
REMARK 923 INTER-LIGAND FREE ENERGY PREDICTED BY IDOCK:   -6.80 KCAL/MOL
REMARK 924 INTRA-LIGAND FREE ENERGY PREDICTED BY IDOCK:   -2.62 KCAL/MOL
REMARK 927      BINDING AFFINITY PREDICTED BY RF-SCORE:    0.00 PKD
ROOT
HETATM    1  C   UNL     1     -10.104   9.659  70.951  1.00  0.00    -0.257 C  
HETATM    2  C   UNL     1     -10.124   8.283  70.284  1.00  0.00    -0.195 C  
HETATM    3  C   UNL     1      -9.859   8.271  68.773  1.00  0.00    -0.173 A  
HETATM    4  C   UNL     1     -11.362   7.498  70.727  1.00  0.00    -0.300 C  
HETATM    5  C   UNL     1     -10.081   9.222  67.758  1.00  0.00    -0.253 A  
HETATM    6  N   UNL     1      -9.157   7.208  68.188  1.00  0.00    -0.134 NA 
HETATM    7  C   UNL     1      -9.283   8.796  66.600  1.00  0.00    -0.223 A  
HETATM    8  C   UNL     1      -8.787   7.506  66.865  1.00  0.00    -0.135 A  
ENDROOT
BRANCH   5   9
HETATM    9  C   UNL     1     -10.858  10.496  67.863  1.00  0.00    -0.282 C  
HETATM   10  O   UNL     1     -12.086  10.468  67.950  1.00  0.00    -0.110 OA 
HETATM   11  N   UNL     1     -10.103  11.661  67.863  1.00  0.00    -0.183 N  
HETATM   12  H   UNL     1      -9.097  11.560  67.729  1.00  0.00     0.000 HD 
BRANCH  11  13
HETATM   13  C   UNL     1     -10.601  12.980  68.030  1.00  0.00    -0.235 A  
HETATM   14  C   UNL     1     -11.688  14.735  69.325  1.00  0.00    -0.347 A  
HETATM   15  C   UNL     1     -11.558  15.627  68.264  1.00  0.00    -0.326 A  
HETATM   16  C   UNL     1     -10.443  13.899  66.984  1.00  0.00    -0.278 A  
HETATM   17  C   UNL     1     -11.221  13.418  69.205  1.00  0.00    -0.300 A  
HETATM   18  C   UNL     1     -10.943  15.206  67.089  1.00  0.00    -0.326 A  
ENDBRANCH  11  13
ENDBRANCH   5   9
BRANCH   7  19
HETATM   19  C   UNL     1      -8.999   9.536  65.339  1.00  0.00    -0.244 A  
HETATM   20  C   UNL     1     -10.034  10.171  64.624  1.00  0.00    -0.304 A  
HETATM   21  C   UNL     1      -7.465  10.321  63.603  1.00  0.00    -0.087 A  
HETATM   22  C   UNL     1      -8.499  10.979  62.941  1.00  0.00    -0.095 A  
HETATM   23  C   UNL     1      -7.706   9.630  64.803  1.00  0.00    -0.122 A  
HETATM   24  C   UNL     1      -9.784  10.912  63.459  1.00  0.00    -0.384 A  
ENDBRANCH   7  19
BRANCH   8  25
HETATM   25  C   UNL     1      -8.044   6.544  65.972  1.00  0.00    -0.121 A  
HETATM   26  C   UNL     1      -8.712   5.681  65.087  1.00  0.00    -0.096 A  
HETATM   27  C   UNL     1      -5.960   5.573  65.129  1.00  0.00    -0.022 A  
HETATM   28  C   UNL     1      -6.642   6.460  65.981  1.00  0.00    -0.048 A  
HETATM   29  F   UNL     1      -6.012   4.010  63.357  1.00  0.00    -0.015 F  
HETATM   30  C   UNL     1      -8.040   4.869  64.170  1.00  0.00    -0.115 A  
HETATM   31  C   UNL     1      -6.663   4.813  64.205  1.00  0.00    -0.044 A  
ENDBRANCH   8  25
BRANCH   6  32
HETATM   32  C   UNL     1      -8.938   5.908  68.840  1.00  0.00    -0.118 C  
BRANCH  32  33
HETATM   33  C   UNL     1      -9.927   4.793  68.457  1.00  0.00    -0.160 C  
BRANCH  33  34
HETATM   34  C   UNL     1      -9.285   3.395  68.336  1.00  0.00    -0.173 C  
HETATM   35  O   UNL     1      -9.742   2.684  67.184  1.00  0.00    -0.401 OA 
HETATM   36  H   UNL     1      -9.346   1.824  67.110  1.00  0.00     0.000 HD 
BRANCH  34  37
HETATM   37  C   UNL     1      -7.757   3.519  68.205  1.00  0.00    -0.060 C  
BRANCH  37  38
HETATM   38  C   UNL     1      -6.984   2.490  69.049  1.00  0.00    -0.044 C  
HETATM   39  H   UNL     1      -5.093   1.958  69.344  1.00  0.00     0.000 HD 
HETATM   40  O   UNL     1      -5.569   2.593  68.824  1.00  0.00    -0.020 OA 
BRANCH  38  41
HETATM   41  C   UNL     1      -7.222   2.730  70.539  1.00  0.00    -0.033 C  
HETATM   42  C   UNL     1      -6.290   3.761  71.131  1.00  0.00    -0.018 C  
HETATM   43  O   UNL     1      -6.053   4.828  70.337  1.00  0.00    -0.017 OA 
HETATM   44  O   UNL     1      -5.843   3.679  72.267  1.00  0.00    -0.008 OA 
ENDBRANCH  38  41
ENDBRANCH  37  38
ENDBRANCH  34  37
ENDBRANCH  33  34
ENDBRANCH  32  33
ENDBRANCH   6  32
TORSDOF 10
ENDMDL
MODEL      117
REMARK 921   NORMALIZED FREE ENERGY PREDICTED BY IDOCK:   -4.11 KCAL/MOL
REMARK 922        TOTAL FREE ENERGY PREDICTED BY IDOCK:   -9.27 KCAL/MOL
REMARK 923 INTER-LIGAND FREE ENERGY PREDICTED BY IDOCK:   -8.81 KCAL/MOL
REMARK 924 INTRA-LIGAND FREE ENERGY PREDICTED BY IDOCK:   -0.46 KCAL/MOL
REMARK 927      BINDING AFFINITY PREDICTED BY RF-SCORE:    0.00 PKD
ROOT
HETATM    1  C   UNL     1      -7.569   9.538  65.686  1.00  0.00    -0.101 C  
HETATM    2  C   UNL     1      -8.913  10.251  65.849  1.00  0.00    -0.181 C  
HETATM    3  C   UNL     1      -9.699   9.907  67.122  1.00  0.00    -0.178 A  
HETATM    4  C   UNL     1      -9.720  10.164  64.551  1.00  0.00    -0.361 C  
HETATM    5  C   UNL     1      -9.742   8.758  67.936  1.00  0.00    -0.188 A  
HETATM    6  N   UNL     1     -10.469  10.888  67.762  1.00  0.00    -0.192 NA 
HETATM    7  C   UNL     1     -10.374   9.160  69.199  1.00  0.00    -0.223 A  
HETATM    8  C   UNL     1     -10.886  10.460  69.034  1.00  0.00    -0.234 A  
ENDROOT
BRANCH   5   9
HETATM    9  C   UNL     1      -9.142   7.418  67.645  1.00  0.00    -0.125 C  
HETATM   10  O   UNL     1      -8.250   6.969  68.365  1.00  0.00    -0.122 OA 
HETATM   11  N   UNL     1      -9.665   6.754  66.544  1.00  0.00    -0.306 N  
HETATM   12  H   UNL     1     -10.364   7.252  65.991  1.00  0.00     0.000 HD 
BRANCH  11  13
HETATM   13  C   UNL     1      -9.318   5.445  66.115  1.00  0.00    -0.157 A  
HETATM   14  C   UNL     1      -8.106   3.344  66.340  1.00  0.00    -0.092 A  
HETATM   15  C   UNL     1      -8.696   2.854  65.178  1.00  0.00    -0.113 A  
HETATM   16  C   UNL     1      -9.934   4.927  64.967  1.00  0.00     0.136 A  
HETATM   17  C   UNL     1      -8.409   4.634  66.800  1.00  0.00    -0.106 A  
HETATM   18  C   UNL     1      -9.604   3.650  64.486  1.00  0.00    -0.168 A  
ENDBRANCH  11  13
ENDBRANCH   5   9
BRANCH   7  19
HETATM   19  C   UNL     1     -10.490   8.393  70.471  1.00  0.00    -0.227 A  
HETATM   20  C   UNL     1      -9.679   8.706  71.580  1.00  0.00    -0.348 A  
HETATM   21  C   UNL     1     -11.475   6.613  71.828  1.00  0.00    -0.334 A  
HETATM   22  C   UNL     1     -10.695   6.973  72.925  1.00  0.00    -0.320 A  
HETATM   23  C   UNL     1     -11.395   7.332  70.624  1.00  0.00    -0.311 A  
HETATM   24  C   UNL     1      -9.803   8.028  72.803  1.00  0.00    -0.351 A  
ENDBRANCH   7  19
BRANCH   8  25
HETATM   25  C   UNL     1     -11.753  11.291  69.948  1.00  0.00    -0.430 A  
HETATM   26  C   UNL     1     -12.647  10.707  70.861  1.00  0.00    -0.503 A  
HETATM   27  C   UNL     1     -12.509  13.458  70.802  1.00  0.00    -0.418 A  
HETATM   28  C   UNL     1     -11.711  12.695  69.931  1.00  0.00    -0.320 A  
HETATM   29  F   UNL     1     -14.019  13.556  72.617  1.00  0.00    -0.597 F  
HETATM   30  C   UNL     1     -13.369  11.454  71.796  1.00  0.00    -0.368 A  
HETATM   31  C   UNL     1     -13.302  12.830  71.751  1.00  0.00    -0.342 A  
ENDBRANCH   8  25
BRANCH   6  32
HETATM   32  C   UNL     1     -10.879  12.152  67.133  1.00  0.00    -0.244 C  
BRANCH  32  33
HETATM   33  C   UNL     1      -9.761  13.191  66.929  1.00  0.00    -0.243 C  
BRANCH  33  34
HETATM   34  C   UNL     1      -9.185  13.763  68.240  1.00  0.00    -0.204 C  
HETATM   35  O   UNL     1      -8.877  12.742  69.190  1.00  0.00    -0.171 OA 
HETATM   36  H   UNL     1      -8.521  13.094  69.998  1.00  0.00     0.000 HD 
BRANCH  34  37
HETATM   37  C   UNL     1      -7.875  14.522  67.961  1.00  0.00    -0.138 C  
BRANCH  37  38
HETATM   38  C   UNL     1      -7.609  15.669  68.952  1.00  0.00    -0.173 C  
HETATM   39  H   UNL     1      -8.322  16.296  70.697  1.00  0.00     0.000 HD 
HETATM   40  O   UNL     1      -8.486  15.588  70.086  1.00  0.00     0.179 OA 
BRANCH  38  41
HETATM   41  C   UNL     1      -6.178  15.597  69.484  1.00  0.00    -0.152 C  
HETATM   42  C   UNL     1      -6.002  14.573  70.580  1.00  0.00    -0.184 C  
HETATM   43  O   UNL     1      -6.675  13.418  70.385  1.00  0.00     0.240 OA 
HETATM   44  O   UNL     1      -5.253  14.740  71.533  1.00  0.00    -0.139 OA 
ENDBRANCH  38  41
ENDBRANCH  37  38
ENDBRANCH  34  37
ENDBRANCH  33  34
ENDBRANCH  32  33
ENDBRANCH   6  32
TORSDOF 10
ENDMDL
MODEL      118
REMARK 921   NORMALIZED FREE ENERGY PREDICTED BY IDOCK:   -4.08 KCAL/MOL
REMARK 922        TOTAL FREE ENERGY PREDICTED BY IDOCK:   -9.22 KCAL/MOL
REMARK 923 INTER-LIGAND FREE ENERGY PREDICTED BY IDOCK:   -8.19 KCAL/MOL
REMARK 924 INTRA-LIGAND FREE ENERGY PREDICTED BY IDOCK:   -1.03 KCAL/MOL
REMARK 927      BINDING AFFINITY PREDICTED BY RF-SCORE:    0.00 PKD
ROOT
HETATM    1  C   UNL     1      -5.148  12.216  68.892  1.00  0.00    -0.054 C  
HETATM    2  C   UNL     1      -5.985  11.018  69.345  1.00  0.00    -0.050 C  
HETATM    3  C   UNL     1      -7.239  10.728  68.510  1.00  0.00    -0.088 A  
HETATM    4  C   UNL     1      -6.217  11.077  70.857  1.00  0.00     0.268 C  
HETATM    5  C   UNL     1      -8.083  11.550  67.739  1.00  0.00    -0.133 A  
HETATM    6  N   UNL     1      -7.657   9.406  68.302  1.00  0.00    -0.082 NA 
HETATM    7  C   UNL     1      -8.873  10.656  66.881  1.00  0.00    -0.143 A  
HETATM    8  C   UNL     1      -8.648   9.334  67.308  1.00  0.00    -0.125 A  
ENDROOT
BRANCH   5   9
HETATM    9  C   UNL     1      -8.091  13.045  67.686  1.00  0.00    -0.172 C  
HETATM   10  O   UNL     1      -7.212  13.649  67.071  1.00  0.00     0.038 OA 
HETATM   11  N   UNL     1      -9.139  13.663  68.357  1.00  0.00    -0.255 N  
HETATM   12  H   UNL     1      -9.775  13.059  68.877  1.00  0.00     0.000 HD 
BRANCH  11  13
HETATM   13  C   UNL     1      -9.406  15.058  68.386  1.00  0.00    -0.193 A  
HETATM   14  C   UNL     1      -9.239  17.313  67.479  1.00  0.00    -0.227 A  
HETATM   15  C   UNL     1      -9.993  17.816  68.535  1.00  0.00    -0.370 A  
HETATM   16  C   UNL     1     -10.196  15.571  69.423  1.00  0.00    -0.262 A  
HETATM   17  C   UNL     1      -8.939  15.944  67.411  1.00  0.00    -0.203 A  
HETATM   18  C   UNL     1     -10.465  16.945  69.514  1.00  0.00    -0.228 A  
ENDBRANCH  11  13
ENDBRANCH   5   9
BRANCH   7  19
HETATM   19  C   UNL     1      -9.770  11.005  65.744  1.00  0.00    -0.268 A  
HETATM   20  C   UNL     1      -9.346  10.835  64.411  1.00  0.00    -0.279 A  
HETATM   21  C   UNL     1     -11.882  11.855  64.851  1.00  0.00    -0.236 A  
HETATM   22  C   UNL     1     -11.457  11.633  63.544  1.00  0.00    -0.427 A  
HETATM   23  C   UNL     1     -11.060  11.519  65.940  1.00  0.00    -0.274 A  
HETATM   24  C   UNL     1     -10.189  11.112  63.324  1.00  0.00    -0.403 A  
ENDBRANCH   7  19
BRANCH   8  25
HETATM   25  C   UNL     1      -9.311   8.047  66.885  1.00  0.00    -0.209 A  
HETATM   26  C   UNL     1      -8.637   7.076  66.125  1.00  0.00    -0.148 A  
HETATM   27  C   UNL     1     -11.242   6.541  66.845  1.00  0.00    -0.205 A  
HETATM   28  C   UNL     1     -10.641   7.753  67.228  1.00  0.00    -0.376 A  
HETATM   29  F   UNL     1     -11.054   4.399  65.863  1.00  0.00    -0.195 F  
HETATM   30  C   UNL     1      -9.192   5.829  65.826  1.00  0.00    -0.086 A  
HETATM   31  C   UNL     1     -10.500   5.575  66.180  1.00  0.00    -0.094 A  
ENDBRANCH   8  25
BRANCH   6  32
HETATM   32  C   UNL     1      -7.198   8.262  69.103  1.00  0.00    -0.072 C  
BRANCH  32  33
HETATM   33  C   UNL     1      -8.305   7.431  69.779  1.00  0.00    -0.134 C  
BRANCH  33  34
HETATM   34  C   UNL     1      -9.062   8.180  70.895  1.00  0.00    -0.151 C  
HETATM   35  O   UNL     1      -8.549   9.494  71.114  1.00  0.00    -0.312 OA 
HETATM   36  H   UNL     1      -9.015   9.956  71.801  1.00  0.00     0.000 HD 
BRANCH  34  37
HETATM   37  C   UNL     1     -10.546   8.339  70.518  1.00  0.00    -0.233 C  
BRANCH  37  38
HETATM   38  C   UNL     1     -11.400   7.105  70.859  1.00  0.00    -0.286 C  
HETATM   39  H   UNL     1     -11.439   5.686  72.249  1.00  0.00     0.000 HD 
HETATM   40  O   UNL     1     -10.912   6.447  72.039  1.00  0.00    -0.230 OA 
BRANCH  38  41
HETATM   41  C   UNL     1     -12.846   7.513  71.135  1.00  0.00    -0.264 C  
HETATM   42  C   UNL     1     -12.965   8.652  72.120  1.00  0.00    -0.387 C  
HETATM   43  O   UNL     1     -12.040   9.624  71.970  1.00  0.00    -0.343 OA 
HETATM   44  O   UNL     1     -13.868   8.731  72.940  1.00  0.00    -0.295 OA 
ENDBRANCH  38  41
ENDBRANCH  37  38
ENDBRANCH  34  37
ENDBRANCH  33  34
ENDBRANCH  32  33
ENDBRANCH   6  32
TORSDOF 10
ENDMDL
MODEL      119
REMARK 921   NORMALIZED FREE ENERGY PREDICTED BY IDOCK:   -3.99 KCAL/MOL
REMARK 922        TOTAL FREE ENERGY PREDICTED BY IDOCK:   -9.07 KCAL/MOL
REMARK 923 INTER-LIGAND FREE ENERGY PREDICTED BY IDOCK:   -7.13 KCAL/MOL
REMARK 924 INTRA-LIGAND FREE ENERGY PREDICTED BY IDOCK:   -1.95 KCAL/MOL
REMARK 927      BINDING AFFINITY PREDICTED BY RF-SCORE:    0.00 PKD
ROOT
HETATM    1  C   UNL     1      -5.170  12.754  69.080  1.00  0.00    -0.067 C  
HETATM    2  C   UNL     1      -6.466  12.000  68.772  1.00  0.00    -0.077 C  
HETATM    3  C   UNL     1      -7.618  12.852  68.224  1.00  0.00    -0.134 A  
HETATM    4  C   UNL     1      -6.839  11.089  69.945  1.00  0.00    -0.097 C  
HETATM    5  C   UNL     1      -7.962  14.208  68.382  1.00  0.00    -0.142 A  
HETATM    6  N   UNL     1      -8.502  12.317  67.276  1.00  0.00    -0.174 NA 
HETATM    7  C   UNL     1      -8.931  14.524  67.325  1.00  0.00    -0.220 A  
HETATM    8  C   UNL     1      -9.308  13.317  66.708  1.00  0.00    -0.252 A  
ENDROOT
BRANCH   5   9
HETATM    9  C   UNL     1      -7.364  15.188  69.342  1.00  0.00    -0.203 C  
HETATM   10  O   UNL     1      -7.148  14.861  70.509  1.00  0.00     0.107 OA 
HETATM   11  N   UNL     1      -7.080  16.443  68.819  1.00  0.00    -0.168 N  
HETATM   12  H   UNL     1      -7.355  16.614  67.851  1.00  0.00     0.000 HD 
BRANCH  11  13
HETATM   13  C   UNL     1      -6.442  17.510  69.505  1.00  0.00    -0.202 A  
HETATM   14  C   UNL     1      -5.251  18.454  71.410  1.00  0.00    -0.213 A  
HETATM   15  C   UNL     1      -5.193  19.696  70.785  1.00  0.00    -0.252 A  
HETATM   16  C   UNL     1      -6.344  18.756  68.871  1.00  0.00    -0.268 A  
HETATM   17  C   UNL     1      -5.879  17.371  70.777  1.00  0.00     0.337 A  
HETATM   18  C   UNL     1      -5.749  19.850  69.518  1.00  0.00    -0.297 A  
ENDBRANCH  11  13
ENDBRANCH   5   9
BRANCH   7  19
HETATM   19  C   UNL     1      -9.466  15.852  66.915  1.00  0.00    -0.242 A  
HETATM   20  C   UNL     1      -8.976  16.506  65.767  1.00  0.00    -0.006 A  
HETATM   21  C   UNL     1     -10.945  17.773  67.247  1.00  0.00    -0.033 A  
HETATM   22  C   UNL     1     -10.476  18.376  66.082  1.00  0.00    -0.422 A  
HETATM   23  C   UNL     1     -10.466  16.512  67.645  1.00  0.00    -0.305 A  
HETATM   24  C   UNL     1      -9.497  17.736  65.336  1.00  0.00     1.107 A  
ENDBRANCH   7  19
BRANCH   8  25
HETATM   25  C   UNL     1     -10.374  13.041  65.676  1.00  0.00    -0.294 A  
HETATM   26  C   UNL     1     -10.062  12.811  64.326  1.00  0.00    -0.277 A  
HETATM   27  C   UNL     1     -12.720  12.725  65.047  1.00  0.00    -0.455 A  
HETATM   28  C   UNL     1     -11.737  13.003  66.013  1.00  0.00    -0.442 A  
HETATM   29  F   UNL     1     -13.279  12.089  62.841  1.00  0.00    -0.409 F  
HETATM   30  C   UNL     1     -11.021  12.437  63.380  1.00  0.00    -0.442 A  
HETATM   31  C   UNL     1     -12.349  12.408  63.747  1.00  0.00    -0.528 A  
ENDBRANCH   8  25
BRANCH   6  32
HETATM   32  C   UNL     1      -8.641  10.879  67.000  1.00  0.00    -0.136 C  
BRANCH  32  33
HETATM   33  C   UNL     1      -9.891  10.202  67.594  1.00  0.00    -0.201 C  
BRANCH  33  34
HETATM   34  C   UNL     1     -10.496   9.101  66.699  1.00  0.00    -0.167 C  
HETATM   35  O   UNL     1      -9.814   8.977  65.451  1.00  0.00    -0.446 OA 
HETATM   36  H   UNL     1     -10.187   8.299  64.900  1.00  0.00     0.000 HD 
BRANCH  34  37
HETATM   37  C   UNL     1     -10.401   7.733  67.398  1.00  0.00    -0.354 C  
BRANCH  37  38
HETATM   38  C   UNL     1      -9.031   7.052  67.226  1.00  0.00    -0.119 C  
HETATM   39  H   UNL     1      -7.170   7.315  67.871  1.00  0.00     0.000 HD 
HETATM   40  O   UNL     1      -8.015   7.735  67.977  1.00  0.00    -0.118 OA 
BRANCH  38  41
HETATM   41  C   UNL     1      -9.080   5.614  67.738  1.00  0.00    -0.106 C  
HETATM   42  C   UNL     1      -8.961   4.586  66.637  1.00  0.00    -0.114 C  
HETATM   43  O   UNL     1      -8.068   4.896  65.672  1.00  0.00    -0.108 OA 
HETATM   44  O   UNL     1      -9.565   3.523  66.651  1.00  0.00    -0.187 OA 
ENDBRANCH  38  41
ENDBRANCH  37  38
ENDBRANCH  34  37
ENDBRANCH  33  34
ENDBRANCH  32  33
ENDBRANCH   6  32
TORSDOF 10
ENDMDL
MODEL      120
REMARK 921   NORMALIZED FREE ENERGY PREDICTED BY IDOCK:   -3.94 KCAL/MOL
REMARK 922        TOTAL FREE ENERGY PREDICTED BY IDOCK:   -8.99 KCAL/MOL
REMARK 923 INTER-LIGAND FREE ENERGY PREDICTED BY IDOCK:   -6.17 KCAL/MOL
REMARK 924 INTRA-LIGAND FREE ENERGY PREDICTED BY IDOCK:   -2.82 KCAL/MOL
REMARK 927      BINDING AFFINITY PREDICTED BY RF-SCORE:    0.00 PKD
ROOT
HETATM    1  C   UNL     1      -9.854  10.682  69.633  1.00  0.00    -0.052 C  
HETATM    2  C   UNL     1     -10.576   9.407  69.192  1.00  0.00    -0.234 C  
HETATM    3  C   UNL     1     -10.086   8.785  67.878  1.00  0.00    -0.207 A  
HETATM    4  C   UNL     1     -12.092   9.597  69.289  1.00  0.00     0.811 C  
HETATM    5  C   UNL     1      -9.483   9.333  66.729  1.00  0.00    -0.228 A  
HETATM    6  N   UNL     1     -10.076   7.392  67.718  1.00  0.00    -0.173 NA 
HETATM    7  C   UNL     1      -8.903   8.209  65.981  1.00  0.00    -0.206 A  
HETATM    8  C   UNL     1      -9.355   7.015  66.573  1.00  0.00    -0.159 A  
ENDROOT
BRANCH   5   9
HETATM    9  C   UNL     1      -9.330  10.782  66.389  1.00  0.00    -0.174 C  
HETATM   10  O   UNL     1      -8.209  11.286  66.312  1.00  0.00    -0.169 OA 
HETATM   11  N   UNL     1     -10.513  11.475  66.170  1.00  0.00    -0.244 N  
HETATM   12  H   UNL     1     -11.383  10.962  66.318  1.00  0.00     0.000 HD 
BRANCH  11  13
HETATM   13  C   UNL     1     -10.626  12.830  65.760  1.00  0.00    -0.273 A  
HETATM   14  C   UNL     1     -10.019  15.186  65.886  1.00  0.00    -0.355 A  
HETATM   15  C   UNL     1     -10.922  15.494  64.873  1.00  0.00    -0.452 A  
HETATM   16  C   UNL     1     -11.504  13.147  64.716  1.00  0.00    -0.355 A  
HETATM   17  C   UNL     1      -9.879  13.863  66.333  1.00  0.00    -0.304 A  
HETATM   18  C   UNL     1     -11.672  14.475  64.293  1.00  0.00    -0.312 A  
ENDBRANCH  11  13
ENDBRANCH   5   9
BRANCH   7  19
HETATM   19  C   UNL     1      -7.991   8.243  64.804  1.00  0.00    -0.146 A  
HETATM   20  C   UNL     1      -8.453   8.669  63.543  1.00  0.00    -0.072 A  
HETATM   21  C   UNL     1      -5.809   7.875  63.761  1.00  0.00    -0.057 A  
HETATM   22  C   UNL     1      -6.279   8.346  62.537  1.00  0.00    -0.088 A  
HETATM   23  C   UNL     1      -6.647   7.850  64.889  1.00  0.00    -0.051 A  
HETATM   24  C   UNL     1      -7.601   8.753  62.432  1.00  0.00    -0.108 A  
ENDBRANCH   7  19
BRANCH   8  25
HETATM   25  C   UNL     1      -9.193   5.583  66.125  1.00  0.00    -0.166 A  
HETATM   26  C   UNL     1     -10.143   4.945  65.311  1.00  0.00     0.031 A  
HETATM   27  C   UNL     1      -7.932   3.484  66.065  1.00  0.00    -0.092 A  
HETATM   28  C   UNL     1      -8.082   4.811  66.504  1.00  0.00    -0.107 A  
HETATM   29  F   UNL     1      -8.680   1.691  64.720  1.00  0.00    -0.085 F  
HETATM   30  C   UNL     1      -9.954   3.662  64.791  1.00  0.00    -0.160 A  
HETATM   31  C   UNL     1      -8.851   2.934  65.182  1.00  0.00    -0.129 A  
ENDBRANCH   8  25
BRANCH   6  32
HETATM   32  C   UNL     1     -10.823   6.460  68.576  1.00  0.00    -0.314 C  
BRANCH  32  33
HETATM   33  C   UNL     1      -9.980   5.384  69.286  1.00  0.00    -0.277 C  
BRANCH  33  34
HETATM   34  C   UNL     1      -9.454   5.810  70.673  1.00  0.00    -0.164 C  
HETATM   35  O   UNL     1      -9.683   4.815  71.671  1.00  0.00    -0.154 OA 
HETATM   36  H   UNL     1      -9.358   5.077  72.524  1.00  0.00     0.000 HD 
BRANCH  34  37
HETATM   37  C   UNL     1      -7.933   6.044  70.617  1.00  0.00    -0.111 C  
BRANCH  37  38
HETATM   38  C   UNL     1      -7.348   6.585  71.934  1.00  0.00    -0.091 C  
HETATM   39  H   UNL     1      -6.435   5.858  73.542  1.00  0.00     0.000 HD 
HETATM   40  O   UNL     1      -6.796   5.524  72.730  1.00  0.00    -0.073 OA 
BRANCH  38  41
HETATM   41  C   UNL     1      -6.218   7.573  71.652  1.00  0.00    -0.036 C  
HETATM   42  C   UNL     1      -6.476   8.950  72.219  1.00  0.00     0.021 C  
HETATM   43  O   UNL     1      -7.047   8.956  73.442  1.00  0.00    -0.354 OA 
HETATM   44  O   UNL     1      -6.130   9.977  71.653  1.00  0.00    -0.305 OA 
ENDBRANCH  38  41
ENDBRANCH  37  38
ENDBRANCH  34  37
ENDBRANCH  33  34
ENDBRANCH  32  33
ENDBRANCH   6  32
TORSDOF 10
ENDMDL
MODEL      121
REMARK 921   NORMALIZED FREE ENERGY PREDICTED BY IDOCK:   -3.93 KCAL/MOL
REMARK 922        TOTAL FREE ENERGY PREDICTED BY IDOCK:   -8.98 KCAL/MOL
REMARK 923 INTER-LIGAND FREE ENERGY PREDICTED BY IDOCK:   -7.18 KCAL/MOL
REMARK 924 INTRA-LIGAND FREE ENERGY PREDICTED BY IDOCK:   -1.79 KCAL/MOL
REMARK 927      BINDING AFFINITY PREDICTED BY RF-SCORE:    0.00 PKD
ROOT
HETATM    1  C   UNL     1      -6.726  10.441  70.487  1.00  0.00    -0.039 C  
HETATM    2  C   UNL     1      -7.493   9.139  70.242  1.00  0.00    -0.099 C  
HETATM    3  C   UNL     1      -8.123   8.989  68.852  1.00  0.00    -0.104 A  
HETATM    4  C   UNL     1      -8.438   8.854  71.412  1.00  0.00    -0.216 C  
HETATM    5  C   UNL     1      -8.594   9.925  67.911  1.00  0.00    -0.125 A  
HETATM    6  N   UNL     1      -8.189   7.729  68.240  1.00  0.00    -0.123 NA 
HETATM    7  C   UNL     1      -8.726   9.210  66.634  1.00  0.00    -0.140 A  
HETATM    8  C   UNL     1      -8.547   7.837  66.885  1.00  0.00    -0.130 A  
ENDROOT
BRANCH   5   9
HETATM    9  C   UNL     1      -8.794  11.394  68.115  1.00  0.00    -0.162 C  
HETATM   10  O   UNL     1      -7.823  12.140  68.243  1.00  0.00    -0.137 OA 
HETATM   11  N   UNL     1     -10.115  11.822  68.140  1.00  0.00    -0.186 N  
HETATM   12  H   UNL     1     -10.835  11.101  68.079  1.00  0.00     0.000 HD 
BRANCH  11  13
HETATM   13  C   UNL     1     -10.556  13.167  68.241  1.00  0.00    -0.248 A  
HETATM   14  C   UNL     1     -11.056  15.192  69.501  1.00  0.00    -0.287 A  
HETATM   15  C   UNL     1     -11.448  15.845  68.336  1.00  0.00    -0.348 A  
HETATM   16  C   UNL     1     -10.918  13.848  67.071  1.00  0.00    -0.301 A  
HETATM   17  C   UNL     1     -10.622  13.859  69.454  1.00  0.00     0.019 A  
HETATM   18  C   UNL     1     -11.388  15.170  67.121  1.00  0.00    -0.291 A  
ENDBRANCH  11  13
ENDBRANCH   5   9
BRANCH   7  19
HETATM   19  C   UNL     1      -8.994   9.763  65.277  1.00  0.00    -0.233 A  
HETATM   20  C   UNL     1     -10.233  10.363  64.973  1.00  0.00    -0.334 A  
HETATM   21  C   UNL     1      -8.326  10.225  62.970  1.00  0.00    -0.170 A  
HETATM   22  C   UNL     1      -9.541  10.854  62.710  1.00  0.00    -0.339 A  
HETATM   23  C   UNL     1      -8.043   9.710  64.247  1.00  0.00    -0.146 A  
HETATM   24  C   UNL     1     -10.492  10.931  63.717  1.00  0.00    -0.329 A  
ENDBRANCH   7  19
BRANCH   8  25
HETATM   25  C   UNL     1      -8.723   6.648  65.974  1.00  0.00    -0.155 A  
HETATM   26  C   UNL     1      -7.691   6.189  65.139  1.00  0.00    -0.097 A  
HETATM   27  C   UNL     1     -10.081   4.820  65.071  1.00  0.00     0.068 A  
HETATM   28  C   UNL     1      -9.934   5.939  65.910  1.00  0.00     0.150 A  
HETATM   29  F   UNL     1      -9.121   3.253  63.586  1.00  0.00    -0.095 F  
HETATM   30  C   UNL     1      -7.795   5.022  64.378  1.00  0.00    -0.090 A  
HETATM   31  C   UNL     1      -8.998   4.349  64.341  1.00  0.00    -0.151 A  
ENDBRANCH   8  25
BRANCH   6  32
HETATM   32  C   UNL     1      -8.016   6.456  68.956  1.00  0.00    -0.111 C  
BRANCH  32  33
HETATM   33  C   UNL     1      -9.304   5.647  69.200  1.00  0.00    -0.151 C  
BRANCH  33  34
HETATM   34  C   UNL     1     -10.429   6.446  69.891  1.00  0.00    -0.213 C  
HETATM   35  O   UNL     1     -11.645   6.430  69.144  1.00  0.00    -0.608 OA 
HETATM   36  H   UNL     1     -12.338   6.921  69.569  1.00  0.00     0.000 HD 
BRANCH  34  37
HETATM   37  C   UNL     1     -10.745   5.840  71.269  1.00  0.00    -0.323 C  
BRANCH  37  38
HETATM   38  C   UNL     1      -9.510   5.708  72.178  1.00  0.00    -0.149 C  
HETATM   39  H   UNL     1      -8.941   6.324  73.980  1.00  0.00     0.000 HD 
HETATM   40  O   UNL     1      -9.703   6.405  73.419  1.00  0.00    -0.153 OA 
BRANCH  38  41
HETATM   41  C   UNL     1      -9.250   4.242  72.521  1.00  0.00    -0.143 C  
HETATM   42  C   UNL     1     -10.222   3.687  73.537  1.00  0.00    -0.144 C  
HETATM   43  O   UNL     1     -11.499   4.094  73.374  1.00  0.00    -0.256 OA 
HETATM   44  O   UNL     1      -9.898   2.878  74.394  1.00  0.00    -0.095 OA 
ENDBRANCH  38  41
ENDBRANCH  37  38
ENDBRANCH  34  37
ENDBRANCH  33  34
ENDBRANCH  32  33
ENDBRANCH   6  32
TORSDOF 10
ENDMDL
MODEL      122
REMARK 921   NORMALIZED FREE ENERGY PREDICTED BY IDOCK:   -3.92 KCAL/MOL
REMARK 922        TOTAL FREE ENERGY PREDICTED BY IDOCK:   -8.96 KCAL/MOL
REMARK 923 INTER-LIGAND FREE ENERGY PREDICTED BY IDOCK:   -8.12 KCAL/MOL
REMARK 924 INTRA-LIGAND FREE ENERGY PREDICTED BY IDOCK:   -0.84 KCAL/MOL
REMARK 927      BINDING AFFINITY PREDICTED BY RF-SCORE:    0.00 PKD
ROOT
HETATM    1  C   UNL     1     -12.579   7.278  70.615  1.00  0.00    -0.047 C  
HETATM    2  C   UNL     1     -12.003   8.682  70.813  1.00  0.00    -0.143 C  
HETATM    3  C   UNL     1     -10.873   9.079  69.854  1.00  0.00    -0.218 A  
HETATM    4  C   UNL     1     -11.706   8.928  72.294  1.00  0.00    -0.351 C  
HETATM    5  C   UNL     1      -9.901   8.331  69.162  1.00  0.00    -0.179 A  
HETATM    6  N   UNL     1     -10.758  10.404  69.412  1.00  0.00    -0.227 NA 
HETATM    7  C   UNL     1      -9.356   9.211  68.119  1.00  0.00    -0.147 A  
HETATM    8  C   UNL     1      -9.844  10.511  68.349  1.00  0.00    -0.161 A  
ENDROOT
BRANCH   5   9
HETATM    9  C   UNL     1      -9.574   6.883  69.343  1.00  0.00    -0.147 C  
HETATM   10  O   UNL     1      -9.396   6.424  70.472  1.00  0.00    -0.161 OA 
HETATM   11  N   UNL     1      -9.498   6.134  68.176  1.00  0.00    -0.114 N  
HETATM   12  H   UNL     1      -9.609   6.638  67.296  1.00  0.00     0.000 HD 
BRANCH  11  13
HETATM   13  C   UNL     1      -9.281   4.733  68.094  1.00  0.00    -0.124 A  
HETATM   14  C   UNL     1      -9.341   2.599  66.920  1.00  0.00    -0.062 A  
HETATM   15  C   UNL     1      -8.811   1.949  68.030  1.00  0.00    -0.148 A  
HETATM   16  C   UNL     1      -8.713   4.073  69.192  1.00  0.00    -0.127 A  
HETATM   17  C   UNL     1      -9.583   3.980  66.955  1.00  0.00    -0.232 A  
HETATM   18  C   UNL     1      -8.505   2.685  69.171  1.00  0.00    -0.098 A  
ENDBRANCH  11  13
ENDBRANCH   5   9
BRANCH   7  19
HETATM   19  C   UNL     1      -8.449   8.868  66.989  1.00  0.00    -0.112 A  
HETATM   20  C   UNL     1      -7.050   8.863  67.160  1.00  0.00    -0.082 A  
HETATM   21  C   UNL     1      -8.058   8.239  64.658  1.00  0.00    -0.150 A  
HETATM   22  C   UNL     1      -6.682   8.196  64.866  1.00  0.00    -0.055 A  
HETATM   23  C   UNL     1      -8.934   8.544  65.713  1.00  0.00    -0.229 A  
HETATM   24  C   UNL     1      -6.178   8.499  66.123  1.00  0.00    -0.052 A  
ENDBRANCH   7  19
BRANCH   8  25
HETATM   25  C   UNL     1      -9.490  11.817  67.683  1.00  0.00    -0.180 A  
HETATM   26  C   UNL     1     -10.256  12.350  66.633  1.00  0.00    -0.241 A  
HETATM   27  C   UNL     1      -8.062  13.795  67.463  1.00  0.00    -0.192 A  
HETATM   28  C   UNL     1      -8.371  12.569  68.078  1.00  0.00    -0.171 A  
HETATM   29  F   UNL     1      -8.646  15.515  65.951  1.00  0.00    -0.310 F  
HETATM   30  C   UNL     1     -10.015  13.612  66.084  1.00  0.00    -0.314 A  
HETATM   31  C   UNL     1      -8.908  14.323  66.497  1.00  0.00    -0.063 A  
ENDBRANCH   8  25
BRANCH   6  32
HETATM   32  C   UNL     1     -11.422  11.548  70.055  1.00  0.00    -0.220 C  
BRANCH  32  33
HETATM   33  C   UNL     1     -12.210  12.479  69.115  1.00  0.00    -0.051 C  
BRANCH  33  34
HETATM   34  C   UNL     1     -11.792  13.962  69.200  1.00  0.00    -0.358 C  
HETATM   35  O   UNL     1     -12.899  14.849  69.044  1.00  0.00    -0.282 OA 
HETATM   36  H   UNL     1     -12.642  15.762  69.097  1.00  0.00     0.000 HD 
BRANCH  34  37
HETATM   37  C   UNL     1     -11.171  14.262  70.576  1.00  0.00     0.059 C  
BRANCH  37  38
HETATM   38  C   UNL     1     -11.697  15.559  71.216  1.00  0.00    -0.401 C  
HETATM   39  H   UNL     1     -11.953  17.457  70.688  1.00  0.00     0.000 HD 
HETATM   40  O   UNL     1     -11.629  16.657  70.293  1.00  0.00     0.012 OA 
BRANCH  38  41
HETATM   41  C   UNL     1     -13.162  15.401  71.621  1.00  0.00    -0.563 C  
HETATM   42  C   UNL     1     -13.393  14.263  72.587  1.00  0.00    -0.525 C  
HETATM   43  O   UNL     1     -12.444  14.131  73.539  1.00  0.00    -0.238 OA 
HETATM   44  O   UNL     1     -14.393  13.560  72.560  1.00  0.00    -0.713 OA 
ENDBRANCH  38  41
ENDBRANCH  37  38
ENDBRANCH  34  37
ENDBRANCH  33  34
ENDBRANCH  32  33
ENDBRANCH   6  32
TORSDOF 10
ENDMDL
MODEL      123
REMARK 921   NORMALIZED FREE ENERGY PREDICTED BY IDOCK:   -3.91 KCAL/MOL
REMARK 922        TOTAL FREE ENERGY PREDICTED BY IDOCK:   -8.95 KCAL/MOL
REMARK 923 INTER-LIGAND FREE ENERGY PREDICTED BY IDOCK:   -5.87 KCAL/MOL
REMARK 924 INTRA-LIGAND FREE ENERGY PREDICTED BY IDOCK:   -3.08 KCAL/MOL
REMARK 927      BINDING AFFINITY PREDICTED BY RF-SCORE:    0.00 PKD
ROOT
HETATM    1  C   UNL     1      -6.270  11.503  70.060  1.00  0.00    -0.142 C  
HETATM    2  C   UNL     1      -6.537  10.024  69.772  1.00  0.00    -0.074 C  
HETATM    3  C   UNL     1      -7.282   9.724  68.465  1.00  0.00    -0.070 A  
HETATM    4  C   UNL     1      -7.112   9.338  71.013  1.00  0.00    -0.090 C  
HETATM    5  C   UNL     1      -8.207  10.463  67.702  1.00  0.00    -0.110 A  
HETATM    6  N   UNL     1      -6.980   8.569  67.730  1.00  0.00    -0.074 NA 
HETATM    7  C   UNL     1      -8.271   9.824  66.381  1.00  0.00    -0.120 A  
HETATM    8  C   UNL     1      -7.565   8.609  66.453  1.00  0.00    -0.091 A  
ENDROOT
BRANCH   5   9
HETATM    9  C   UNL     1      -8.894  11.734  68.093  1.00  0.00    -0.169 C  
HETATM   10  O   UNL     1      -9.810  11.716  68.915  1.00  0.00    -0.154 OA 
HETATM   11  N   UNL     1      -8.421  12.885  67.478  1.00  0.00    -0.174 N  
HETATM   12  H   UNL     1      -7.694  12.767  66.771  1.00  0.00     0.000 HD 
BRANCH  11  13
HETATM   13  C   UNL     1      -8.854  14.212  67.740  1.00  0.00    -0.185 A  
HETATM   14  C   UNL     1     -10.278  16.146  67.326  1.00  0.00    -0.277 A  
HETATM   15  C   UNL     1      -9.642  16.857  68.340  1.00  0.00    -0.255 A  
HETATM   16  C   UNL     1      -8.248  14.926  68.782  1.00  0.00    -0.161 A  
HETATM   17  C   UNL     1      -9.880  14.835  67.023  1.00  0.00    -0.240 A  
HETATM   18  C   UNL     1      -8.619  16.250  69.063  1.00  0.00    -0.247 A  
ENDBRANCH  11  13
ENDBRANCH   5   9
BRANCH   7  19
HETATM   19  C   UNL     1      -8.937  10.309  65.140  1.00  0.00    -0.220 A  
HETATM   20  C   UNL     1      -8.227  10.399  63.926  1.00  0.00    -0.115 A  
HETATM   21  C   UNL     1     -10.886  11.171  63.939  1.00  0.00    -0.346 A  
HETATM   22  C   UNL     1     -10.174  11.205  62.743  1.00  0.00    -0.056 A  
HETATM   23  C   UNL     1     -10.283  10.702  65.119  1.00  0.00    -0.368 A  
HETATM   24  C   UNL     1      -8.844  10.809  62.735  1.00  0.00    -0.291 A  
ENDBRANCH   7  19
BRANCH   8  25
HETATM   25  C   UNL     1      -7.438   7.494  65.444  1.00  0.00    -0.082 A  
HETATM   26  C   UNL     1      -6.360   7.419  64.548  1.00  0.00    -0.040 A  
HETATM   27  C   UNL     1      -8.259   5.427  64.417  1.00  0.00    -0.133 A  
HETATM   28  C   UNL     1      -8.398   6.472  65.348  1.00  0.00    -0.140 A  
HETATM   29  F   UNL     1      -6.965   4.325  62.776  1.00  0.00    -0.032 F  
HETATM   30  C   UNL     1      -6.163   6.334  63.689  1.00  0.00    -0.026 A  
HETATM   31  C   UNL     1      -7.124   5.348  63.622  1.00  0.00    -0.048 A  
ENDBRANCH   8  25
BRANCH   6  32
HETATM   32  C   UNL     1      -6.243   7.418  68.272  1.00  0.00    -0.036 C  
BRANCH  32  33
HETATM   33  C   UNL     1      -7.103   6.317  68.919  1.00  0.00    -0.082 C  
BRANCH  33  34
HETATM   34  C   UNL     1      -6.337   5.011  69.216  1.00  0.00    -0.031 C  
HETATM   35  O   UNL     1      -5.934   4.914  70.582  1.00  0.00    -0.016 OA 
HETATM   36  H   UNL     1      -5.463   4.110  70.764  1.00  0.00     0.000 HD 
BRANCH  34  37
HETATM   37  C   UNL     1      -7.231   3.792  68.928  1.00  0.00    -0.050 C  
BRANCH  37  38
HETATM   38  C   UNL     1      -8.731   4.131  68.872  1.00  0.00    -0.092 C  
HETATM   39  H   UNL     1     -10.354   3.458  67.945  1.00  0.00     0.000 HD 
HETATM   40  O   UNL     1      -9.429   3.249  67.979  1.00  0.00    -0.195 OA 
BRANCH  38  41
HETATM   41  C   UNL     1      -9.368   3.972  70.252  1.00  0.00    -0.234 C  
HETATM   42  C   UNL     1      -9.955   5.256  70.788  1.00  0.00    -0.211 C  
HETATM   43  O   UNL     1     -10.593   6.011  69.868  1.00  0.00    -0.223 OA 
HETATM   44  O   UNL     1      -9.923   5.558  71.973  1.00  0.00    -0.173 OA 
ENDBRANCH  38  41
ENDBRANCH  37  38
ENDBRANCH  34  37
ENDBRANCH  33  34
ENDBRANCH  32  33
ENDBRANCH   6  32
TORSDOF 10
ENDMDL
MODEL      124
REMARK 921   NORMALIZED FREE ENERGY PREDICTED BY IDOCK:   -3.81 KCAL/MOL
REMARK 922        TOTAL FREE ENERGY PREDICTED BY IDOCK:   -8.79 KCAL/MOL
REMARK 923 INTER-LIGAND FREE ENERGY PREDICTED BY IDOCK:   -7.49 KCAL/MOL
REMARK 924 INTRA-LIGAND FREE ENERGY PREDICTED BY IDOCK:   -1.31 KCAL/MOL
REMARK 927      BINDING AFFINITY PREDICTED BY RF-SCORE:    0.00 PKD
ROOT
HETATM    1  C   UNL     1      -5.195  13.297  68.700  1.00  0.00    -0.070 C  
HETATM    2  C   UNL     1      -5.780  11.945  69.114  1.00  0.00    -0.059 C  
HETATM    3  C   UNL     1      -7.107  11.562  68.448  1.00  0.00    -0.081 A  
HETATM    4  C   UNL     1      -5.760  11.804  70.638  1.00  0.00    -0.123 C  
HETATM    5  C   UNL     1      -8.170  12.327  67.928  1.00  0.00    -0.161 A  
HETATM    6  N   UNL     1      -7.378  10.223  68.134  1.00  0.00    -0.084 NA 
HETATM    7  C   UNL     1      -8.969  11.423  67.090  1.00  0.00    -0.162 A  
HETATM    8  C   UNL     1      -8.504  10.111  67.301  1.00  0.00    -0.125 A  
ENDROOT
BRANCH   5   9
HETATM    9  C   UNL     1      -8.382  13.801  68.073  1.00  0.00    -0.171 C  
HETATM   10  O   UNL     1      -9.096  14.239  68.975  1.00  0.00    -0.086 OA 
HETATM   11  N   UNL     1      -7.723  14.596  67.144  1.00  0.00    -0.315 N  
HETATM   12  H   UNL     1      -7.205  14.115  66.409  1.00  0.00     0.000 HD 
BRANCH  11  13
HETATM   13  C   UNL     1      -7.705  16.015  67.123  1.00  0.00    -0.207 A  
HETATM   14  C   UNL     1      -8.285  18.202  68.028  1.00  0.00    -0.266 A  
HETATM   15  C   UNL     1      -7.608  18.835  66.991  1.00  0.00    -0.239 A  
HETATM   16  C   UNL     1      -6.995  16.665  66.104  1.00  0.00     0.290 A  
HETATM   17  C   UNL     1      -8.340  16.801  68.089  1.00  0.00    -0.201 A  
HETATM   18  C   UNL     1      -6.970  18.066  66.022  1.00  0.00    -0.340 A  
ENDBRANCH  11  13
ENDBRANCH   5   9
BRANCH   7  19
HETATM   19  C   UNL     1     -10.082  11.754  66.157  1.00  0.00    -0.255 A  
HETATM   20  C   UNL     1      -9.975  11.484  64.778  1.00  0.00    -0.304 A  
HETATM   21  C   UNL     1     -12.304  12.666  65.696  1.00  0.00    -0.390 A  
HETATM   22  C   UNL     1     -12.191  12.346  64.345  1.00  0.00    -0.519 A  
HETATM   23  C   UNL     1     -11.274  12.348  66.597  1.00  0.00    -0.366 A  
HETATM   24  C   UNL     1     -11.027  11.744  63.888  1.00  0.00    -0.476 A  
ENDBRANCH   7  19
BRANCH   8  25
HETATM   25  C   UNL     1      -9.055   8.792  66.818  1.00  0.00    -0.180 A  
HETATM   26  C   UNL     1      -8.378   8.003  65.874  1.00  0.00    -0.136 A  
HETATM   27  C   UNL     1     -10.772   7.045  66.845  1.00  0.00    -0.376 A  
HETATM   28  C   UNL     1     -10.278   8.286  67.288  1.00  0.00    -0.344 A  
HETATM   29  F   UNL     1     -10.459   5.057  65.608  1.00  0.00    -0.211 F  
HETATM   30  C   UNL     1      -8.811   6.727  65.503  1.00  0.00     0.014 A  
HETATM   31  C   UNL     1     -10.016   6.261  65.986  1.00  0.00     0.237 A  
ENDBRANCH   8  25
BRANCH   6  32
HETATM   32  C   UNL     1      -6.645   9.080  68.700  1.00  0.00    -0.054 C  
BRANCH  32  33
HETATM   33  C   UNL     1      -7.502   8.038  69.443  1.00  0.00    -0.096 C  
BRANCH  33  34
HETATM   34  C   UNL     1      -7.815   8.409  70.907  1.00  0.00    -0.098 C  
HETATM   35  O   UNL     1      -8.175   9.782  71.056  1.00  0.00    -0.357 OA 
HETATM   36  H   UNL     1      -8.368  10.010  71.958  1.00  0.00     0.000 HD 
BRANCH  34  37
HETATM   37  C   UNL     1      -9.002   7.578  71.426  1.00  0.00    -0.140 C  
BRANCH  37  38
HETATM   38  C   UNL     1      -9.034   7.444  72.958  1.00  0.00    -0.147 C  
HETATM   39  H   UNL     1     -10.398   7.443  74.403  1.00  0.00     0.000 HD 
HETATM   40  O   UNL     1     -10.378   7.525  73.458  1.00  0.00    -0.345 OA 
BRANCH  38  41
HETATM   41  C   UNL     1      -8.472   6.091  73.391  1.00  0.00    -0.116 C  
HETATM   42  C   UNL     1      -9.540   5.040  73.590  1.00  0.00    -0.129 C  
HETATM   43  O   UNL     1     -10.529   5.063  72.671  1.00  0.00    -0.193 OA 
HETATM   44  O   UNL     1      -9.480   4.189  74.465  1.00  0.00    -0.105 OA 
ENDBRANCH  38  41
ENDBRANCH  37  38
ENDBRANCH  34  37
ENDBRANCH  33  34
ENDBRANCH  32  33
ENDBRANCH   6  32
TORSDOF 10
ENDMDL
MODEL      125
REMARK 921   NORMALIZED FREE ENERGY PREDICTED BY IDOCK:   -3.77 KCAL/MOL
REMARK 922        TOTAL FREE ENERGY PREDICTED BY IDOCK:   -8.73 KCAL/MOL
REMARK 923 INTER-LIGAND FREE ENERGY PREDICTED BY IDOCK:   -5.81 KCAL/MOL
REMARK 924 INTRA-LIGAND FREE ENERGY PREDICTED BY IDOCK:   -2.92 KCAL/MOL
REMARK 927      BINDING AFFINITY PREDICTED BY RF-SCORE:    0.00 PKD
ROOT
HETATM    1  C   UNL     1      -9.985  11.973  66.680  1.00  0.00    -0.219 C  
HETATM    2  C   UNL     1      -9.991  10.452  66.516  1.00  0.00    -0.271 C  
HETATM    3  C   UNL     1      -9.253   9.662  67.605  1.00  0.00    -0.130 A  
HETATM    4  C   UNL     1      -9.619  10.072  65.081  1.00  0.00    -0.356 C  
HETATM    5  C   UNL     1      -8.168   9.979  68.445  1.00  0.00    -0.106 A  
HETATM    6  N   UNL     1      -9.733   8.411  68.017  1.00  0.00    -0.154 NA 
HETATM    7  C   UNL     1      -8.162   8.981  69.522  1.00  0.00    -0.114 A  
HETATM    8  C   UNL     1      -9.089   7.977  69.188  1.00  0.00    -0.145 A  
ENDROOT
BRANCH   5   9
HETATM    9  C   UNL     1      -7.271  11.174  68.354  1.00  0.00    -0.083 C  
HETATM   10  O   UNL     1      -6.225  11.116  67.708  1.00  0.00    -0.050 OA 
HETATM   11  N   UNL     1      -7.711  12.305  69.029  1.00  0.00    -0.331 N  
HETATM   12  H   UNL     1      -8.567  12.214  69.576  1.00  0.00     0.000 HD 
BRANCH  11  13
HETATM   13  C   UNL     1      -7.079  13.577  69.028  1.00  0.00    -0.066 A  
HETATM   14  C   UNL     1      -5.633  15.277  70.006  1.00  0.00    -0.126 A  
HETATM   15  C   UNL     1      -5.870  16.128  68.931  1.00  0.00    -0.118 A  
HETATM   16  C   UNL     1      -7.280  14.429  67.933  1.00  0.00    -0.169 A  
HETATM   17  C   UNL     1      -6.241  14.013  70.058  1.00  0.00    -0.142 A  
HETATM   18  C   UNL     1      -6.701  15.707  67.897  1.00  0.00    -0.167 A  
ENDBRANCH  11  13
ENDBRANCH   5   9
BRANCH   7  19
HETATM   19  C   UNL     1      -7.356   8.963  70.774  1.00  0.00    -0.091 A  
HETATM   20  C   UNL     1      -7.919   8.531  71.991  1.00  0.00    -0.160 A  
HETATM   21  C   UNL     1      -5.279   9.364  72.003  1.00  0.00    -0.075 A  
HETATM   22  C   UNL     1      -5.847   8.889  73.182  1.00  0.00    -0.072 A  
HETATM   23  C   UNL     1      -6.015   9.376  70.806  1.00  0.00    -0.063 A  
HETATM   24  C   UNL     1      -7.167   8.461  73.173  1.00  0.00    -0.109 A  
ENDBRANCH   7  19
BRANCH   8  25
HETATM   25  C   UNL     1      -9.377   6.654  69.854  1.00  0.00    -0.153 A  
HETATM   26  C   UNL     1      -8.520   5.549  69.717  1.00  0.00    -0.105 A  
HETATM   27  C   UNL     1     -10.767   5.226  71.277  1.00  0.00    -0.198 A  
HETATM   28  C   UNL     1     -10.521   6.457  70.646  1.00  0.00    -0.269 A  
HETATM   29  F   UNL     1     -10.046   3.045  71.834  1.00  0.00    -0.231 F  
HETATM   30  C   UNL     1      -8.706   4.355  70.419  1.00  0.00    -0.122 A  
HETATM   31  C   UNL     1      -9.839   4.198  71.188  1.00  0.00    -0.174 A  
ENDBRANCH   8  25
BRANCH   6  32
HETATM   32  C   UNL     1     -10.703   7.609  67.254  1.00  0.00    -0.274 C  
BRANCH  32  33
HETATM   33  C   UNL     1     -10.103   6.510  66.358  1.00  0.00    -0.061 C  
BRANCH  33  34
HETATM   34  C   UNL     1      -8.564   6.543  66.265  1.00  0.00    -0.141 C  
HETATM   35  O   UNL     1      -7.981   5.250  66.431  1.00  0.00    -0.103 OA 
HETATM   36  H   UNL     1      -7.033   5.270  66.373  1.00  0.00     0.000 HD 
BRANCH  34  37
HETATM   37  C   UNL     1      -8.124   7.055  64.882  1.00  0.00    -0.107 C  
BRANCH  37  38
HETATM   38  C   UNL     1      -6.808   7.852  64.914  1.00  0.00    -0.054 C  
HETATM   39  H   UNL     1      -4.899   7.515  65.354  1.00  0.00     0.000 HD 
HETATM   40  O   UNL     1      -5.711   7.024  65.334  1.00  0.00    -0.030 OA 
BRANCH  38  41
HETATM   41  C   UNL     1      -6.466   8.381  63.522  1.00  0.00    -0.081 C  
HETATM   42  C   UNL     1      -6.372   9.888  63.465  1.00  0.00    -0.124 C  
HETATM   43  O   UNL     1      -5.773  10.455  64.534  1.00  0.00    -0.127 OA 
HETATM   44  O   UNL     1      -6.739  10.541  62.499  1.00  0.00    -0.138 OA 
ENDBRANCH  38  41
ENDBRANCH  37  38
ENDBRANCH  34  37
ENDBRANCH  33  34
ENDBRANCH  32  33
ENDBRANCH   6  32
TORSDOF 10
ENDMDL
MODEL      126
REMARK 921   NORMALIZED FREE ENERGY PREDICTED BY IDOCK:   -3.76 KCAL/MOL
REMARK 922        TOTAL FREE ENERGY PREDICTED BY IDOCK:   -8.72 KCAL/MOL
REMARK 923 INTER-LIGAND FREE ENERGY PREDICTED BY IDOCK:   -8.07 KCAL/MOL
REMARK 924 INTRA-LIGAND FREE ENERGY PREDICTED BY IDOCK:   -0.64 KCAL/MOL
REMARK 927      BINDING AFFINITY PREDICTED BY RF-SCORE:    0.00 PKD
ROOT
HETATM    1  C   UNL     1     -12.355  13.554  66.398  1.00  0.00    -0.413 C  
HETATM    2  C   UNL     1     -11.498  12.291  66.291  1.00  0.00    -0.435 C  
HETATM    3  C   UNL     1     -10.129  12.355  66.980  1.00  0.00    -0.214 A  
HETATM    4  C   UNL     1     -11.466  11.794  64.843  1.00  0.00    -0.269 C  
HETATM    5  C   UNL     1      -9.254  13.421  67.270  1.00  0.00    -0.222 A  
HETATM    6  N   UNL     1      -9.591  11.212  67.588  1.00  0.00    -0.168 NA 
HETATM    7  C   UNL     1      -8.297  12.922  68.266  1.00  0.00    -0.157 A  
HETATM    8  C   UNL     1      -8.478  11.532  68.384  1.00  0.00    -0.159 A  
ENDROOT
BRANCH   5   9
HETATM    9  C   UNL     1      -9.349  14.830  66.777  1.00  0.00    -0.249 C  
HETATM   10  O   UNL     1      -9.090  15.096  65.603  1.00  0.00    -0.099 OA 
HETATM   11  N   UNL     1      -9.746  15.770  67.719  1.00  0.00    -0.215 N  
HETATM   12  H   UNL     1      -9.879  15.438  68.675  1.00  0.00     0.000 HD 
BRANCH  11  13
HETATM   13  C   UNL     1      -9.984  17.148  67.477  1.00  0.00    -0.279 A  
HETATM   14  C   UNL     1     -10.055  19.485  68.163  1.00  0.00    -0.537 A  
HETATM   15  C   UNL     1     -10.483  19.866  66.894  1.00  0.00    -0.577 A  
HETATM   16  C   UNL     1     -10.379  17.549  66.194  1.00  0.00    -0.330 A  
HETATM   17  C   UNL     1      -9.816  18.134  68.454  1.00  0.00    -0.380 A  
HETATM   18  C   UNL     1     -10.654  18.896  65.911  1.00  0.00    -0.438 A  
ENDBRANCH  11  13
ENDBRANCH   5   9
BRANCH   7  19
HETATM   19  C   UNL     1      -7.290  13.684  69.056  1.00  0.00    -0.014 A  
HETATM   20  C   UNL     1      -6.117  13.059  69.526  1.00  0.00    -0.115 A  
HETATM   21  C   UNL     1      -6.501  15.734  70.133  1.00  0.00     0.009 A  
HETATM   22  C   UNL     1      -5.329  15.105  70.545  1.00  0.00    -0.133 A  
HETATM   23  C   UNL     1      -7.458  15.040  69.373  1.00  0.00    -0.196 A  
HETATM   24  C   UNL     1      -5.133  13.767  70.232  1.00  0.00    -0.094 A  
ENDBRANCH   7  19
BRANCH   8  25
HETATM   25  C   UNL     1      -7.673  10.504  69.141  1.00  0.00    -0.131 A  
HETATM   26  C   UNL     1      -8.185   9.841  70.269  1.00  0.00    -0.178 A  
HETATM   27  C   UNL     1      -5.634   9.186  69.460  1.00  0.00    -0.034 A  
HETATM   28  C   UNL     1      -6.366  10.160  68.758  1.00  0.00    -0.048 A  
HETATM   29  F   UNL     1      -5.545   7.527  71.140  1.00  0.00    -0.033 F  
HETATM   30  C   UNL     1      -7.502   8.804  70.911  1.00  0.00    -0.094 A  
HETATM   31  C   UNL     1      -6.222   8.491  70.507  1.00  0.00    -0.035 A  
ENDBRANCH   8  25
BRANCH   6  32
HETATM   32  C   UNL     1     -10.064   9.843  67.331  1.00  0.00    -0.205 C  
BRANCH  32  33
HETATM   33  C   UNL     1      -9.402   9.118  66.145  1.00  0.00    -0.288 C  
BRANCH  33  34
HETATM   34  C   UNL     1      -9.273   7.592  66.332  1.00  0.00    -0.175 C  
HETATM   35  O   UNL     1     -10.542   6.948  66.440  1.00  0.00    -0.492 OA 
HETATM   36  H   UNL     1     -10.463   6.008  66.554  1.00  0.00     0.000 HD 
BRANCH  34  37
HETATM   37  C   UNL     1      -8.557   6.966  65.122  1.00  0.00     0.046 C  
BRANCH  37  38
HETATM   38  C   UNL     1      -7.693   7.967  64.335  1.00  0.00    -0.123 C  
HETATM   39  H   UNL     1      -5.917   7.990  63.445  1.00  0.00     0.000 HD 
HETATM   40  O   UNL     1      -6.450   7.372  63.930  1.00  0.00    -0.047 OA 
BRANCH  38  41
HETATM   41  C   UNL     1      -8.413   8.414  63.064  1.00  0.00    -0.040 C  
HETATM   42  C   UNL     1      -8.538   9.915  62.948  1.00  0.00    -0.194 C  
HETATM   43  O   UNL     1      -7.445  10.603  63.344  1.00  0.00    -0.026 OA 
HETATM   44  O   UNL     1      -9.517  10.466  62.465  1.00  0.00    -0.292 OA 
ENDBRANCH  38  41
ENDBRANCH  37  38
ENDBRANCH  34  37
ENDBRANCH  33  34
ENDBRANCH  32  33
ENDBRANCH   6  32
TORSDOF 10
ENDMDL
MODEL      127
REMARK 921   NORMALIZED FREE ENERGY PREDICTED BY IDOCK:   -3.75 KCAL/MOL
REMARK 922        TOTAL FREE ENERGY PREDICTED BY IDOCK:   -8.69 KCAL/MOL
REMARK 923 INTER-LIGAND FREE ENERGY PREDICTED BY IDOCK:   -8.27 KCAL/MOL
REMARK 924 INTRA-LIGAND FREE ENERGY PREDICTED BY IDOCK:   -0.42 KCAL/MOL
REMARK 927      BINDING AFFINITY PREDICTED BY RF-SCORE:    0.00 PKD
ROOT
HETATM    1  C   UNL     1     -11.764  14.573  67.286  1.00  0.00    -0.429 C  
HETATM    2  C   UNL     1     -10.385  13.924  67.426  1.00  0.00    -0.252 C  
HETATM    3  C   UNL     1     -10.316  12.699  68.347  1.00  0.00    -0.235 A  
HETATM    4  C   UNL     1      -9.322  14.992  67.694  1.00  0.00    -0.194 C  
HETATM    5  C   UNL     1     -11.070  12.305  69.470  1.00  0.00    -0.101 A  
HETATM    6  N   UNL     1      -9.451  11.638  68.046  1.00  0.00    -0.178 NA 
HETATM    7  C   UNL     1     -10.789  10.880  69.688  1.00  0.00    -0.271 A  
HETATM    8  C   UNL     1      -9.724  10.514  68.844  1.00  0.00    -0.199 A  
ENDROOT
BRANCH   5   9
HETATM    9  C   UNL     1     -12.072  13.124  70.221  1.00  0.00    -0.328 C  
HETATM   10  O   UNL     1     -13.277  12.962  70.025  1.00  0.00     0.733 OA 
HETATM   11  N   UNL     1     -11.545  14.037  71.124  1.00  0.00    -0.398 N  
HETATM   12  H   UNL     1     -10.528  14.120  71.158  1.00  0.00     0.000 HD 
BRANCH  11  13
HETATM   13  C   UNL     1     -12.288  14.867  72.005  1.00  0.00    -0.344 A  
HETATM   14  C   UNL     1     -14.311  16.047  72.675  1.00  0.00     0.024 A  
HETATM   15  C   UNL     1     -13.680  16.523  73.820  1.00  0.00     0.811 A  
HETATM   16  C   UNL     1     -11.676  15.322  73.180  1.00  0.00    -0.419 A  
HETATM   17  C   UNL     1     -13.617  15.232  71.769  1.00  0.00    -0.581 A  
HETATM   18  C   UNL     1     -12.357  16.167  74.069  1.00  0.00    -0.684 A  
ENDBRANCH  11  13
ENDBRANCH   5   9
BRANCH   7  19
HETATM   19  C   UNL     1     -11.464   9.925  70.610  1.00  0.00    -0.411 A  
HETATM   20  C   UNL     1     -10.714   9.094  71.466  1.00  0.00    -0.437 A  
HETATM   21  C   UNL     1     -13.474   8.884  71.536  1.00  0.00    -0.381 A  
HETATM   22  C   UNL     1     -12.711   8.108  72.405  1.00  0.00    -0.235 A  
HETATM   23  C   UNL     1     -12.861   9.803  70.668  1.00  0.00    -0.138 A  
HETATM   24  C   UNL     1     -11.329   8.221  72.376  1.00  0.00    -0.457 A  
ENDBRANCH   7  19
BRANCH   8  25
HETATM   25  C   UNL     1      -8.939   9.228  68.766  1.00  0.00    -0.132 A  
HETATM   26  C   UNL     1      -9.365   8.141  67.985  1.00  0.00    -0.144 A  
HETATM   27  C   UNL     1      -7.007   7.853  69.381  1.00  0.00    -0.059 A  
HETATM   28  C   UNL     1      -7.740   9.050  69.476  1.00  0.00    -0.082 A  
HETATM   29  F   UNL     1      -6.696   5.733  68.384  1.00  0.00    -0.045 F  
HETATM   30  C   UNL     1      -8.595   6.989  67.807  1.00  0.00    -0.122 A  
HETATM   31  C   UNL     1      -7.422   6.849  68.518  1.00  0.00    -0.096 A  
ENDBRANCH   8  25
BRANCH   6  32
HETATM   32  C   UNL     1      -8.331  11.732  67.097  1.00  0.00    -0.168 C  
BRANCH  32  33
HETATM   33  C   UNL     1      -8.721  11.828  65.610  1.00  0.00     0.202 C  
BRANCH  33  34
HETATM   34  C   UNL     1      -9.743  10.765  65.157  1.00  0.00    -0.265 C  
HETATM   35  O   UNL     1     -11.066  11.056  65.606  1.00  0.00    -0.099 OA 
HETATM   36  H   UNL     1     -11.696  10.402  65.327  1.00  0.00     0.000 HD 
BRANCH  34  37
HETATM   37  C   UNL     1      -9.798  10.700  63.620  1.00  0.00    -0.392 C  
BRANCH  37  38
HETATM   38  C   UNL     1     -10.891  11.594  63.008  1.00  0.00    -0.054 C  
HETATM   39  H   UNL     1     -12.864  11.552  62.780  1.00  0.00     0.000 HD 
HETATM   40  O   UNL     1     -12.190  11.001  63.158  1.00  0.00     0.574 OA 
BRANCH  38  41
HETATM   41  C   UNL     1     -10.931  12.950  63.711  1.00  0.00    -0.392 C  
HETATM   42  C   UNL     1     -12.333  13.479  63.903  1.00  0.00    -0.334 C  
HETATM   43  O   UNL     1     -13.244  12.545  64.252  1.00  0.00    -0.738 OA 
HETATM   44  O   UNL     1     -12.612  14.667  63.822  1.00  0.00    -0.820 OA 
ENDBRANCH  38  41
ENDBRANCH  37  38
ENDBRANCH  34  37
ENDBRANCH  33  34
ENDBRANCH  32  33
ENDBRANCH   6  32
TORSDOF 10
ENDMDL
MODEL      128
REMARK 921   NORMALIZED FREE ENERGY PREDICTED BY IDOCK:   -3.72 KCAL/MOL
REMARK 922        TOTAL FREE ENERGY PREDICTED BY IDOCK:   -8.65 KCAL/MOL
REMARK 923 INTER-LIGAND FREE ENERGY PREDICTED BY IDOCK:   -6.06 KCAL/MOL
REMARK 924 INTRA-LIGAND FREE ENERGY PREDICTED BY IDOCK:   -2.58 KCAL/MOL
REMARK 927      BINDING AFFINITY PREDICTED BY RF-SCORE:    0.00 PKD
ROOT
HETATM    1  C   UNL     1     -10.744  10.509  70.774  1.00  0.00     0.367 C  
HETATM    2  C   UNL     1     -11.401   9.201  70.330  1.00  0.00    -0.217 C  
HETATM    3  C   UNL     1     -10.997   8.691  68.940  1.00  0.00     0.120 A  
HETATM    4  C   UNL     1     -12.910   9.254  70.582  1.00  0.00     0.164 C  
HETATM    5  C   UNL     1     -10.558   9.346  67.773  1.00  0.00    -0.317 A  
HETATM    6  N   UNL     1     -10.891   7.314  68.698  1.00  0.00    -0.127 NA 
HETATM    7  C   UNL     1      -9.967   8.317  66.908  1.00  0.00    -0.343 A  
HETATM    8  C   UNL     1     -10.259   7.059  67.468  1.00  0.00    -0.199 A  
ENDROOT
BRANCH   5   9
HETATM    9  C   UNL     1     -10.558  10.819  67.507  1.00  0.00    -0.237 C  
HETATM   10  O   UNL     1     -11.619  11.417  67.325  1.00  0.00    -0.523 OA 
HETATM   11  N   UNL     1      -9.308  11.425  67.491  1.00  0.00    -0.162 N  
HETATM   12  H   UNL     1      -8.497  10.815  67.599  1.00  0.00     0.000 HD 
BRANCH  11  13
HETATM   13  C   UNL     1      -9.054  12.813  67.338  1.00  0.00    -0.192 A  
HETATM   14  C   UNL     1      -8.126  14.939  68.086  1.00  0.00    -0.137 A  
HETATM   15  C   UNL     1      -8.600  15.572  66.941  1.00  0.00    -0.289 A  
HETATM   16  C   UNL     1      -9.494  13.455  66.173  1.00  0.00    -0.156 A  
HETATM   17  C   UNL     1      -8.359  13.570  68.287  1.00  0.00    -0.165 A  
HETATM   18  C   UNL     1      -9.294  14.832  65.988  1.00  0.00    -0.249 A  
ENDBRANCH  11  13
ENDBRANCH   5   9
BRANCH   7  19
HETATM   19  C   UNL     1      -9.183   8.489  65.653  1.00  0.00    -0.161 A  
HETATM   20  C   UNL     1      -9.593   9.405  64.665  1.00  0.00     0.104 A  
HETATM   21  C   UNL     1      -7.303   7.921  64.195  1.00  0.00    -0.097 A  
HETATM   22  C   UNL     1      -7.705   8.867  63.255  1.00  0.00    -0.123 A  
HETATM   23  C   UNL     1      -8.018   7.753  65.394  1.00  0.00    -0.125 A  
HETATM   24  C   UNL     1      -8.847   9.617  63.496  1.00  0.00    -0.255 A  
ENDBRANCH   7  19
BRANCH   8  25
HETATM   25  C   UNL     1     -10.028   5.672  66.923  1.00  0.00    -0.202 A  
HETATM   26  C   UNL     1     -10.659   5.215  65.755  1.00  0.00    -0.079 A  
HETATM   27  C   UNL     1      -8.945   3.477  67.033  1.00  0.00    -0.165 A  
HETATM   28  C   UNL     1      -9.168   4.761  67.561  1.00  0.00    -0.142 A  
HETATM   29  F   UNL     1      -9.263   1.911  65.292  1.00  0.00    -0.124 F  
HETATM   30  C   UNL     1     -10.368   3.979  65.170  1.00  0.00    -0.147 A  
HETATM   31  C   UNL     1      -9.518   3.112  65.823  1.00  0.00    -0.052 A  
ENDBRANCH   8  25
BRANCH   6  32
HETATM   32  C   UNL     1     -11.469   6.278  69.566  1.00  0.00    -0.317 C  
BRANCH  32  33
HETATM   33  C   UNL     1     -10.495   5.616  70.558  1.00  0.00    -0.347 C  
BRANCH  33  34
HETATM   34  C   UNL     1     -10.480   6.267  71.957  1.00  0.00    -0.207 C  
HETATM   35  O   UNL     1     -11.014   5.407  72.963  1.00  0.00    -0.252 OA 
HETATM   36  H   UNL     1     -11.005   5.807  73.825  1.00  0.00     0.000 HD 
BRANCH  34  37
HETATM   37  C   UNL     1      -9.037   6.601  72.375  1.00  0.00    -0.139 C  
BRANCH  37  38
HETATM   38  C   UNL     1      -8.769   8.111  72.497  1.00  0.00    -0.203 C  
HETATM   39  H   UNL     1      -8.850   9.507  73.909  1.00  0.00     0.000 HD 
HETATM   40  O   UNL     1      -9.015   8.575  73.834  1.00  0.00    -0.077 OA 
BRANCH  38  41
HETATM   41  C   UNL     1      -7.309   8.424  72.174  1.00  0.00    -0.127 C  
HETATM   42  C   UNL     1      -6.826   7.766  70.903  1.00  0.00    -0.042 C  
HETATM   43  O   UNL     1      -7.724   7.767  69.893  1.00  0.00    -0.091 OA 
HETATM   44  O   UNL     1      -5.691   7.332  70.768  1.00  0.00    -0.027 OA 
ENDBRANCH  38  41
ENDBRANCH  37  38
ENDBRANCH  34  37
ENDBRANCH  33  34
ENDBRANCH  32  33
ENDBRANCH   6  32
TORSDOF 10
ENDMDL
MODEL      129
REMARK 921   NORMALIZED FREE ENERGY PREDICTED BY IDOCK:   -3.71 KCAL/MOL
REMARK 922        TOTAL FREE ENERGY PREDICTED BY IDOCK:   -8.64 KCAL/MOL
REMARK 923 INTER-LIGAND FREE ENERGY PREDICTED BY IDOCK:   -7.36 KCAL/MOL
REMARK 924 INTRA-LIGAND FREE ENERGY PREDICTED BY IDOCK:   -1.27 KCAL/MOL
REMARK 927      BINDING AFFINITY PREDICTED BY RF-SCORE:    0.00 PKD
ROOT
HETATM    1  C   UNL     1     -10.801  11.055  64.442  1.00  0.00    -0.263 C  
HETATM    2  C   UNL     1     -10.853  12.528  64.851  1.00  0.00    -0.327 C  
HETATM    3  C   UNL     1      -9.947  12.926  66.024  1.00  0.00    -0.272 A  
HETATM    4  C   UNL     1     -12.306  12.993  64.974  1.00  0.00    -0.526 C  
HETATM    5  C   UNL     1      -9.449  12.211  67.131  1.00  0.00    -0.190 A  
HETATM    6  N   UNL     1      -9.339  14.188  66.049  1.00  0.00    -0.148 NA 
HETATM    7  C   UNL     1      -8.346  13.006  67.685  1.00  0.00    -0.181 A  
HETATM    8  C   UNL     1      -8.353  14.261  67.048  1.00  0.00    -0.131 A  
ENDROOT
BRANCH   5   9
HETATM    9  C   UNL     1      -9.855  10.844  67.583  1.00  0.00    -0.171 C  
HETATM   10  O   UNL     1     -10.753  10.707  68.414  1.00  0.00    -0.193 OA 
HETATM   11  N   UNL     1      -9.163   9.789  67.002  1.00  0.00    -0.141 N  
HETATM   12  H   UNL     1      -8.401  10.030  66.368  1.00  0.00     0.000 HD 
BRANCH  11  13
HETATM   13  C   UNL     1      -9.417   8.407  67.208  1.00  0.00    -0.154 A  
HETATM   14  C   UNL     1      -8.895   6.231  68.171  1.00  0.00    -0.113 A  
HETATM   15  C   UNL     1     -10.010   5.668  67.557  1.00  0.00    -0.180 A  
HETATM   16  C   UNL     1     -10.557   7.837  66.626  1.00  0.00    -0.080 A  
HETATM   17  C   UNL     1      -8.595   7.590  67.990  1.00  0.00    -0.122 A  
HETATM   18  C   UNL     1     -10.837   6.470  66.776  1.00  0.00    -0.345 A  
ENDBRANCH  11  13
ENDBRANCH   5   9
BRANCH   7  19
HETATM   19  C   UNL     1      -7.354  12.628  68.729  1.00  0.00    -0.066 A  
HETATM   20  C   UNL     1      -7.299  11.312  69.231  1.00  0.00    -0.068 A  
HETATM   21  C   UNL     1      -5.525  13.173  70.259  1.00  0.00    -0.128 A  
HETATM   22  C   UNL     1      -5.461  11.855  70.704  1.00  0.00    -0.156 A  
HETATM   23  C   UNL     1      -6.441  13.550  69.263  1.00  0.00    -0.111 A  
HETATM   24  C   UNL     1      -6.343  10.921  70.181  1.00  0.00    -0.149 A  
ENDBRANCH   7  19
BRANCH   8  25
HETATM   25  C   UNL     1      -7.546  15.504  67.332  1.00  0.00    -0.231 A  
HETATM   26  C   UNL     1      -6.740  16.109  66.353  1.00  0.00     0.710 A  
HETATM   27  C   UNL     1      -6.816  17.289  68.841  1.00  0.00    -0.226 A  
HETATM   28  C   UNL     1      -7.557  16.120  68.594  1.00  0.00    -0.183 A  
HETATM   29  F   UNL     1      -5.454  19.042  68.032  1.00  0.00    -0.173 F  
HETATM   30  C   UNL     1      -6.080  17.323  66.560  1.00  0.00    -0.251 A  
HETATM   31  C   UNL     1      -6.114  17.900  67.812  1.00  0.00    -0.155 A  
ENDBRANCH   8  25
BRANCH   6  32
HETATM   32  C   UNL     1      -9.760  15.322  65.212  1.00  0.00    -0.117 C  
BRANCH  32  33
HETATM   33  C   UNL     1     -10.851  16.227  65.813  1.00  0.00    -0.173 C  
BRANCH  33  34
HETATM   34  C   UNL     1     -10.401  17.683  66.052  1.00  0.00    -0.304 C  
HETATM   35  O   UNL     1     -10.941  18.586  65.086  1.00  0.00    -0.571 OA 
HETATM   36  H   UNL     1     -10.664  19.482  65.234  1.00  0.00     0.000 HD 
BRANCH  34  37
HETATM   37  C   UNL     1     -10.878  18.169  67.432  1.00  0.00    -0.258 C  
BRANCH  37  38
HETATM   38  C   UNL     1     -10.584  17.174  68.568  1.00  0.00    -0.361 C  
HETATM   39  H   UNL     1     -10.224  17.241  70.521  1.00  0.00     0.000 HD 
HETATM   40  O   UNL     1     -10.406  17.855  69.820  1.00  0.00     0.108 OA 
BRANCH  38  41
HETATM   41  C   UNL     1     -11.748  16.201  68.745  1.00  0.00    -0.231 C  
HETATM   42  C   UNL     1     -11.343  14.900  69.397  1.00  0.00    -0.290 C  
HETATM   43  O   UNL     1     -10.453  15.029  70.404  1.00  0.00    -0.132 OA 
HETATM   44  O   UNL     1     -11.832  13.822  69.091  1.00  0.00    -0.310 OA 
ENDBRANCH  38  41
ENDBRANCH  37  38
ENDBRANCH  34  37
ENDBRANCH  33  34
ENDBRANCH  32  33
ENDBRANCH   6  32
TORSDOF 10
ENDMDL
MODEL      130
REMARK 921   NORMALIZED FREE ENERGY PREDICTED BY IDOCK:   -3.69 KCAL/MOL
REMARK 922        TOTAL FREE ENERGY PREDICTED BY IDOCK:   -8.59 KCAL/MOL
REMARK 923 INTER-LIGAND FREE ENERGY PREDICTED BY IDOCK:   -6.60 KCAL/MOL
REMARK 924 INTRA-LIGAND FREE ENERGY PREDICTED BY IDOCK:   -2.00 KCAL/MOL
REMARK 927      BINDING AFFINITY PREDICTED BY RF-SCORE:    0.00 PKD
ROOT
HETATM    1  C   UNL     1     -13.130  10.345  69.739  1.00  0.00     0.591 C  
HETATM    2  C   UNL     1     -12.389  11.638  70.084  1.00  0.00    -0.297 C  
HETATM    3  C   UNL     1     -10.936  11.723  69.598  1.00  0.00     0.010 A  
HETATM    4  C   UNL     1     -12.595  11.989  71.560  1.00  0.00    -0.279 C  
HETATM    5  C   UNL     1      -9.956  10.744  69.344  1.00  0.00    -0.137 A  
HETATM    6  N   UNL     1     -10.402  12.950  69.182  1.00  0.00     0.083 NA 
HETATM    7  C   UNL     1      -8.907  11.394  68.546  1.00  0.00    -0.151 A  
HETATM    8  C   UNL     1      -9.169  12.777  68.531  1.00  0.00    -0.061 A  
ENDROOT
BRANCH   5   9
HETATM    9  C   UNL     1     -10.018   9.289  69.687  1.00  0.00    -0.191 C  
HETATM   10  O   UNL     1     -10.186   8.449  68.803  1.00  0.00    -0.199 OA 
HETATM   11  N   UNL     1      -9.868   8.984  71.034  1.00  0.00    -0.257 N  
HETATM   12  H   UNL     1      -9.791   9.769  71.680  1.00  0.00     0.000 HD 
BRANCH  11  13
HETATM   13  C   UNL     1      -9.812   7.680  71.595  1.00  0.00    -0.162 A  
HETATM   14  C   UNL     1      -8.726   5.533  71.975  1.00  0.00    -0.131 A  
HETATM   15  C   UNL     1      -9.795   5.106  72.756  1.00  0.00    -0.186 A  
HETATM   16  C   UNL     1     -10.865   7.253  72.414  1.00  0.00    -0.293 A  
HETATM   17  C   UNL     1      -8.738   6.808  71.390  1.00  0.00    -0.131 A  
HETATM   18  C   UNL     1     -10.871   5.964  72.968  1.00  0.00    -0.300 A  
ENDBRANCH  11  13
ENDBRANCH   5   9
BRANCH   7  19
HETATM   19  C   UNL     1      -7.748  10.775  67.846  1.00  0.00    -0.100 A  
HETATM   20  C   UNL     1      -6.878   9.898  68.524  1.00  0.00    -0.059 A  
HETATM   21  C   UNL     1      -6.354  10.452  65.862  1.00  0.00    -0.119 A  
HETATM   22  C   UNL     1      -5.538   9.552  66.542  1.00  0.00    -0.049 A  
HETATM   23  C   UNL     1      -7.464  11.036  66.497  1.00  0.00    -0.145 A  
HETATM   24  C   UNL     1      -5.807   9.268  67.873  1.00  0.00    -0.041 A  
ENDBRANCH   7  19
BRANCH   8  25
HETATM   25  C   UNL     1      -8.342  13.919  67.995  1.00  0.00    -0.166 A  
HETATM   26  C   UNL     1      -8.697  14.613  66.826  1.00  0.00    -0.233 A  
HETATM   27  C   UNL     1      -6.417  15.427  68.141  1.00  0.00    -0.133 A  
HETATM   28  C   UNL     1      -7.169  14.348  68.639  1.00  0.00    -0.123 A  
HETATM   29  F   UNL     1      -6.182  17.201  66.597  1.00  0.00    -0.182 F  
HETATM   30  C   UNL     1      -8.013  15.746  66.381  1.00  0.00    -0.039 A  
HETATM   31  C   UNL     1      -6.866  16.140  67.038  1.00  0.00    -0.181 A  
ENDBRANCH   8  25
BRANCH   6  32
HETATM   32  C   UNL     1     -11.003  14.257  69.491  1.00  0.00    -0.169 C  
BRANCH  32  33
HETATM   33  C   UNL     1     -12.402  14.506  68.898  1.00  0.00    -0.091 C  
BRANCH  33  34
HETATM   34  C   UNL     1     -12.400  14.821  67.387  1.00  0.00     0.232 C  
HETATM   35  O   UNL     1     -11.349  15.714  67.019  1.00  0.00    -0.209 OA 
HETATM   36  H   UNL     1     -11.348  15.908  66.089  1.00  0.00     0.000 HD 
BRANCH  34  37
HETATM   37  C   UNL     1     -12.192  13.531  66.574  1.00  0.00    -0.433 C  
BRANCH  37  38
HETATM   38  C   UNL     1     -12.631  13.655  65.105  1.00  0.00    -0.430 C  
HETATM   39  H   UNL     1     -12.063  14.653  63.483  1.00  0.00     0.000 HD 
HETATM   40  O   UNL     1     -11.792  14.576  64.389  1.00  0.00    -0.425 OA 
BRANCH  38  41
HETATM   41  C   UNL     1     -12.526  12.306  64.396  1.00  0.00    -0.484 C  
HETATM   42  C   UNL     1     -11.100  11.883  64.131  1.00  0.00    -0.375 C  
HETATM   43  O   UNL     1     -10.238  12.152  65.135  1.00  0.00    -0.268 OA 
HETATM   44  O   UNL     1     -10.762  11.278  63.123  1.00  0.00    -0.285 OA 
ENDBRANCH  38  41
ENDBRANCH  37  38
ENDBRANCH  34  37
ENDBRANCH  33  34
ENDBRANCH  32  33
ENDBRANCH   6  32
TORSDOF 10
ENDMDL
MODEL      131
REMARK 921   NORMALIZED FREE ENERGY PREDICTED BY IDOCK:   -3.62 KCAL/MOL
REMARK 922        TOTAL FREE ENERGY PREDICTED BY IDOCK:   -8.49 KCAL/MOL
REMARK 923 INTER-LIGAND FREE ENERGY PREDICTED BY IDOCK:   -5.83 KCAL/MOL
REMARK 924 INTRA-LIGAND FREE ENERGY PREDICTED BY IDOCK:   -2.66 KCAL/MOL
REMARK 927      BINDING AFFINITY PREDICTED BY RF-SCORE:    0.00 PKD
ROOT
HETATM    1  C   UNL     1     -10.955  11.523  70.005  1.00  0.00     0.170 C  
HETATM    2  C   UNL     1     -11.400  10.059  70.018  1.00  0.00    -0.334 C  
HETATM    3  C   UNL     1     -10.669   9.132  69.039  1.00  0.00    -0.153 A  
HETATM    4  C   UNL     1     -12.928   9.970  69.971  1.00  0.00     0.346 C  
HETATM    5  C   UNL     1     -10.040   9.358  67.799  1.00  0.00    -0.246 A  
HETATM    6  N   UNL     1     -10.409   7.800  69.389  1.00  0.00    -0.215 NA 
HETATM    7  C   UNL     1      -9.200   8.183  67.531  1.00  0.00    -0.154 A  
HETATM    8  C   UNL     1      -9.510   7.201  68.490  1.00  0.00    -0.139 A  
ENDROOT
BRANCH   5   9
HETATM    9  C   UNL     1     -10.094  10.602  66.969  1.00  0.00    -0.211 C  
HETATM   10  O   UNL     1      -9.053  11.153  66.608  1.00  0.00    -0.162 OA 
HETATM   11  N   UNL     1     -11.367  11.056  66.650  1.00  0.00    -0.054 N  
HETATM   12  H   UNL     1     -12.154  10.547  67.054  1.00  0.00     0.000 HD 
BRANCH  11  13
HETATM   13  C   UNL     1     -11.675  12.163  65.815  1.00  0.00    -0.327 A  
HETATM   14  C   UNL     1     -12.543  14.406  65.428  1.00  0.00    -0.339 A  
HETATM   15  C   UNL     1     -12.249  14.308  64.071  1.00  0.00    -0.336 A  
HETATM   16  C   UNL     1     -11.351  12.091  64.454  1.00  0.00    -0.411 A  
HETATM   17  C   UNL     1     -12.266  13.337  66.293  1.00  0.00    -0.440 A  
HETATM   18  C   UNL     1     -11.661  13.146  63.581  1.00  0.00    -0.445 A  
ENDBRANCH  11  13
ENDBRANCH   5   9
BRANCH   7  19
HETATM   19  C   UNL     1      -8.180   7.988  66.464  1.00  0.00    -0.115 A  
HETATM   20  C   UNL     1      -8.557   7.578  65.170  1.00  0.00     0.021 A  
HETATM   21  C   UNL     1      -5.865   7.988  65.673  1.00  0.00    -0.037 A  
HETATM   22  C   UNL     1      -6.270   7.627  64.390  1.00  0.00    -0.048 A  
HETATM   23  C   UNL     1      -6.811   8.194  66.692  1.00  0.00    -0.068 A  
HETATM   24  C   UNL     1      -7.620   7.432  64.136  1.00  0.00    -0.109 A  
ENDBRANCH   7  19
BRANCH   8  25
HETATM   25  C   UNL     1      -9.063   5.764  68.594  1.00  0.00    -0.116 A  
HETATM   26  C   UNL     1      -7.705   5.410  68.667  1.00  0.00    -0.084 A  
HETATM   27  C   UNL     1      -9.555   3.369  68.736  1.00  0.00    -0.120 A  
HETATM   28  C   UNL     1      -9.983   4.703  68.620  1.00  0.00    -0.140 A  
HETATM   29  F   UNL     1      -7.805   1.817  69.071  1.00  0.00    -0.046 F  
HETATM   30  C   UNL     1      -7.276   4.097  68.882  1.00  0.00    -0.055 A  
HETATM   31  C   UNL     1      -8.208   3.081  68.904  1.00  0.00    -0.059 A  
ENDBRANCH   8  25
BRANCH   6  32
HETATM   32  C   UNL     1     -11.081   7.092  70.489  1.00  0.00    -0.280 C  
BRANCH  32  33
HETATM   33  C   UNL     1     -10.172   6.638  71.646  1.00  0.00    -0.212 C  
BRANCH  33  34
HETATM   34  C   UNL     1      -9.034   7.626  71.978  1.00  0.00    -0.124 C  
HETATM   35  O   UNL     1      -9.491   8.748  72.734  1.00  0.00    -0.236 OA 
HETATM   36  H   UNL     1      -8.790   9.356  72.939  1.00  0.00     0.000 HD 
BRANCH  34  37
HETATM   37  C   UNL     1      -7.953   6.930  72.824  1.00  0.00    -0.108 C  
BRANCH  37  38
HETATM   38  C   UNL     1      -7.471   5.597  72.225  1.00  0.00    -0.099 C  
HETATM   39  H   UNL     1      -5.937   4.944  71.143  1.00  0.00     0.000 HD 
HETATM   40  O   UNL     1      -6.235   5.766  71.513  1.00  0.00    -0.039 OA 
BRANCH  38  41
HETATM   41  C   UNL     1      -7.218   4.572  73.330  1.00  0.00    -0.079 C  
HETATM   42  C   UNL     1      -8.300   3.523  73.427  1.00  0.00    -0.079 C  
HETATM   43  O   UNL     1      -8.768   3.085  72.238  1.00  0.00    -0.074 OA 
HETATM   44  O   UNL     1      -8.674   3.050  74.491  1.00  0.00    -0.075 OA 
ENDBRANCH  38  41
ENDBRANCH  37  38
ENDBRANCH  34  37
ENDBRANCH  33  34
ENDBRANCH  32  33
ENDBRANCH   6  32
TORSDOF 10
ENDMDL
MODEL      132
REMARK 921   NORMALIZED FREE ENERGY PREDICTED BY IDOCK:   -3.60 KCAL/MOL
REMARK 922        TOTAL FREE ENERGY PREDICTED BY IDOCK:   -8.46 KCAL/MOL
REMARK 923 INTER-LIGAND FREE ENERGY PREDICTED BY IDOCK:   -5.69 KCAL/MOL
REMARK 924 INTRA-LIGAND FREE ENERGY PREDICTED BY IDOCK:   -2.78 KCAL/MOL
REMARK 927      BINDING AFFINITY PREDICTED BY RF-SCORE:    0.00 PKD
ROOT
HETATM    1  C   UNL     1      -8.006   9.933  70.197  1.00  0.00    -0.181 C  
HETATM    2  C   UNL     1      -8.907   8.769  69.779  1.00  0.00    -0.142 C  
HETATM    3  C   UNL     1      -8.744   8.288  68.331  1.00  0.00    -0.133 A  
HETATM    4  C   UNL     1     -10.352   9.037  70.209  1.00  0.00    -0.243 C  
HETATM    5  C   UNL     1      -8.337   8.938  67.149  1.00  0.00    -0.103 A  
HETATM    6  N   UNL     1      -8.884   6.929  68.020  1.00  0.00    -0.124 NA 
HETATM    7  C   UNL     1      -8.015   7.884  66.178  1.00  0.00    -0.104 A  
HETATM    8  C   UNL     1      -8.440   6.655  66.715  1.00  0.00    -0.117 A  
ENDROOT
BRANCH   5   9
HETATM    9  C   UNL     1      -8.132  10.406  66.947  1.00  0.00    -0.118 C  
HETATM   10  O   UNL     1      -6.999  10.885  66.981  1.00  0.00    -0.091 OA 
HETATM   11  N   UNL     1      -9.285  11.147  66.720  1.00  0.00    -0.168 N  
HETATM   12  H   UNL     1     -10.173  10.647  66.770  1.00  0.00     0.000 HD 
BRANCH  11  13
HETATM   13  C   UNL     1      -9.343  12.535  66.424  1.00  0.00    -0.209 A  
HETATM   14  C   UNL     1      -8.629  14.844  66.729  1.00  0.00    -0.256 A  
HETATM   15  C   UNL     1      -9.533  15.274  65.763  1.00  0.00    -0.310 A  
HETATM   16  C   UNL     1     -10.222  12.976  65.427  1.00  0.00    -0.301 A  
HETATM   17  C   UNL     1      -8.541  13.484  67.064  1.00  0.00    -0.169 A  
HETATM   18  C   UNL     1     -10.338  14.340  65.117  1.00  0.00    -0.440 A  
ENDBRANCH  11  13
ENDBRANCH   5   9
BRANCH   7  19
HETATM   19  C   UNL     1      -7.357   8.010  64.848  1.00  0.00    -0.084 A  
HETATM   20  C   UNL     1      -5.986   8.320  64.746  1.00  0.00    -0.048 A  
HETATM   21  C   UNL     1      -7.420   7.973  62.403  1.00  0.00    -0.107 A  
HETATM   22  C   UNL     1      -6.054   8.234  62.331  1.00  0.00    -0.087 A  
HETATM   23  C   UNL     1      -8.060   7.834  63.646  1.00  0.00    -0.053 A  
HETATM   24  C   UNL     1      -5.334   8.398  63.506  1.00  0.00    -0.058 A  
ENDBRANCH   7  19
BRANCH   8  25
HETATM   25  C   UNL     1      -8.493   5.283  66.088  1.00  0.00    -0.117 A  
HETATM   26  C   UNL     1      -9.708   4.667  65.745  1.00  0.00    -0.206 A  
HETATM   27  C   UNL     1      -7.387   3.279  65.217  1.00  0.00    -0.071 A  
HETATM   28  C   UNL     1      -7.326   4.548  65.819  1.00  0.00    -0.077 A  
HETATM   29  F   UNL     1      -8.661   1.577  64.185  1.00  0.00    -0.077 F  
HETATM   30  C   UNL     1      -9.773   3.452  65.057  1.00  0.00    -0.115 A  
HETATM   31  C   UNL     1      -8.607   2.759  64.808  1.00  0.00    -0.096 A  
ENDBRANCH   8  25
BRANCH   6  32
HETATM   32  C   UNL     1      -9.521   5.943  68.906  1.00  0.00    -0.126 C  
BRANCH  32  33
HETATM   33  C   UNL     1      -8.614   4.799  69.395  1.00  0.00    -0.099 C  
BRANCH  33  34
HETATM   34  C   UNL     1      -7.311   5.274  70.072  1.00  0.00    -0.064 C  
HETATM   35  O   UNL     1      -6.482   6.029  69.188  1.00  0.00    -0.039 OA 
HETATM   36  H   UNL     1      -5.680   6.322  69.605  1.00  0.00     0.000 HD 
BRANCH  34  37
HETATM   37  C   UNL     1      -7.634   6.186  71.268  1.00  0.00    -0.094 C  
BRANCH  37  38
HETATM   38  C   UNL     1      -8.573   5.536  72.299  1.00  0.00    -0.126 C  
HETATM   39  H   UNL     1      -8.460   4.854  74.162  1.00  0.00     0.000 HD 
HETATM   40  O   UNL     1      -7.881   5.255  73.526  1.00  0.00    -0.104 OA 
BRANCH  38  41
HETATM   41  C   UNL     1      -9.729   6.474  72.638  1.00  0.00    -0.168 C  
HETATM   42  C   UNL     1     -11.053   6.017  72.071  1.00  0.00    -0.274 C  
HETATM   43  O   UNL     1     -11.264   4.685  72.139  1.00  0.00     0.103 OA 
HETATM   44  O   UNL     1     -11.900   6.792  71.651  1.00  0.00    -0.291 OA 
ENDBRANCH  38  41
ENDBRANCH  37  38
ENDBRANCH  34  37
ENDBRANCH  33  34
ENDBRANCH  32  33
ENDBRANCH   6  32
TORSDOF 10
ENDMDL
MODEL      133
REMARK 921   NORMALIZED FREE ENERGY PREDICTED BY IDOCK:   -3.50 KCAL/MOL
REMARK 922        TOTAL FREE ENERGY PREDICTED BY IDOCK:   -8.30 KCAL/MOL
REMARK 923 INTER-LIGAND FREE ENERGY PREDICTED BY IDOCK:   -7.29 KCAL/MOL
REMARK 924 INTRA-LIGAND FREE ENERGY PREDICTED BY IDOCK:   -1.01 KCAL/MOL
REMARK 927      BINDING AFFINITY PREDICTED BY RF-SCORE:    0.00 PKD
ROOT
HETATM    1  C   UNL     1      -5.301  13.216  69.071  1.00  0.00    -0.069 C  
HETATM    2  C   UNL     1      -6.530  12.352  68.780  1.00  0.00    -0.084 C  
HETATM    3  C   UNL     1      -7.739  13.091  68.190  1.00  0.00    -0.143 A  
HETATM    4  C   UNL     1      -6.846  11.458  69.982  1.00  0.00     0.138 C  
HETATM    5  C   UNL     1      -8.189  14.421  68.295  1.00  0.00    -0.149 A  
HETATM    6  N   UNL     1      -8.566  12.455  67.255  1.00  0.00    -0.178 NA 
HETATM    7  C   UNL     1      -9.167  14.622  67.218  1.00  0.00    -0.212 A  
HETATM    8  C   UNL     1      -9.441  13.368  66.642  1.00  0.00    -0.260 A  
ENDROOT
BRANCH   5   9
HETATM    9  C   UNL     1      -7.681  15.479  69.224  1.00  0.00    -0.223 C  
HETATM   10  O   UNL     1      -7.618  15.264  70.434  1.00  0.00     0.259 OA 
HETATM   11  N   UNL     1      -7.296  16.671  68.622  1.00  0.00    -0.191 N  
HETATM   12  H   UNL     1      -7.447  16.751  67.616  1.00  0.00     0.000 HD 
BRANCH  11  13
HETATM   13  C   UNL     1      -6.712  17.787  69.277  1.00  0.00    -0.218 A  
HETATM   14  C   UNL     1      -6.449  20.180  69.655  1.00  0.00    -0.333 A  
HETATM   15  C   UNL     1      -5.493  19.941  70.638  1.00  0.00    -0.290 A  
HETATM   16  C   UNL     1      -5.776  17.559  70.294  1.00  0.00    -0.196 A  
HETATM   17  C   UNL     1      -7.048  19.110  68.973  1.00  0.00    -0.377 A  
HETATM   18  C   UNL     1      -5.149  18.629  70.952  1.00  0.00    -0.270 A  
ENDBRANCH  11  13
ENDBRANCH   5   9
BRANCH   7  19
HETATM   19  C   UNL     1      -9.799  15.889  66.754  1.00  0.00    -0.254 A  
HETATM   20  C   UNL     1     -10.154  16.067  65.402  1.00  0.00    -0.260 A  
HETATM   21  C   UNL     1     -10.646  18.147  67.163  1.00  0.00    -0.362 A  
HETATM   22  C   UNL     1     -11.029  18.279  65.831  1.00  0.00     0.204 A  
HETATM   23  C   UNL     1     -10.063  16.955  67.627  1.00  0.00    -0.278 A  
HETATM   24  C   UNL     1     -10.791  17.232  64.951  1.00  0.00     0.326 A  
ENDBRANCH   7  19
BRANCH   8  25
HETATM   25  C   UNL     1     -10.470  12.972  65.611  1.00  0.00    -0.291 A  
HETATM   26  C   UNL     1     -10.108  12.557  64.319  1.00  0.00    -0.298 A  
HETATM   27  C   UNL     1     -12.794  12.611  64.929  1.00  0.00    -0.312 A  
HETATM   28  C   UNL     1     -11.846  13.001  65.891  1.00  0.00    -0.468 A  
HETATM   29  F   UNL     1     -13.277  11.693  62.805  1.00  0.00    -0.375 F  
HETATM   30  C   UNL     1     -11.035  12.075  63.391  1.00  0.00    -0.475 A  
HETATM   31  C   UNL     1     -12.378  12.117  63.701  1.00  0.00    -0.568 A  
ENDBRANCH   8  25
BRANCH   6  32
HETATM   32  C   UNL     1      -8.590  11.001  67.030  1.00  0.00    -0.140 C  
BRANCH  32  33
HETATM   33  C   UNL     1      -7.458  10.442  66.149  1.00  0.00    -0.131 C  
BRANCH  33  34
HETATM   34  C   UNL     1      -7.656   8.972  65.726  1.00  0.00    -0.090 C  
HETATM   35  O   UNL     1      -8.927   8.458  66.123  1.00  0.00    -0.156 OA 
HETATM   36  H   UNL     1      -9.050   7.552  65.862  1.00  0.00     0.000 HD 
BRANCH  34  37
HETATM   37  C   UNL     1      -7.583   8.844  64.194  1.00  0.00    -0.120 C  
BRANCH  37  38
HETATM   38  C   UNL     1      -7.307   7.409  63.712  1.00  0.00    -0.089 C  
HETATM   39  H   UNL     1      -6.224   6.516  62.305  1.00  0.00     0.000 HD 
HETATM   40  O   UNL     1      -6.394   7.401  62.603  1.00  0.00    -0.056 OA 
BRANCH  38  41
HETATM   41  C   UNL     1      -6.669   6.581  64.826  1.00  0.00    -0.042 C  
HETATM   42  C   UNL     1      -7.499   5.385  65.229  1.00  0.00    -0.077 C  
HETATM   43  O   UNL     1      -8.085   4.735  64.200  1.00  0.00    -0.099 OA 
HETATM   44  O   UNL     1      -7.576   4.987  66.383  1.00  0.00    -0.086 OA 
ENDBRANCH  38  41
ENDBRANCH  37  38
ENDBRANCH  34  37
ENDBRANCH  33  34
ENDBRANCH  32  33
ENDBRANCH   6  32
TORSDOF 10
ENDMDL
MODEL      134
REMARK 921   NORMALIZED FREE ENERGY PREDICTED BY IDOCK:   -3.50 KCAL/MOL
REMARK 922        TOTAL FREE ENERGY PREDICTED BY IDOCK:   -8.30 KCAL/MOL
REMARK 923 INTER-LIGAND FREE ENERGY PREDICTED BY IDOCK:   -6.03 KCAL/MOL
REMARK 924 INTRA-LIGAND FREE ENERGY PREDICTED BY IDOCK:   -2.26 KCAL/MOL
REMARK 927      BINDING AFFINITY PREDICTED BY RF-SCORE:    0.00 PKD
ROOT
HETATM    1  C   UNL     1      -5.825   7.078  64.380  1.00  0.00    -0.036 C  
HETATM    2  C   UNL     1      -6.600   7.984  65.339  1.00  0.00    -0.048 C  
HETATM    3  C   UNL     1      -7.180   7.296  66.582  1.00  0.00    -0.080 A  
HETATM    4  C   UNL     1      -7.594   8.851  64.561  1.00  0.00    -0.109 C  
HETATM    5  C   UNL     1      -7.602   5.976  66.834  1.00  0.00    -0.096 A  
HETATM    6  N   UNL     1      -7.241   7.982  67.803  1.00  0.00    -0.089 NA 
HETATM    7  C   UNL     1      -7.695   5.834  68.293  1.00  0.00    -0.093 A  
HETATM    8  C   UNL     1      -7.546   7.112  68.863  1.00  0.00    -0.100 A  
ENDROOT
BRANCH   5   9
HETATM    9  C   UNL     1      -7.788   4.878  65.834  1.00  0.00    -0.095 C  
HETATM   10  O   UNL     1      -6.917   4.022  65.684  1.00  0.00    -0.059 OA 
HETATM   11  N   UNL     1      -8.983   4.907  65.127  1.00  0.00    -0.153 N  
HETATM   12  H   UNL     1      -9.603   5.699  65.299  1.00  0.00     0.000 HD 
BRANCH  11  13
HETATM   13  C   UNL     1      -9.423   3.937  64.188  1.00  0.00    -0.159 A  
HETATM   14  C   UNL     1      -9.043   2.342  62.386  1.00  0.00    -0.080 A  
HETATM   15  C   UNL     1     -10.397   2.020  62.357  1.00  0.00    -0.099 A  
HETATM   16  C   UNL     1     -10.777   3.577  64.174  1.00  0.00    -0.178 A  
HETATM   17  C   UNL     1      -8.561   3.301  63.289  1.00  0.00    -0.089 A  
HETATM   18  C   UNL     1     -11.267   2.645  63.246  1.00  0.00     0.022 A  
ENDBRANCH  11  13
ENDBRANCH   5   9
BRANCH   7  19
HETATM   19  C   UNL     1      -7.905   4.600  69.099  1.00  0.00    -0.070 A  
HETATM   20  C   UNL     1      -6.898   4.119  69.960  1.00  0.00    -0.034 A  
HETATM   21  C   UNL     1      -9.264   2.690  69.797  1.00  0.00    -0.199 A  
HETATM   22  C   UNL     1      -8.271   2.262  70.675  1.00  0.00    -0.068 A  
HETATM   23  C   UNL     1      -9.096   3.861  69.038  1.00  0.00    -0.198 A  
HETATM   24  C   UNL     1      -7.090   2.985  70.763  1.00  0.00    -0.033 A  
ENDBRANCH   7  19
BRANCH   8  25
HETATM   25  C   UNL     1      -7.705   7.566  70.293  1.00  0.00    -0.092 A  
HETATM   26  C   UNL     1      -8.967   7.791  70.867  1.00  0.00    -0.148 A  
HETATM   27  C   UNL     1      -6.757   8.194  72.463  1.00  0.00    -0.092 A  
HETATM   28  C   UNL     1      -6.595   7.790  71.126  1.00  0.00    -0.038 A  
HETATM   29  F   UNL     1      -8.182   8.638  74.295  1.00  0.00    -0.285 F  
HETATM   30  C   UNL     1      -9.140   8.097  72.220  1.00  0.00    -0.263 A  
HETATM   31  C   UNL     1      -8.028   8.307  73.008  1.00  0.00    -0.140 A  
ENDBRANCH   8  25
BRANCH   6  32
HETATM   32  C   UNL     1      -7.114   9.441  67.935  1.00  0.00    -0.081 C  
BRANCH  32  33
HETATM   33  C   UNL     1      -8.271  10.150  68.663  1.00  0.00    -0.111 C  
BRANCH  33  34
HETATM   34  C   UNL     1      -8.754  11.442  67.972  1.00  0.00    -0.148 C  
HETATM   35  O   UNL     1      -7.809  11.938  67.024  1.00  0.00    -0.158 OA 
HETATM   36  H   UNL     1      -8.106  12.733  66.598  1.00  0.00     0.000 HD 
BRANCH  34  37
HETATM   37  C   UNL     1     -10.060  11.179  67.203  1.00  0.00    -0.223 C  
BRANCH  37  38
HETATM   38  C   UNL     1     -11.260  11.979  67.740  1.00  0.00    -0.271 C  
HETATM   39  H   UNL     1     -12.931  12.778  67.021  1.00  0.00     0.000 HD 
HETATM   40  O   UNL     1     -12.192  12.284  66.690  1.00  0.00    -0.574 OA 
BRANCH  38  41
HETATM   41  C   UNL     1     -12.017  11.170  68.792  1.00  0.00    -0.337 C  
HETATM   42  C   UNL     1     -11.993  11.807  70.162  1.00  0.00    -0.339 C  
HETATM   43  O   UNL     1     -12.131  13.150  70.160  1.00  0.00    -0.338 OA 
HETATM   44  O   UNL     1     -11.929  11.158  71.196  1.00  0.00    -0.255 OA 
ENDBRANCH  38  41
ENDBRANCH  37  38
ENDBRANCH  34  37
ENDBRANCH  33  34
ENDBRANCH  32  33
ENDBRANCH   6  32
TORSDOF 10
ENDMDL
MODEL      135
REMARK 921   NORMALIZED FREE ENERGY PREDICTED BY IDOCK:   -3.50 KCAL/MOL
REMARK 922        TOTAL FREE ENERGY PREDICTED BY IDOCK:   -8.29 KCAL/MOL
REMARK 923 INTER-LIGAND FREE ENERGY PREDICTED BY IDOCK:   -7.55 KCAL/MOL
REMARK 924 INTRA-LIGAND FREE ENERGY PREDICTED BY IDOCK:   -0.74 KCAL/MOL
REMARK 927      BINDING AFFINITY PREDICTED BY RF-SCORE:    0.00 PKD
ROOT
HETATM    1  C   UNL     1      -6.453  13.629  70.070  1.00  0.00    -0.002 C  
HETATM    2  C   UNL     1      -6.783  13.874  68.596  1.00  0.00    -0.098 C  
HETATM    3  C   UNL     1      -7.608  12.779  67.907  1.00  0.00    -0.138 A  
HETATM    4  C   UNL     1      -5.526  14.306  67.836  1.00  0.00    -0.084 C  
HETATM    5  C   UNL     1      -7.731  11.394  68.130  1.00  0.00    -0.118 A  
HETATM    6  N   UNL     1      -8.551  13.119  66.927  1.00  0.00    -0.159 NA 
HETATM    7  C   UNL     1      -8.939  10.958  67.417  1.00  0.00    -0.136 A  
HETATM    8  C   UNL     1      -9.380  12.027  66.616  1.00  0.00    -0.219 A  
ENDROOT
BRANCH   5   9
HETATM    9  C   UNL     1      -6.889  10.542  69.027  1.00  0.00    -0.068 C  
HETATM   10  O   UNL     1      -5.661  10.579  68.944  1.00  0.00    -0.041 OA 
HETATM   11  N   UNL     1      -7.587   9.747  69.926  1.00  0.00    -0.133 N  
HETATM   12  H   UNL     1      -8.605   9.760  69.862  1.00  0.00     0.000 HD 
BRANCH  11  13
HETATM   13  C   UNL     1      -7.015   8.917  70.927  1.00  0.00    -0.080 A  
HETATM   14  C   UNL     1      -5.225   7.528  71.824  1.00  0.00    -0.035 A  
HETATM   15  C   UNL     1      -5.966   7.280  72.976  1.00  0.00    -0.052 A  
HETATM   16  C   UNL     1      -7.735   8.689  72.107  1.00  0.00    -0.073 A  
HETATM   17  C   UNL     1      -5.750   8.334  70.802  1.00  0.00    -0.032 A  
HETATM   18  C   UNL     1      -7.227   7.854  73.113  1.00  0.00    -0.121 A  
ENDBRANCH  11  13
ENDBRANCH   5   9
BRANCH   7  19
HETATM   19  C   UNL     1      -9.636   9.643  67.478  1.00  0.00    -0.180 A  
HETATM   20  C   UNL     1     -10.402   9.282  68.604  1.00  0.00    -0.229 A  
HETATM   21  C   UNL     1     -10.214   7.467  66.521  1.00  0.00    -0.149 A  
HETATM   22  C   UNL     1     -11.002   7.154  67.626  1.00  0.00    -0.226 A  
HETATM   23  C   UNL     1      -9.560   8.708  66.434  1.00  0.00    -0.316 A  
HETATM   24  C   UNL     1     -11.104   8.069  68.665  1.00  0.00     0.300 A  
ENDBRANCH   7  19
BRANCH   8  25
HETATM   25  C   UNL     1     -10.472  12.081  65.576  1.00  0.00    -0.307 A  
HETATM   26  C   UNL     1     -11.785  12.468  65.894  1.00  0.00    -0.480 A  
HETATM   27  C   UNL     1     -11.253  11.817  63.270  1.00  0.00    -0.357 A  
HETATM   28  C   UNL     1     -10.232  11.743  64.234  1.00  0.00    -0.344 A  
HETATM   29  F   UNL     1     -13.463  12.421  62.691  1.00  0.00     0.341 F  
HETATM   30  C   UNL     1     -12.779  12.639  64.926  1.00  0.00    -0.450 A  
HETATM   31  C   UNL     1     -12.507  12.299  63.618  1.00  0.00    -0.541 A  
ENDBRANCH   8  25
BRANCH   6  32
HETATM   32  C   UNL     1      -8.589  14.416  66.235  1.00  0.00     0.410 C  
BRANCH  32  33
HETATM   33  C   UNL     1      -9.991  14.938  65.870  1.00  0.00    -0.357 C  
BRANCH  33  34
HETATM   34  C   UNL     1     -10.029  16.433  65.493  1.00  0.00    -0.141 C  
HETATM   35  O   UNL     1     -10.836  16.685  64.343  1.00  0.00    -1.017 OA 
HETATM   36  H   UNL     1     -10.859  17.606  64.111  1.00  0.00     0.000 HD 
BRANCH  34  37
HETATM   37  C   UNL     1     -10.627  17.259  66.646  1.00  0.00    -0.179 C  
BRANCH  37  38
HETATM   38  C   UNL     1     -10.439  16.608  68.028  1.00  0.00    -0.320 C  
HETATM   39  H   UNL     1     -10.289  17.198  69.919  1.00  0.00     0.000 HD 
HETATM   40  O   UNL     1     -10.405  17.599  69.067  1.00  0.00    -0.360 OA 
BRANCH  38  41
HETATM   41  C   UNL     1     -11.601  15.667  68.340  1.00  0.00    -0.358 C  
HETATM   42  C   UNL     1     -11.240  14.584  69.329  1.00  0.00    -0.281 C  
HETATM   43  O   UNL     1     -10.450  14.991  70.346  1.00  0.00    -0.132 OA 
HETATM   44  O   UNL     1     -11.684  13.446  69.262  1.00  0.00    -0.289 OA 
ENDBRANCH  38  41
ENDBRANCH  37  38
ENDBRANCH  34  37
ENDBRANCH  33  34
ENDBRANCH  32  33
ENDBRANCH   6  32
TORSDOF 10
ENDMDL
MODEL      136
REMARK 921   NORMALIZED FREE ENERGY PREDICTED BY IDOCK:   -3.40 KCAL/MOL
REMARK 922        TOTAL FREE ENERGY PREDICTED BY IDOCK:   -8.14 KCAL/MOL
REMARK 923 INTER-LIGAND FREE ENERGY PREDICTED BY IDOCK:   -6.45 KCAL/MOL
REMARK 924 INTRA-LIGAND FREE ENERGY PREDICTED BY IDOCK:   -1.69 KCAL/MOL
REMARK 927      BINDING AFFINITY PREDICTED BY RF-SCORE:    0.00 PKD
ROOT
HETATM    1  C   UNL     1     -10.420   9.805  71.579  1.00  0.00     0.258 C  
HETATM    2  C   UNL     1     -10.533   8.457  70.865  1.00  0.00    -0.235 C  
HETATM    3  C   UNL     1     -10.313   8.487  69.347  1.00  0.00    -0.215 A  
HETATM    4  C   UNL     1     -11.799   7.724  71.317  1.00  0.00    -0.318 C  
HETATM    5  C   UNL     1     -10.511   9.485  68.373  1.00  0.00    -0.261 A  
HETATM    6  N   UNL     1      -9.685   7.411  68.704  1.00  0.00    -0.150 NA 
HETATM    7  C   UNL     1      -9.771   9.061  67.177  1.00  0.00    -0.237 A  
HETATM    8  C   UNL     1      -9.338   7.737  67.382  1.00  0.00    -0.141 A  
ENDROOT
BRANCH   5   9
HETATM    9  C   UNL     1     -11.215  10.794  68.546  1.00  0.00    -0.279 C  
HETATM   10  O   UNL     1     -12.445  10.843  68.532  1.00  0.00    -0.375 OA 
HETATM   11  N   UNL     1     -10.393  11.899  68.725  1.00  0.00    -0.321 N  
HETATM   12  H   UNL     1      -9.386  11.741  68.662  1.00  0.00     0.000 HD 
BRANCH  11  13
HETATM   13  C   UNL     1     -10.821  13.227  68.987  1.00  0.00    -0.173 A  
HETATM   14  C   UNL     1     -10.964  15.600  68.454  1.00  0.00    -0.308 A  
HETATM   15  C   UNL     1     -11.724  15.833  69.597  1.00  0.00    -0.363 A  
HETATM   16  C   UNL     1     -11.618  13.468  70.114  1.00  0.00    -0.190 A  
HETATM   17  C   UNL     1     -10.508  14.307  68.156  1.00  0.00    -0.246 A  
HETATM   18  C   UNL     1     -12.044  14.767  70.433  1.00  0.00    -0.381 A  
ENDBRANCH  11  13
ENDBRANCH   5   9
BRANCH   7  19
HETATM   19  C   UNL     1      -9.483   9.830  65.935  1.00  0.00    -0.285 A  
HETATM   20  C   UNL     1     -10.451  10.687  65.374  1.00  0.00    -0.254 A  
HETATM   21  C   UNL     1      -8.010  10.460  64.086  1.00  0.00    -0.073 A  
HETATM   22  C   UNL     1      -8.967  11.336  63.579  1.00  0.00    -0.000 A  
HETATM   23  C   UNL     1      -8.253   9.736  65.266  1.00  0.00    -0.137 A  
HETATM   24  C   UNL     1     -10.186  11.456  64.231  1.00  0.00    -0.367 A  
ENDBRANCH   7  19
BRANCH   8  25
HETATM   25  C   UNL     1      -8.673   6.771  66.433  1.00  0.00    -0.142 A  
HETATM   26  C   UNL     1      -7.308   6.454  66.527  1.00  0.00    -0.078 A  
HETATM   27  C   UNL     1      -8.762   5.224  64.536  1.00  0.00    -0.072 A  
HETATM   28  C   UNL     1      -9.388   6.138  65.402  1.00  0.00     0.307 A  
HETATM   29  F   UNL     1      -6.853   3.962  63.946  1.00  0.00    -0.040 F  
HETATM   30  C   UNL     1      -6.702   5.474  65.736  1.00  0.00    -0.056 A  
HETATM   31  C   UNL     1      -7.434   4.873  64.734  1.00  0.00    -0.075 A  
ENDBRANCH   8  25
BRANCH   6  32
HETATM   32  C   UNL     1      -9.518   6.078  69.303  1.00  0.00    -0.132 C  
BRANCH  32  33
HETATM   33  C   UNL     1     -10.363   4.953  68.677  1.00  0.00    -0.041 C  
BRANCH  33  34
HETATM   34  C   UNL     1      -9.757   3.544  68.841  1.00  0.00     0.049 C  
HETATM   35  O   UNL     1      -9.711   2.824  67.609  1.00  0.00    -0.350 OA 
HETATM   36  H   UNL     1      -9.338   1.956  67.711  1.00  0.00     0.000 HD 
BRANCH  34  37
HETATM   37  C   UNL     1      -8.309   3.643  69.353  1.00  0.00    -0.083 C  
BRANCH  37  38
HETATM   38  C   UNL     1      -8.061   2.849  70.648  1.00  0.00    -0.045 C  
HETATM   39  H   UNL     1      -7.771   3.237  72.575  1.00  0.00     0.000 HD 
HETATM   40  O   UNL     1      -7.924   3.727  71.776  1.00  0.00    -0.061 OA 
BRANCH  38  41
HETATM   41  C   UNL     1      -9.237   1.919  70.940  1.00  0.00    -0.172 C  
HETATM   42  C   UNL     1     -10.114   2.406  72.070  1.00  0.00    -0.134 C  
HETATM   43  O   UNL     1     -10.329   3.739  72.080  1.00  0.00    -0.149 OA 
HETATM   44  O   UNL     1     -10.649   1.651  72.870  1.00  0.00    -0.125 OA 
ENDBRANCH  38  41
ENDBRANCH  37  38
ENDBRANCH  34  37
ENDBRANCH  33  34
ENDBRANCH  32  33
ENDBRANCH   6  32
TORSDOF 10
ENDMDL
MODEL      137
REMARK 921   NORMALIZED FREE ENERGY PREDICTED BY IDOCK:   -3.32 KCAL/MOL
REMARK 922        TOTAL FREE ENERGY PREDICTED BY IDOCK:   -8.02 KCAL/MOL
REMARK 923 INTER-LIGAND FREE ENERGY PREDICTED BY IDOCK:   -6.01 KCAL/MOL
REMARK 924 INTRA-LIGAND FREE ENERGY PREDICTED BY IDOCK:   -2.01 KCAL/MOL
REMARK 927      BINDING AFFINITY PREDICTED BY RF-SCORE:    0.00 PKD
ROOT
HETATM    1  C   UNL     1      -5.321  12.755  69.030  1.00  0.00    -0.068 C  
HETATM    2  C   UNL     1      -6.562  11.915  68.724  1.00  0.00    -0.080 C  
HETATM    3  C   UNL     1      -7.755  12.680  68.136  1.00  0.00    -0.142 A  
HETATM    4  C   UNL     1      -6.899  11.014  69.914  1.00  0.00    -0.097 C  
HETATM    5  C   UNL     1      -8.183  14.016  68.252  1.00  0.00    -0.153 A  
HETATM    6  N   UNL     1      -8.588  12.067  67.189  1.00  0.00    -0.175 NA 
HETATM    7  C   UNL     1      -9.152  14.245  67.172  1.00  0.00    -0.237 A  
HETATM    8  C   UNL     1      -9.444  13.001  66.582  1.00  0.00    -0.256 A  
ENDROOT
BRANCH   5   9
HETATM    9  C   UNL     1      -7.663  15.056  69.194  1.00  0.00    -0.179 C  
HETATM   10  O   UNL     1      -7.550  14.805  70.394  1.00  0.00     0.320 OA 
HETATM   11  N   UNL     1      -7.326  16.273  68.618  1.00  0.00    -0.169 N  
HETATM   12  H   UNL     1      -7.517  16.381  67.621  1.00  0.00     0.000 HD 
BRANCH  11  13
HETATM   13  C   UNL     1      -6.742  17.382  69.285  1.00  0.00    -0.222 A  
HETATM   14  C   UNL     1      -6.461  19.770  69.677  1.00  0.00    -0.389 A  
HETATM   15  C   UNL     1      -5.522  19.518  70.673  1.00  0.00    -0.266 A  
HETATM   16  C   UNL     1      -5.823  17.141  70.316  1.00  0.00    -0.108 A  
HETATM   17  C   UNL     1      -7.060  18.709  68.981  1.00  0.00    -0.300 A  
HETATM   18  C   UNL     1      -5.196  18.202  70.987  1.00  0.00    -0.260 A  
ENDBRANCH  11  13
ENDBRANCH   5   9
BRANCH   7  19
HETATM   19  C   UNL     1      -9.761  15.526  66.719  1.00  0.00    -0.252 A  
HETATM   20  C   UNL     1     -10.323  16.428  67.645  1.00  0.00    -0.284 A  
HETATM   21  C   UNL     1     -10.403  17.100  64.960  1.00  0.00     0.494 A  
HETATM   22  C   UNL     1     -10.910  17.994  65.900  1.00  0.00     0.025 A  
HETATM   23  C   UNL     1      -9.810  15.892  65.365  1.00  0.00    -0.163 A  
HETATM   24  C   UNL     1     -10.860  17.661  67.246  1.00  0.00    -0.141 A  
ENDBRANCH   7  19
BRANCH   8  25
HETATM   25  C   UNL     1     -10.474  12.633  65.542  1.00  0.00    -0.304 A  
HETATM   26  C   UNL     1     -11.818  12.399  65.874  1.00  0.00    -0.467 A  
HETATM   27  C   UNL     1     -11.110  12.179  63.220  1.00  0.00    -0.408 A  
HETATM   28  C   UNL     1     -10.138  12.503  64.184  1.00  0.00    -0.311 A  
HETATM   29  F   UNL     1     -13.376  11.800  62.665  1.00  0.00    -0.130 F  
HETATM   30  C   UNL     1     -12.808  12.174  64.913  1.00  0.00     0.244 A  
HETATM   31  C   UNL     1     -12.442  12.054  63.589  1.00  0.00    -0.525 A  
ENDBRANCH   8  25
BRANCH   6  32
HETATM   32  C   UNL     1      -8.635  10.617  66.949  1.00  0.00    -0.126 C  
BRANCH  32  33
HETATM   33  C   UNL     1      -7.804  10.109  65.756  1.00  0.00    -0.139 C  
BRANCH  33  34
HETATM   34  C   UNL     1      -7.393   8.626  65.860  1.00  0.00    -0.084 C  
HETATM   35  O   UNL     1      -6.080   8.388  65.352  1.00  0.00    -0.045 OA 
HETATM   36  H   UNL     1      -5.827   7.475  65.416  1.00  0.00     0.000 HD 
BRANCH  34  37
HETATM   37  C   UNL     1      -7.390   8.175  67.331  1.00  0.00    -0.089 C  
BRANCH  37  38
HETATM   38  C   UNL     1      -7.135   6.668  67.510  1.00  0.00    -0.084 C  
HETATM   39  H   UNL     1      -5.581   5.429  67.484  1.00  0.00     0.000 HD 
HETATM   40  O   UNL     1      -5.739   6.359  67.374  1.00  0.00    -0.011 OA 
BRANCH  38  41
HETATM   41  C   UNL     1      -7.564   6.213  68.903  1.00  0.00    -0.092 C  
HETATM   42  C   UNL     1      -8.775   5.309  68.887  1.00  0.00    -0.090 C  
HETATM   43  O   UNL     1      -8.790   4.407  67.882  1.00  0.00    -0.103 OA 
HETATM   44  O   UNL     1      -9.637   5.337  69.754  1.00  0.00    -0.143 OA 
ENDBRANCH  38  41
ENDBRANCH  37  38
ENDBRANCH  34  37
ENDBRANCH  33  34
ENDBRANCH  32  33
ENDBRANCH   6  32
TORSDOF 10
ENDMDL
MODEL      138
REMARK 921   NORMALIZED FREE ENERGY PREDICTED BY IDOCK:   -3.32 KCAL/MOL
REMARK 922        TOTAL FREE ENERGY PREDICTED BY IDOCK:   -8.01 KCAL/MOL
REMARK 923 INTER-LIGAND FREE ENERGY PREDICTED BY IDOCK:   -6.23 KCAL/MOL
REMARK 924 INTRA-LIGAND FREE ENERGY PREDICTED BY IDOCK:   -1.78 KCAL/MOL
REMARK 927      BINDING AFFINITY PREDICTED BY RF-SCORE:    0.00 PKD
ROOT
HETATM    1  C   UNL     1      -5.126  11.275  69.391  1.00  0.00    -0.044 C  
HETATM    2  C   UNL     1      -6.104  10.127  69.649  1.00  0.00    -0.046 C  
HETATM    3  C   UNL     1      -7.097   9.831  68.518  1.00  0.00    -0.068 A  
HETATM    4  C   UNL     1      -6.735  10.272  71.037  1.00  0.00     0.362 C  
HETATM    5  C   UNL     1      -7.666  10.635  67.511  1.00  0.00    -0.101 A  
HETATM    6  N   UNL     1      -7.499   8.513  68.260  1.00  0.00    -0.094 NA 
HETATM    7  C   UNL     1      -8.231   9.721  66.510  1.00  0.00    -0.120 A  
HETATM    8  C   UNL     1      -8.186   8.418  67.038  1.00  0.00    -0.107 A  
ENDROOT
BRANCH   5   9
HETATM    9  C   UNL     1      -7.596  12.125  67.395  1.00  0.00    -0.155 C  
HETATM   10  O   UNL     1      -6.580  12.666  66.958  1.00  0.00    -0.125 OA 
HETATM   11  N   UNL     1      -8.733  12.812  67.799  1.00  0.00    -0.172 N  
HETATM   12  H   UNL     1      -9.492  12.257  68.197  1.00  0.00     0.000 HD 
BRANCH  11  13
HETATM   13  C   UNL     1      -8.939  14.215  67.712  1.00  0.00    -0.187 A  
HETATM   14  C   UNL     1      -8.979  16.459  68.659  1.00  0.00    -0.233 A  
HETATM   15  C   UNL     1      -9.371  16.992  67.434  1.00  0.00    -0.239 A  
HETATM   16  C   UNL     1      -9.297  14.768  66.476  1.00  0.00    -0.316 A  
HETATM   17  C   UNL     1      -8.773  15.079  68.799  1.00  0.00    -0.186 A  
HETATM   18  C   UNL     1      -9.540  16.144  66.343  1.00  0.00    -0.312 A  
ENDBRANCH  11  13
ENDBRANCH   5   9
BRANCH   7  19
HETATM   19  C   UNL     1      -8.771  10.036  65.158  1.00  0.00    -0.183 A  
HETATM   20  C   UNL     1      -8.070   9.662  63.994  1.00  0.00    -0.152 A  
HETATM   21  C   UNL     1     -10.467  11.015  63.692  1.00  0.00    -0.388 A  
HETATM   22  C   UNL     1      -9.777  10.593  62.558  1.00  0.00    -0.172 A  
HETATM   23  C   UNL     1      -9.985  10.716  64.978  1.00  0.00    -0.369 A  
HETATM   24  C   UNL     1      -8.581   9.907  62.711  1.00  0.00    -0.192 A  
ENDBRANCH   7  19
BRANCH   8  25
HETATM   25  C   UNL     1      -8.764   7.129  66.506  1.00  0.00    -0.139 A  
HETATM   26  C   UNL     1     -10.001   6.629  66.946  1.00  0.00    -0.238 A  
HETATM   27  C   UNL     1      -8.649   5.171  65.039  1.00  0.00    -0.151 A  
HETATM   28  C   UNL     1      -8.091   6.360  65.542  1.00  0.00    -0.130 A  
HETATM   29  F   UNL     1     -10.472   3.673  64.917  1.00  0.00    -0.158 F  
HETATM   30  C   UNL     1     -10.606   5.504  66.381  1.00  0.00    -0.291 A  
HETATM   31  C   UNL     1      -9.918   4.774  65.436  1.00  0.00    -0.093 A  
ENDBRANCH   8  25
BRANCH   6  32
HETATM   32  C   UNL     1      -7.323   7.398  69.204  1.00  0.00    -0.090 C  
BRANCH  32  33
HETATM   33  C   UNL     1      -8.326   7.345  70.371  1.00  0.00    -0.129 C  
BRANCH  33  34
HETATM   34  C   UNL     1      -8.457   5.955  71.026  1.00  0.00    -0.124 C  
HETATM   35  O   UNL     1      -7.476   5.034  70.551  1.00  0.00    -0.060 OA 
HETATM   36  H   UNL     1      -7.556   4.178  70.955  1.00  0.00     0.000 HD 
BRANCH  34  37
HETATM   37  C   UNL     1      -8.266   6.063  72.549  1.00  0.00    -0.108 C  
BRANCH  37  38
HETATM   38  C   UNL     1      -9.537   5.736  73.352  1.00  0.00    -0.143 C  
HETATM   39  H   UNL     1     -11.461   5.404  72.982  1.00  0.00     0.000 HD 
HETATM   40  O   UNL     1     -10.677   5.606  72.487  1.00  0.00    -0.214 OA 
BRANCH  38  41
HETATM   41  C   UNL     1      -9.379   4.408  74.090  1.00  0.00    -0.122 C  
HETATM   42  C   UNL     1     -10.176   3.284  73.471  1.00  0.00    -0.133 C  
HETATM   43  O   UNL     1     -10.178   3.273  72.121  1.00  0.00    -0.153 OA 
HETATM   44  O   UNL     1     -10.716   2.408  74.133  1.00  0.00    -0.150 OA 
ENDBRANCH  38  41
ENDBRANCH  37  38
ENDBRANCH  34  37
ENDBRANCH  33  34
ENDBRANCH  32  33
ENDBRANCH   6  32
TORSDOF 10
ENDMDL
MODEL      139
REMARK 921   NORMALIZED FREE ENERGY PREDICTED BY IDOCK:   -3.10 KCAL/MOL
REMARK 922        TOTAL FREE ENERGY PREDICTED BY IDOCK:   -7.66 KCAL/MOL
REMARK 923 INTER-LIGAND FREE ENERGY PREDICTED BY IDOCK:   -6.60 KCAL/MOL
REMARK 924 INTRA-LIGAND FREE ENERGY PREDICTED BY IDOCK:   -1.06 KCAL/MOL
REMARK 927      BINDING AFFINITY PREDICTED BY RF-SCORE:    0.00 PKD
ROOT
HETATM    1  C   UNL     1     -10.614   9.450  71.227  1.00  0.00    -0.400 C  
HETATM    2  C   UNL     1     -10.579   8.033  70.652  1.00  0.00    -0.227 C  
HETATM    3  C   UNL     1      -9.979   7.900  69.246  1.00  0.00    -0.190 A  
HETATM    4  C   UNL     1     -11.937   7.352  70.839  1.00  0.00    -0.308 C  
HETATM    5  C   UNL     1      -9.897   8.787  68.155  1.00  0.00    -0.194 A  
HETATM    6  N   UNL     1      -9.239   6.761  68.901  1.00  0.00    -0.132 NA 
HETATM    7  C   UNL     1      -8.889   8.236  67.239  1.00  0.00    -0.137 A  
HETATM    8  C   UNL     1      -8.558   6.943  67.684  1.00  0.00    -0.121 A  
ENDROOT
BRANCH   5   9
HETATM    9  C   UNL     1     -10.586  10.106  68.006  1.00  0.00    -0.231 C  
HETATM   10  O   UNL     1     -10.933  10.741  69.002  1.00  0.00    -0.205 OA 
HETATM   11  N   UNL     1     -10.785  10.535  66.700  1.00  0.00    -0.196 N  
HETATM   12  H   UNL     1     -10.504   9.896  65.956  1.00  0.00     0.000 HD 
BRANCH  11  13
HETATM   13  C   UNL     1     -11.341  11.780  66.304  1.00  0.00    -0.287 A  
HETATM   14  C   UNL     1     -11.782  14.154  66.627  1.00  0.00    -0.422 A  
HETATM   15  C   UNL     1     -12.486  14.208  65.427  1.00  0.00    -0.488 A  
HETATM   16  C   UNL     1     -12.020  11.856  65.081  1.00  0.00    -0.113 A  
HETATM   17  C   UNL     1     -11.221  12.946  67.066  1.00  0.00    -0.329 A  
HETATM   18  C   UNL     1     -12.614  13.055  64.657  1.00  0.00    -0.425 A  
ENDBRANCH  11  13
ENDBRANCH   5   9
BRANCH   7  19
HETATM   19  C   UNL     1      -8.274   8.868  66.038  1.00  0.00    -0.117 A  
HETATM   20  C   UNL     1      -8.768   8.597  64.747  1.00  0.00    -0.099 A  
HETATM   21  C   UNL     1      -6.611  10.317  64.982  1.00  0.00    -0.114 A  
HETATM   22  C   UNL     1      -7.148  10.069  63.721  1.00  0.00    -0.129 A  
HETATM   23  C   UNL     1      -7.184   9.746  66.131  1.00  0.00    -0.100 A  
HETATM   24  C   UNL     1      -8.235   9.215  63.605  1.00  0.00    -0.174 A  
ENDBRANCH   7  19
BRANCH   8  25
HETATM   25  C   UNL     1      -7.701   5.880  67.043  1.00  0.00    -0.101 A  
HETATM   26  C   UNL     1      -6.428   5.551  67.537  1.00  0.00    -0.051 A  
HETATM   27  C   UNL     1      -7.333   4.163  65.336  1.00  0.00    -0.072 A  
HETATM   28  C   UNL     1      -8.133   5.165  65.913  1.00  0.00    -0.109 A  
HETATM   29  F   UNL     1      -5.391   2.819  65.406  1.00  0.00    -0.007 F  
HETATM   30  C   UNL     1      -5.670   4.491  67.031  1.00  0.00    -0.022 A  
HETATM   31  C   UNL     1      -6.126   3.810  65.922  1.00  0.00    -0.028 A  
ENDBRANCH   8  25
BRANCH   6  32
HETATM   32  C   UNL     1      -9.266   5.500  69.658  1.00  0.00    -0.132 C  
BRANCH  32  33
HETATM   33  C   UNL     1     -10.121   4.373  69.050  1.00  0.00     0.011 C  
BRANCH  33  34
HETATM   34  C   UNL     1      -9.425   2.997  69.026  1.00  0.00    -0.101 C  
HETATM   35  O   UNL     1      -9.074   2.587  67.704  1.00  0.00    -0.151 OA 
HETATM   36  H   UNL     1      -8.645   1.740  67.689  1.00  0.00     0.000 HD 
BRANCH  34  37
HETATM   37  C   UNL     1      -8.119   3.045  69.839  1.00  0.00    -0.059 C  
BRANCH  37  38
HETATM   38  C   UNL     1      -8.074   2.022  70.987  1.00  0.00    -0.046 C  
HETATM   39  H   UNL     1      -7.473   1.967  72.880  1.00  0.00     0.000 HD 
HETATM   40  O   UNL     1      -7.502   2.598  72.172  1.00  0.00    -0.045 OA 
BRANCH  38  41
HETATM   41  C   UNL     1      -9.484   1.558  71.348  1.00  0.00    -0.187 C  
HETATM   42  C   UNL     1     -10.030   2.224  72.589  1.00  0.00    -0.134 C  
HETATM   43  O   UNL     1      -9.738   3.538  72.698  1.00  0.00    -0.127 OA 
HETATM   44  O   UNL     1     -10.743   1.644  73.396  1.00  0.00    -0.101 OA 
ENDBRANCH  38  41
ENDBRANCH  37  38
ENDBRANCH  34  37
ENDBRANCH  33  34
ENDBRANCH  32  33
ENDBRANCH   6  32
TORSDOF 10
ENDMDL
MODEL      140
REMARK 921   NORMALIZED FREE ENERGY PREDICTED BY IDOCK:   -3.06 KCAL/MOL
REMARK 922        TOTAL FREE ENERGY PREDICTED BY IDOCK:   -7.61 KCAL/MOL
REMARK 923 INTER-LIGAND FREE ENERGY PREDICTED BY IDOCK:   -7.98 KCAL/MOL
REMARK 924 INTRA-LIGAND FREE ENERGY PREDICTED BY IDOCK:    0.37 KCAL/MOL
REMARK 927      BINDING AFFINITY PREDICTED BY RF-SCORE:    0.00 PKD
ROOT
HETATM    1  C   UNL     1      -6.487   9.494  64.864  1.00  0.00    -0.085 C  
HETATM    2  C   UNL     1      -7.991   9.678  65.070  1.00  0.00    -0.122 C  
HETATM    3  C   UNL     1      -8.545   9.179  66.411  1.00  0.00    -0.125 A  
HETATM    4  C   UNL     1      -8.758   9.192  63.837  1.00  0.00    -0.154 C  
HETATM    5  C   UNL     1      -8.131   8.168  67.299  1.00  0.00    -0.121 A  
HETATM    6  N   UNL     1      -9.599   9.862  67.036  1.00  0.00    -0.169 NA 
HETATM    7  C   UNL     1      -8.818   8.417  68.573  1.00  0.00    -0.136 A  
HETATM    8  C   UNL     1      -9.780   9.420  68.358  1.00  0.00    -0.149 A  
ENDROOT
BRANCH   5   9
HETATM    9  C   UNL     1      -7.090   7.120  67.056  1.00  0.00    -0.090 C  
HETATM   10  O   UNL     1      -5.940   7.282  67.464  1.00  0.00    -0.031 OA 
HETATM   11  N   UNL     1      -7.522   5.995  66.366  1.00  0.00    -0.085 N  
HETATM   12  H   UNL     1      -8.485   6.000  66.030  1.00  0.00     0.000 HD 
BRANCH  11  13
HETATM   13  C   UNL     1      -6.748   4.838  66.085  1.00  0.00    -0.050 A  
HETATM   14  C   UNL     1      -5.146   3.578  64.750  1.00  0.00    -0.009 A  
HETATM   15  C   UNL     1      -5.248   2.492  65.614  1.00  0.00    -0.008 A  
HETATM   16  C   UNL     1      -6.812   3.752  66.968  1.00  0.00    -0.051 A  
HETATM   17  C   UNL     1      -5.898   4.740  64.979  1.00  0.00    -0.014 A  
HETATM   18  C   UNL     1      -6.089   2.575  66.720  1.00  0.00    -0.024 A  
ENDBRANCH  11  13
ENDBRANCH   5   9
BRANCH   7  19
HETATM   19  C   UNL     1      -8.594   7.771  69.897  1.00  0.00    -0.137 A  
HETATM   20  C   UNL     1      -8.671   6.371  70.040  1.00  0.00    -0.142 A  
HETATM   21  C   UNL     1      -8.115   7.883  72.292  1.00  0.00    -0.161 A  
HETATM   22  C   UNL     1      -8.150   6.495  72.398  1.00  0.00    -0.101 A  
HETATM   23  C   UNL     1      -8.306   8.514  71.051  1.00  0.00    -0.173 A  
HETATM   24  C   UNL     1      -8.419   5.738  71.266  1.00  0.00    -0.128 A  
ENDBRANCH   7  19
BRANCH   8  25
HETATM   25  C   UNL     1     -10.856   9.952  69.273  1.00  0.00    -0.255 A  
HETATM   26  C   UNL     1     -11.581   9.113  70.136  1.00  0.00    -0.041 A  
HETATM   27  C   UNL     1     -12.183  11.802  70.175  1.00  0.00    -0.342 A  
HETATM   28  C   UNL     1     -11.192  11.315  69.305  1.00  0.00    -0.336 A  
HETATM   29  F   UNL     1     -13.703  11.418  71.944  1.00  0.00    -0.340 F  
HETATM   30  C   UNL     1     -12.496   9.601  71.073  1.00  0.00    -0.382 A  
HETATM   31  C   UNL     1     -12.800  10.946  71.077  1.00  0.00    -0.376 A  
ENDBRANCH   8  25
BRANCH   6  32
HETATM   32  C   UNL     1     -10.471  10.831  66.356  1.00  0.00    -0.233 C  
BRANCH  32  33
HETATM   33  C   UNL     1     -10.271  10.957  64.834  1.00  0.00    -0.381 C  
BRANCH  33  34
HETATM   34  C   UNL     1     -10.543  12.369  64.277  1.00  0.00    -0.363 C  
HETATM   35  O   UNL     1     -11.399  12.349  63.135  1.00  0.00    -0.681 OA 
HETATM   36  H   UNL     1     -11.567  13.219  62.792  1.00  0.00     0.000 HD 
BRANCH  34  37
HETATM   37  C   UNL     1     -11.240  13.237  65.340  1.00  0.00    -0.306 C  
BRANCH  37  38
HETATM   38  C   UNL     1     -11.418  14.704  64.913  1.00  0.00    -0.401 C  
HETATM   39  H   UNL     1     -12.626  15.754  63.735  1.00  0.00     0.000 HD 
HETATM   40  O   UNL     1     -12.517  14.849  63.999  1.00  0.00    -0.807 OA 
BRANCH  38  41
HETATM   41  C   UNL     1     -11.723  15.583  66.126  1.00  0.00     0.336 C  
HETATM   42  C   UNL     1     -10.841  15.282  67.315  1.00  0.00    -0.318 C  
HETATM   43  O   UNL     1      -9.549  15.034  67.009  1.00  0.00    -0.215 OA 
HETATM   44  O   UNL     1     -11.241  15.332  68.469  1.00  0.00    -0.271 OA 
ENDBRANCH  38  41
ENDBRANCH  37  38
ENDBRANCH  34  37
ENDBRANCH  33  34
ENDBRANCH  32  33
ENDBRANCH   6  32
TORSDOF 10
ENDMDL
MODEL      141
REMARK 921   NORMALIZED FREE ENERGY PREDICTED BY IDOCK:   -2.98 KCAL/MOL
REMARK 922        TOTAL FREE ENERGY PREDICTED BY IDOCK:   -7.47 KCAL/MOL
REMARK 923 INTER-LIGAND FREE ENERGY PREDICTED BY IDOCK:   -5.81 KCAL/MOL
REMARK 924 INTRA-LIGAND FREE ENERGY PREDICTED BY IDOCK:   -1.66 KCAL/MOL
REMARK 927      BINDING AFFINITY PREDICTED BY RF-SCORE:    0.00 PKD
ROOT
HETATM    1  C   UNL     1      -9.514   3.919  68.523  1.00  0.00    -0.213 C  
HETATM    2  C   UNL     1      -8.567   4.970  69.105  1.00  0.00    -0.098 C  
HETATM    3  C   UNL     1      -8.101   6.059  68.131  1.00  0.00    -0.110 A  
HETATM    4  C   UNL     1      -7.446   4.292  69.897  1.00  0.00    -0.050 C  
HETATM    5  C   UNL     1      -7.925   6.079  66.734  1.00  0.00    -0.102 A  
HETATM    6  N   UNL     1      -7.893   7.369  68.585  1.00  0.00    -0.119 NA 
HETATM    7  C   UNL     1      -7.832   7.491  66.340  1.00  0.00    -0.098 A  
HETATM    8  C   UNL     1      -7.733   8.263  67.512  1.00  0.00    -0.099 A  
ENDROOT
BRANCH   5   9
HETATM    9  C   UNL     1      -7.963   4.911  65.799  1.00  0.00    -0.106 C  
HETATM   10  O   UNL     1      -7.026   4.113  65.766  1.00  0.00    -0.059 OA 
HETATM   11  N   UNL     1      -9.103   4.809  65.013  1.00  0.00    -0.156 N  
HETATM   12  H   UNL     1      -9.787   5.562  65.090  1.00  0.00     0.000 HD 
BRANCH  11  13
HETATM   13  C   UNL     1      -9.406   3.753  64.113  1.00  0.00    -0.146 A  
HETATM   14  C   UNL     1      -8.779   1.900  62.661  1.00  0.00    -0.073 A  
HETATM   15  C   UNL     1     -10.113   1.678  62.332  1.00  0.00    -0.090 A  
HETATM   16  C   UNL     1     -10.748   3.497  63.802  1.00  0.00    -0.263 A  
HETATM   17  C   UNL     1      -8.428   2.936  63.539  1.00  0.00    -0.086 A  
HETATM   18  C   UNL     1     -11.099   2.484  62.896  1.00  0.00    -0.179 A  
ENDBRANCH  11  13
ENDBRANCH   5   9
BRANCH   7  19
HETATM   19  C   UNL     1      -7.839   8.082  64.972  1.00  0.00    -0.123 A  
HETATM   20  C   UNL     1      -8.815   9.027  64.598  1.00  0.00    -0.139 A  
HETATM   21  C   UNL     1      -6.928   8.286  62.712  1.00  0.00    -0.090 A  
HETATM   22  C   UNL     1      -7.874   9.253  62.382  1.00  0.00    -0.123 A  
HETATM   23  C   UNL     1      -6.892   7.727  64.001  1.00  0.00    -0.061 A  
HETATM   24  C   UNL     1      -8.813   9.631  63.331  1.00  0.00    -0.251 A  
ENDBRANCH   7  19
BRANCH   8  25
HETATM   25  C   UNL     1      -7.467   9.737  67.690  1.00  0.00    -0.091 A  
HETATM   26  C   UNL     1      -8.500  10.658  67.931  1.00  0.00    -0.120 A  
HETATM   27  C   UNL     1      -5.929  11.640  67.806  1.00  0.00    -0.052 A  
HETATM   28  C   UNL     1      -6.168  10.267  67.619  1.00  0.00    -0.057 A  
HETATM   29  F   UNL     1      -6.741  13.787  68.371  1.00  0.00    -0.075 F  
HETATM   30  C   UNL     1      -8.263  12.005  68.215  1.00  0.00    -0.161 A  
HETATM   31  C   UNL     1      -6.974  12.490  68.139  1.00  0.00    -0.089 A  
ENDBRANCH   8  25
BRANCH   6  32
HETATM   32  C   UNL     1      -7.746   7.736  70.002  1.00  0.00    -0.091 C  
BRANCH  32  33
HETATM   33  C   UNL     1      -9.057   8.004  70.763  1.00  0.00    -0.151 C  
BRANCH  33  34
HETATM   34  C   UNL     1     -10.319   7.477  70.048  1.00  0.00    -0.221 C  
HETATM   35  O   UNL     1     -11.227   6.838  70.946  1.00  0.00    -0.259 OA 
HETATM   36  H   UNL     1     -12.004   6.514  70.506  1.00  0.00     0.000 HD 
BRANCH  34  37
HETATM   37  C   UNL     1     -11.086   8.640  69.393  1.00  0.00     0.068 C  
BRANCH  37  38
HETATM   38  C   UNL     1     -11.647   9.652  70.407  1.00  0.00    -0.236 C  
HETATM   39  H   UNL     1     -11.495  10.017  72.354  1.00  0.00     0.000 HD 
HETATM   40  O   UNL     1     -11.148   9.392  71.729  1.00  0.00    -0.370 OA 
BRANCH  38  41
HETATM   41  C   UNL     1     -11.223  11.073  70.037  1.00  0.00    -0.303 C  
HETATM   42  C   UNL     1     -12.226  12.121  70.459  1.00  0.00    -0.304 C  
HETATM   43  O   UNL     1     -12.784  11.911  71.670  1.00  0.00    -0.317 OA 
HETATM   44  O   UNL     1     -12.462  13.121  69.795  1.00  0.00    -0.148 OA 
ENDBRANCH  38  41
ENDBRANCH  37  38
ENDBRANCH  34  37
ENDBRANCH  33  34
ENDBRANCH  32  33
ENDBRANCH   6  32
TORSDOF 10
ENDMDL
MODEL      142
REMARK 921   NORMALIZED FREE ENERGY PREDICTED BY IDOCK:   -2.96 KCAL/MOL
REMARK 922        TOTAL FREE ENERGY PREDICTED BY IDOCK:   -7.45 KCAL/MOL
REMARK 923 INTER-LIGAND FREE ENERGY PREDICTED BY IDOCK:   -4.79 KCAL/MOL
REMARK 924 INTRA-LIGAND FREE ENERGY PREDICTED BY IDOCK:   -2.66 KCAL/MOL
REMARK 927      BINDING AFFINITY PREDICTED BY RF-SCORE:    0.00 PKD
ROOT
HETATM    1  C   UNL     1     -11.577  12.109  66.302  1.00  0.00    -0.424 C  
HETATM    2  C   UNL     1     -10.703  10.937  65.852  1.00  0.00    -0.193 C  
HETATM    3  C   UNL     1      -9.423  10.710  66.667  1.00  0.00    -0.167 A  
HETATM    4  C   UNL     1     -10.502  10.979  64.335  1.00  0.00    -0.422 C  
HETATM    5  C   UNL     1      -8.597  11.577  67.408  1.00  0.00    -0.145 A  
HETATM    6  N   UNL     1      -8.950   9.409  66.888  1.00  0.00    -0.130 NA 
HETATM    7  C   UNL     1      -7.757  10.729  68.264  1.00  0.00    -0.109 A  
HETATM    8  C   UNL     1      -7.938   9.393  67.863  1.00  0.00    -0.092 A  
ENDROOT
BRANCH   5   9
HETATM    9  C   UNL     1      -8.646  13.072  67.436  1.00  0.00    -0.199 C  
HETATM   10  O   UNL     1      -8.084  13.728  66.558  1.00  0.00     0.348 OA 
HETATM   11  N   UNL     1      -9.357  13.629  68.490  1.00  0.00    -0.324 N  
HETATM   12  H   UNL     1      -9.731  12.984  69.187  1.00  0.00     0.000 HD 
BRANCH  11  13
HETATM   13  C   UNL     1      -9.612  15.012  68.690  1.00  0.00    -0.219 A  
HETATM   14  C   UNL     1      -8.914  17.289  69.204  1.00  0.00     0.024 A  
HETATM   15  C   UNL     1     -10.222  17.744  69.064  1.00  0.00    -0.290 A  
HETATM   16  C   UNL     1     -10.918  15.489  68.516  1.00  0.00    -0.288 A  
HETATM   17  C   UNL     1      -8.613  15.930  69.026  1.00  0.00    -0.239 A  
HETATM   18  C   UNL     1     -11.227  16.841  68.729  1.00  0.00    -0.148 A  
ENDBRANCH  11  13
ENDBRANCH   5   9
BRANCH   7  19
HETATM   19  C   UNL     1      -6.853  11.132  69.377  1.00  0.00    -0.125 A  
HETATM   20  C   UNL     1      -6.169  12.363  69.345  1.00  0.00    -0.114 A  
HETATM   21  C   UNL     1      -5.764  10.707  71.527  1.00  0.00     0.235 A  
HETATM   22  C   UNL     1      -5.138  11.950  71.492  1.00  0.00    -0.041 A  
HETATM   23  C   UNL     1      -6.634  10.313  70.496  1.00  0.00    -0.094 A  
HETATM   24  C   UNL     1      -5.349  12.784  70.402  1.00  0.00    -0.134 A  
ENDBRANCH   7  19
BRANCH   8  25
HETATM   25  C   UNL     1      -7.218   8.139  68.294  1.00  0.00    -0.093 A  
HETATM   26  C   UNL     1      -7.881   7.083  68.941  1.00  0.00    -0.115 A  
HETATM   27  C   UNL     1      -5.185   6.783  68.460  1.00  0.00    -0.015 A  
HETATM   28  C   UNL     1      -5.842   7.964  68.072  1.00  0.00    -0.041 A  
HETATM   29  F   UNL     1      -5.293   4.587  69.326  1.00  0.00    -0.006 F  
HETATM   30  C   UNL     1      -7.258   5.869  69.241  1.00  0.00    -0.074 A  
HETATM   31  C   UNL     1      -5.907   5.731  69.007  1.00  0.00    -0.016 A  
ENDBRANCH   8  25
BRANCH   6  32
HETATM   32  C   UNL     1      -9.379   8.234  66.115  1.00  0.00    -0.188 C  
BRANCH  32  33
HETATM   33  C   UNL     1      -8.356   7.691  65.100  1.00  0.00    -0.100 C  
BRANCH  33  34
HETATM   34  C   UNL     1      -8.217   6.155  65.105  1.00  0.00    -0.141 C  
HETATM   35  O   UNL     1      -8.675   5.563  63.889  1.00  0.00    -0.329 OA 
HETATM   36  H   UNL     1      -8.589   4.617  63.892  1.00  0.00     0.000 HD 
BRANCH  34  37
HETATM   37  C   UNL     1      -6.741   5.754  65.268  1.00  0.00    -0.044 C  
BRANCH  37  38
HETATM   38  C   UNL     1      -6.514   4.232  65.257  1.00  0.00    -0.039 C  
HETATM   39  H   UNL     1      -5.116   2.951  65.852  1.00  0.00     0.000 HD 
HETATM   40  O   UNL     1      -5.256   3.890  65.859  1.00  0.00    -0.008 OA 
BRANCH  38  41
HETATM   41  C   UNL     1      -7.604   3.521  66.058  1.00  0.00    -0.081 C  
HETATM   42  C   UNL     1      -8.321   2.451  65.268  1.00  0.00    -0.096 C  
HETATM   43  O   UNL     1      -7.521   1.710  64.471  1.00  0.00    -0.055 OA 
HETATM   44  O   UNL     1      -9.515   2.220  65.392  1.00  0.00    -0.058 OA 
ENDBRANCH  38  41
ENDBRANCH  37  38
ENDBRANCH  34  37
ENDBRANCH  33  34
ENDBRANCH  32  33
ENDBRANCH   6  32
TORSDOF 10
ENDMDL
MODEL      143
REMARK 921   NORMALIZED FREE ENERGY PREDICTED BY IDOCK:   -2.89 KCAL/MOL
REMARK 922        TOTAL FREE ENERGY PREDICTED BY IDOCK:   -7.34 KCAL/MOL
REMARK 923 INTER-LIGAND FREE ENERGY PREDICTED BY IDOCK:   -6.42 KCAL/MOL
REMARK 924 INTRA-LIGAND FREE ENERGY PREDICTED BY IDOCK:   -0.91 KCAL/MOL
REMARK 927      BINDING AFFINITY PREDICTED BY RF-SCORE:    0.00 PKD
ROOT
HETATM    1  C   UNL     1     -13.392   9.339  72.100  1.00  0.00    -0.537 C  
HETATM    2  C   UNL     1     -12.776   7.947  71.945  1.00  0.00    -0.341 C  
HETATM    3  C   UNL     1     -11.262   7.913  71.696  1.00  0.00    -0.251 A  
HETATM    4  C   UNL     1     -13.607   7.105  70.973  1.00  0.00    -0.070 C  
HETATM    5  C   UNL     1     -10.373   8.824  71.094  1.00  0.00    -0.315 A  
HETATM    6  N   UNL     1     -10.483   6.877  72.230  1.00  0.00    -0.204 NA 
HETATM    7  C   UNL     1      -9.018   8.416  71.489  1.00  0.00    -0.251 A  
HETATM    8  C   UNL     1      -9.111   7.163  72.123  1.00  0.00    -0.129 A  
ENDROOT
BRANCH   5   9
HETATM    9  C   UNL     1     -10.724  10.055  70.318  1.00  0.00    -0.309 C  
HETATM   10  O   UNL     1     -11.480  10.898  70.801  1.00  0.00    -0.268 OA 
HETATM   11  N   UNL     1     -10.140  10.159  69.062  1.00  0.00    -0.193 N  
HETATM   12  H   UNL     1      -9.575   9.369  68.748  1.00  0.00     0.000 HD 
BRANCH  11  13
HETATM   13  C   UNL     1     -10.255  11.262  68.175  1.00  0.00    -0.180 A  
HETATM   14  C   UNL     1      -9.620  13.476  67.381  1.00  0.00    -0.227 A  
HETATM   15  C   UNL     1     -10.561  13.402  66.358  1.00  0.00    -0.285 A  
HETATM   16  C   UNL     1     -11.173  11.184  67.119  1.00  0.00    -0.320 A  
HETATM   17  C   UNL     1      -9.475  12.416  68.289  1.00  0.00    -0.203 A  
HETATM   18  C   UNL     1     -11.345  12.258  66.232  1.00  0.00    -0.395 A  
ENDBRANCH  11  13
ENDBRANCH   5   9
BRANCH   7  19
HETATM   19  C   UNL     1      -7.731   9.138  71.294  1.00  0.00    -0.065 A  
HETATM   20  C   UNL     1      -6.681   9.010  72.226  1.00  0.00     0.132 A  
HETATM   21  C   UNL     1      -6.286  10.661  70.039  1.00  0.00    -0.111 A  
HETATM   22  C   UNL     1      -5.248  10.480  70.950  1.00  0.00    -0.087 A  
HETATM   23  C   UNL     1      -7.504   9.977  70.193  1.00  0.00    -0.176 A  
HETATM   24  C   UNL     1      -5.444   9.644  72.040  1.00  0.00    -0.027 A  
ENDBRANCH   7  19
BRANCH   8  25
HETATM   25  C   UNL     1      -8.026   6.222  72.586  1.00  0.00    -0.106 A  
HETATM   26  C   UNL     1      -7.798   5.962  73.948  1.00  0.00    -0.099 A  
HETATM   27  C   UNL     1      -6.191   4.669  72.121  1.00  0.00    -0.021 A  
HETATM   28  C   UNL     1      -7.185   5.558  71.678  1.00  0.00    -0.085 A  
HETATM   29  F   UNL     1      -5.163   3.485  73.889  1.00  0.00     0.000 F  
HETATM   30  C   UNL     1      -6.879   5.006  74.392  1.00  0.00    -0.073 A  
HETATM   31  C   UNL     1      -6.072   4.373  73.472  1.00  0.00    -0.028 A  
ENDBRANCH   8  25
BRANCH   6  32
HETATM   32  C   UNL     1     -11.032   5.608  72.731  1.00  0.00    -0.276 C  
BRANCH  32  33
HETATM   33  C   UNL     1     -10.988   4.425  71.747  1.00  0.00     0.437 C  
BRANCH  33  34
HETATM   34  C   UNL     1     -10.003   4.616  70.575  1.00  0.00    -0.225 C  
HETATM   35  O   UNL     1      -9.369   3.396  70.191  1.00  0.00    -0.144 OA 
HETATM   36  H   UNL     1      -8.763   3.513  69.470  1.00  0.00     0.000 HD 
BRANCH  34  37
HETATM   37  C   UNL     1     -10.745   5.142  69.334  1.00  0.00     0.055 C  
BRANCH  37  38
HETATM   38  C   UNL     1      -9.817   5.431  68.141  1.00  0.00    -0.145 C  
HETATM   39  H   UNL     1      -7.886   5.791  67.838  1.00  0.00     0.000 HD 
HETATM   40  O   UNL     1      -8.459   5.612  68.573  1.00  0.00    -0.105 OA 
BRANCH  38  41
HETATM   41  C   UNL     1      -9.825   4.261  67.159  1.00  0.00    -0.205 C  
HETATM   42  C   UNL     1      -9.810   4.698  65.713  1.00  0.00    -0.215 C  
HETATM   43  O   UNL     1      -9.007   5.752  65.452  1.00  0.00    -0.133 OA 
HETATM   44  O   UNL     1     -10.415   4.104  64.832  1.00  0.00    -0.245 OA 
ENDBRANCH  38  41
ENDBRANCH  37  38
ENDBRANCH  34  37
ENDBRANCH  33  34
ENDBRANCH  32  33
ENDBRANCH   6  32
TORSDOF 10
ENDMDL
MODEL      144
REMARK 921   NORMALIZED FREE ENERGY PREDICTED BY IDOCK:   -2.83 KCAL/MOL
REMARK 922        TOTAL FREE ENERGY PREDICTED BY IDOCK:   -7.24 KCAL/MOL
REMARK 923 INTER-LIGAND FREE ENERGY PREDICTED BY IDOCK:   -5.13 KCAL/MOL
REMARK 924 INTRA-LIGAND FREE ENERGY PREDICTED BY IDOCK:   -2.11 KCAL/MOL
REMARK 927      BINDING AFFINITY PREDICTED BY RF-SCORE:    0.00 PKD
ROOT
HETATM    1  C   UNL     1      -7.815  11.962  67.384  1.00  0.00    -0.158 C  
HETATM    2  C   UNL     1      -7.227  11.569  68.741  1.00  0.00    -0.112 C  
HETATM    3  C   UNL     1      -8.151  10.756  69.656  1.00  0.00     0.124 A  
HETATM    4  C   UNL     1      -6.569  12.782  69.404  1.00  0.00    -0.064 C  
HETATM    5  C   UNL     1      -9.552  10.688  69.782  1.00  0.00     0.142 A  
HETATM    6  N   UNL     1      -7.619   9.766  70.495  1.00  0.00    -0.263 NA 
HETATM    7  C   UNL     1      -9.848   9.469  70.547  1.00  0.00    -0.331 A  
HETATM    8  C   UNL     1      -8.633   8.963  71.044  1.00  0.00    -0.206 A  
ENDROOT
BRANCH   5   9
HETATM    9  C   UNL     1     -10.563  11.591  69.150  1.00  0.00    -0.136 C  
HETATM   10  O   UNL     1     -11.250  12.339  69.847  1.00  0.00    -0.075 OA 
HETATM   11  N   UNL     1     -10.649  11.518  67.765  1.00  0.00    -0.186 N  
HETATM   12  H   UNL     1     -10.068  10.819  67.302  1.00  0.00     0.000 HD 
BRANCH  11  13
HETATM   13  C   UNL     1     -11.471  12.326  66.935  1.00  0.00    -0.356 A  
HETATM   14  C   UNL     1     -12.745  12.743  64.900  1.00  0.00    -0.479 A  
HETATM   15  C   UNL     1     -13.103  14.008  65.359  1.00  0.00    -0.215 A  
HETATM   16  C   UNL     1     -11.870  13.585  67.401  1.00  0.00    -0.423 A  
HETATM   17  C   UNL     1     -11.927  11.912  65.680  1.00  0.00    -0.005 A  
HETATM   18  C   UNL     1     -12.657  14.433  66.607  1.00  0.00     0.078 A  
ENDBRANCH  11  13
ENDBRANCH   5   9
BRANCH   7  19
HETATM   19  C   UNL     1     -11.166   8.820  70.796  1.00  0.00    -0.309 A  
HETATM   20  C   UNL     1     -11.998   9.251  71.847  1.00  0.00    -0.433 A  
HETATM   21  C   UNL     1     -12.874   7.149  70.273  1.00  0.00     0.592 A  
HETATM   22  C   UNL     1     -13.697   7.625  71.290  1.00  0.00    -0.315 A  
HETATM   23  C   UNL     1     -11.634   7.756  70.010  1.00  0.00     0.113 A  
HETATM   24  C   UNL     1     -13.262   8.686  72.072  1.00  0.00    -0.422 A  
ENDBRANCH   7  19
BRANCH   8  25
HETATM   25  C   UNL     1      -8.369   7.831  72.007  1.00  0.00    -0.142 A  
HETATM   26  C   UNL     1      -8.857   6.533  71.783  1.00  0.00    -0.138 A  
HETATM   27  C   UNL     1      -7.366   6.952  74.061  1.00  0.00    -0.096 A  
HETATM   28  C   UNL     1      -7.622   8.019  73.181  1.00  0.00    -0.188 A  
HETATM   29  F   UNL     1      -7.497   4.644  74.551  1.00  0.00    -0.079 F  
HETATM   30  C   UNL     1      -8.525   5.448  72.598  1.00  0.00    -0.114 A  
HETATM   31  C   UNL     1      -7.788   5.669  73.742  1.00  0.00    -0.104 A  
ENDBRANCH   8  25
BRANCH   6  32
HETATM   32  C   UNL     1      -6.194   9.658  70.841  1.00  0.00    -0.087 C  
BRANCH  32  33
HETATM   33  C   UNL     1      -5.427   8.506  70.165  1.00  0.00    -0.021 C  
BRANCH  33  34
HETATM   34  C   UNL     1      -6.142   7.908  68.936  1.00  0.00    -0.039 C  
HETATM   35  O   UNL     1      -5.286   7.820  67.797  1.00  0.00    -0.029 OA 
HETATM   36  H   UNL     1      -5.727   7.452  67.040  1.00  0.00     0.000 HD 
BRANCH  34  37
HETATM   37  C   UNL     1      -6.624   6.479  69.242  1.00  0.00    -0.044 C  
BRANCH  37  38
HETATM   38  C   UNL     1      -7.921   6.099  68.506  1.00  0.00    -0.108 C  
HETATM   39  H   UNL     1      -9.280   6.996  67.368  1.00  0.00     0.000 HD 
HETATM   40  O   UNL     1      -8.480   7.231  67.822  1.00  0.00    -0.120 OA 
BRANCH  38  41
HETATM   41  C   UNL     1      -7.645   5.027  67.453  1.00  0.00    -0.091 C  
HETATM   42  C   UNL     1      -8.144   3.658  67.852  1.00  0.00    -0.084 C  
HETATM   43  O   UNL     1      -9.342   3.656  68.475  1.00  0.00    -0.149 OA 
HETATM   44  O   UNL     1      -7.551   2.626  67.571  1.00  0.00    -0.060 OA 
ENDBRANCH  38  41
ENDBRANCH  37  38
ENDBRANCH  34  37
ENDBRANCH  33  34
ENDBRANCH  32  33
ENDBRANCH   6  32
TORSDOF 10
ENDMDL
MODEL      145
REMARK 921   NORMALIZED FREE ENERGY PREDICTED BY IDOCK:   -2.79 KCAL/MOL
REMARK 922        TOTAL FREE ENERGY PREDICTED BY IDOCK:   -7.17 KCAL/MOL
REMARK 923 INTER-LIGAND FREE ENERGY PREDICTED BY IDOCK:   -5.42 KCAL/MOL
REMARK 924 INTRA-LIGAND FREE ENERGY PREDICTED BY IDOCK:   -1.76 KCAL/MOL
REMARK 927      BINDING AFFINITY PREDICTED BY RF-SCORE:    0.00 PKD
ROOT
HETATM    1  C   UNL     1     -10.559  11.685  66.757  1.00  0.00    -0.280 C  
HETATM    2  C   UNL     1     -10.356  10.190  66.501  1.00  0.00    -0.270 C  
HETATM    3  C   UNL     1      -9.554   9.434  67.568  1.00  0.00    -0.141 A  
HETATM    4  C   UNL     1      -9.890   9.958  65.061  1.00  0.00    -0.323 C  
HETATM    5  C   UNL     1      -8.548   9.836  68.469  1.00  0.00    -0.120 A  
HETATM    6  N   UNL     1      -9.874   8.106  67.883  1.00  0.00    -0.161 NA 
HETATM    7  C   UNL     1      -8.443   8.778  69.483  1.00  0.00    -0.128 A  
HETATM    8  C   UNL     1      -9.216   7.685  69.051  1.00  0.00    -0.140 A  
ENDROOT
BRANCH   5   9
HETATM    9  C   UNL     1      -7.818  11.142  68.488  1.00  0.00    -0.136 C  
HETATM   10  O   UNL     1      -6.596  11.171  68.338  1.00  0.00    -0.056 OA 
HETATM   11  N   UNL     1      -8.608  12.268  68.675  1.00  0.00    -0.356 N  
HETATM   12  H   UNL     1      -9.602  12.113  68.845  1.00  0.00     0.000 HD 
BRANCH  11  13
HETATM   13  C   UNL     1      -8.162  13.616  68.653  1.00  0.00    -0.058 A  
HETATM   14  C   UNL     1      -6.526  15.362  69.114  1.00  0.00    -0.128 A  
HETATM   15  C   UNL     1      -7.365  16.324  68.560  1.00  0.00    -0.169 A  
HETATM   16  C   UNL     1      -8.981  14.588  68.064  1.00  0.00    -0.180 A  
HETATM   17  C   UNL     1      -6.926  14.018  69.169  1.00  0.00    -0.103 A  
HETATM   18  C   UNL     1      -8.599  15.938  68.042  1.00  0.00    -0.164 A  
ENDBRANCH  11  13
ENDBRANCH   5   9
BRANCH   7  19
HETATM   19  C   UNL     1      -7.682   8.784  70.764  1.00  0.00    -0.108 A  
HETATM   20  C   UNL     1      -8.317   8.478  71.983  1.00  0.00    -0.209 A  
HETATM   21  C   UNL     1      -5.623   9.112  72.042  1.00  0.00    -0.073 A  
HETATM   22  C   UNL     1      -6.264   8.759  73.227  1.00  0.00    -0.048 A  
HETATM   23  C   UNL     1      -6.316   9.097  70.819  1.00  0.00    -0.064 A  
HETATM   24  C   UNL     1      -7.612   8.432  73.195  1.00  0.00    -0.116 A  
ENDBRANCH   7  19
BRANCH   8  25
HETATM   25  C   UNL     1      -9.344   6.294  69.623  1.00  0.00    -0.150 A  
HETATM   26  C   UNL     1      -8.417   5.280  69.331  1.00  0.00    -0.094 A  
HETATM   27  C   UNL     1     -10.501   4.647  71.018  1.00  0.00    -0.049 A  
HETATM   28  C   UNL     1     -10.403   5.941  70.476  1.00  0.00    -0.297 A  
HETATM   29  F   UNL     1      -9.568   2.500  71.336  1.00  0.00    -0.183 F  
HETATM   30  C   UNL     1      -8.452   4.024  69.942  1.00  0.00    -0.089 A  
HETATM   31  C   UNL     1      -9.505   3.712  70.776  1.00  0.00    -0.168 A  
ENDBRANCH   8  25
BRANCH   6  32
HETATM   32  C   UNL     1     -10.703   7.236  67.034  1.00  0.00    -0.336 C  
BRANCH  32  33
HETATM   33  C   UNL     1      -9.955   6.102  66.309  1.00  0.00    -0.058 C  
BRANCH  33  34
HETATM   34  C   UNL     1      -8.762   6.578  65.456  1.00  0.00    -0.051 C  
HETATM   35  O   UNL     1      -7.599   6.839  66.243  1.00  0.00    -0.082 OA 
HETATM   36  H   UNL     1      -6.864   7.133  65.717  1.00  0.00     0.000 HD 
BRANCH  34  37
HETATM   37  C   UNL     1      -8.373   5.497  64.432  1.00  0.00    -0.115 C  
BRANCH  37  38
HETATM   38  C   UNL     1      -7.405   6.000  63.347  1.00  0.00    -0.068 C  
HETATM   39  H   UNL     1      -6.755   7.745  62.655  1.00  0.00     0.000 HD 
HETATM   40  O   UNL     1      -7.352   7.435  63.325  1.00  0.00    -0.074 OA 
BRANCH  38  41
HETATM   41  C   UNL     1      -5.987   5.501  63.620  1.00  0.00    -0.021 C  
HETATM   42  C   UNL     1      -5.928   4.029  63.954  1.00  0.00    -0.014 C  
HETATM   43  O   UNL     1      -6.754   3.252  63.220  1.00  0.00    -0.029 OA 
HETATM   44  O   UNL     1      -5.145   3.562  64.769  1.00  0.00    -0.008 OA 
ENDBRANCH  38  41
ENDBRANCH  37  38
ENDBRANCH  34  37
ENDBRANCH  33  34
ENDBRANCH  32  33
ENDBRANCH   6  32
TORSDOF 10
ENDMDL
MODEL      146
REMARK 921   NORMALIZED FREE ENERGY PREDICTED BY IDOCK:   -2.62 KCAL/MOL
REMARK 922        TOTAL FREE ENERGY PREDICTED BY IDOCK:   -6.90 KCAL/MOL
REMARK 923 INTER-LIGAND FREE ENERGY PREDICTED BY IDOCK:   -6.82 KCAL/MOL
REMARK 924 INTRA-LIGAND FREE ENERGY PREDICTED BY IDOCK:   -0.07 KCAL/MOL
REMARK 927      BINDING AFFINITY PREDICTED BY RF-SCORE:    0.00 PKD
ROOT
HETATM    1  C   UNL     1     -14.029  14.986  71.089  1.00  0.00    -0.451 C  
HETATM    2  C   UNL     1     -12.625  15.588  71.162  1.00  0.00    -0.509 C  
HETATM    3  C   UNL     1     -11.536  14.837  70.384  1.00  0.00    -0.279 A  
HETATM    4  C   UNL     1     -12.266  15.920  72.613  1.00  0.00    -0.603 C  
HETATM    5  C   UNL     1     -11.384  13.484  70.021  1.00  0.00    -0.028 A  
HETATM    6  N   UNL     1     -10.498  15.544  69.763  1.00  0.00    -0.283 NA 
HETATM    7  C   UNL     1     -10.355  13.443  68.973  1.00  0.00    -0.004 A  
HETATM    8  C   UNL     1      -9.767  14.719  68.891  1.00  0.00    -0.215 A  
ENDROOT
BRANCH   5   9
HETATM    9  C   UNL     1     -12.197  12.321  70.495  1.00  0.00    -0.300 C  
HETATM   10  O   UNL     1     -13.400  12.457  70.722  1.00  0.00     0.293 OA 
HETATM   11  N   UNL     1     -11.506  11.126  70.642  1.00  0.00    -0.398 N  
HETATM   12  H   UNL     1     -10.499  11.151  70.477  1.00  0.00     0.000 HD 
BRANCH  11  13
HETATM   13  C   UNL     1     -12.069   9.873  71.000  1.00  0.00    -0.358 A  
HETATM   14  C   UNL     1     -12.016   7.442  71.157  1.00  0.00    -0.351 A  
HETATM   15  C   UNL     1     -13.275   7.432  71.751  1.00  0.00    -0.371 A  
HETATM   16  C   UNL     1     -13.319   9.851  71.632  1.00  0.00    -0.481 A  
HETATM   17  C   UNL     1     -11.421   8.654  70.777  1.00  0.00    -0.293 A  
HETATM   18  C   UNL     1     -13.932   8.637  71.980  1.00  0.00    -0.506 A  
ENDBRANCH  11  13
ENDBRANCH   5   9
BRANCH   7  19
HETATM   19  C   UNL     1      -9.950  12.301  68.107  1.00  0.00    -0.210 A  
HETATM   20  C   UNL     1      -8.934  11.411  68.512  1.00  0.00    -0.158 A  
HETATM   21  C   UNL     1     -10.136  10.985  66.054  1.00  0.00    -0.297 A  
HETATM   22  C   UNL     1      -9.162  10.094  66.498  1.00  0.00    -0.182 A  
HETATM   23  C   UNL     1     -10.546  12.060  66.860  1.00  0.00    -0.260 A  
HETATM   24  C   UNL     1      -8.568  10.303  67.734  1.00  0.00    -0.118 A  
ENDBRANCH   7  19
BRANCH   8  25
HETATM   25  C   UNL     1      -8.573  15.193  68.101  1.00  0.00    -0.158 A  
HETATM   26  C   UNL     1      -8.695  15.698  66.796  1.00  0.00    -0.306 A  
HETATM   27  C   UNL     1      -6.169  15.615  67.893  1.00  0.00    -0.163 A  
HETATM   28  C   UNL     1      -7.272  15.151  68.631  1.00  0.00    -0.118 A  
HETATM   29  F   UNL     1      -5.316  16.685  65.966  1.00  0.00     0.123 F  
HETATM   30  C   UNL     1      -7.620  16.251  66.094  1.00  0.00     0.248 A  
HETATM   31  C   UNL     1      -6.358  16.194  66.646  1.00  0.00     0.448 A  
ENDBRANCH   8  25
BRANCH   6  32
HETATM   32  C   UNL     1     -10.152  16.940  70.073  1.00  0.00     0.479 C  
BRANCH  32  33
HETATM   33  C   UNL     1     -10.983  18.012  69.345  1.00  0.00     1.188 C  
BRANCH  33  34
HETATM   34  C   UNL     1     -10.392  18.456  67.991  1.00  0.00    -0.384 C  
HETATM   35  O   UNL     1     -10.958  19.681  67.525  1.00  0.00    -0.419 OA 
HETATM   36  H   UNL     1     -10.594  19.955  66.691  1.00  0.00     0.000 HD 
BRANCH  34  37
HETATM   37  C   UNL     1      -8.876  18.687  68.121  1.00  0.00    -0.335 C  
BRANCH  37  38
HETATM   38  C   UNL     1      -8.502  20.150  68.416  1.00  0.00     0.024 C  
HETATM   39  H   UNL     1      -7.484  21.155  69.796  1.00  0.00     0.000 HD 
HETATM   40  O   UNL     1      -7.714  20.252  69.613  1.00  0.00     0.235 OA 
BRANCH  38  41
HETATM   41  C   UNL     1      -7.667  20.732  67.277  1.00  0.00    -0.332 C  
HETATM   42  C   UNL     1      -7.780  19.942  65.993  1.00  0.00    -0.325 C  
HETATM   43  O   UNL     1      -9.023  19.493  65.717  1.00  0.00    -0.381 OA 
HETATM   44  O   UNL     1      -6.841  19.782  65.226  1.00  0.00    -0.289 OA 
ENDBRANCH  38  41
ENDBRANCH  37  38
ENDBRANCH  34  37
ENDBRANCH  33  34
ENDBRANCH  32  33
ENDBRANCH   6  32
TORSDOF 10
ENDMDL
MODEL      147
REMARK 921   NORMALIZED FREE ENERGY PREDICTED BY IDOCK:   -2.59 KCAL/MOL
REMARK 922        TOTAL FREE ENERGY PREDICTED BY IDOCK:   -6.86 KCAL/MOL
REMARK 923 INTER-LIGAND FREE ENERGY PREDICTED BY IDOCK:   -6.24 KCAL/MOL
REMARK 924 INTRA-LIGAND FREE ENERGY PREDICTED BY IDOCK:   -0.62 KCAL/MOL
REMARK 927      BINDING AFFINITY PREDICTED BY RF-SCORE:    0.00 PKD
ROOT
HETATM    1  C   UNL     1     -12.857  10.641  69.358  1.00  0.00     0.652 C  
HETATM    2  C   UNL     1     -12.188  11.964  69.734  1.00  0.00    -0.241 C  
HETATM    3  C   UNL     1     -10.754  12.153  69.223  1.00  0.00     0.020 A  
HETATM    4  C   UNL     1     -12.383  12.253  71.224  1.00  0.00    -0.161 C  
HETATM    5  C   UNL     1      -9.722  11.245  68.916  1.00  0.00    -0.141 A  
HETATM    6  N   UNL     1     -10.304  13.425  68.839  1.00  0.00    -0.137 NA 
HETATM    7  C   UNL     1      -8.732  11.984  68.121  1.00  0.00    -0.177 A  
HETATM    8  C   UNL     1      -9.077  13.348  68.158  1.00  0.00    -0.207 A  
ENDROOT
BRANCH   5   9
HETATM    9  C   UNL     1      -9.688   9.779  69.210  1.00  0.00    -0.196 C  
HETATM   10  O   UNL     1      -9.677   9.380  70.375  1.00  0.00    -0.225 OA 
HETATM   11  N   UNL     1      -9.679   8.944  68.100  1.00  0.00    -0.156 N  
HETATM   12  H   UNL     1      -9.634   9.393  67.185  1.00  0.00     0.000 HD 
BRANCH  11  13
HETATM   13  C   UNL     1      -9.728   7.525  68.120  1.00  0.00    -0.154 A  
HETATM   14  C   UNL     1     -10.655   5.402  68.874  1.00  0.00    -0.197 A  
HETATM   15  C   UNL     1      -9.742   4.701  68.090  1.00  0.00    -0.197 A  
HETATM   16  C   UNL     1      -8.839   6.809  67.308  1.00  0.00    -0.118 A  
HETATM   17  C   UNL     1     -10.641   6.804  68.895  1.00  0.00    -0.257 A  
HETATM   18  C   UNL     1      -8.827   5.405  67.313  1.00  0.00    -0.105 A  
ENDBRANCH  11  13
ENDBRANCH   5   9
BRANCH   7  19
HETATM   19  C   UNL     1      -7.552  11.461  67.378  1.00  0.00    -0.124 A  
HETATM   20  C   UNL     1      -7.689  10.949  66.072  1.00  0.00    -0.107 A  
HETATM   21  C   UNL     1      -5.169  10.932  67.219  1.00  0.00    -0.040 A  
HETATM   22  C   UNL     1      -5.324  10.475  65.913  1.00  0.00    -0.091 A  
HETATM   23  C   UNL     1      -6.265  11.446  67.935  1.00  0.00    -0.051 A  
HETATM   24  C   UNL     1      -6.586  10.493  65.335  1.00  0.00    -0.074 A  
ENDBRANCH   7  19
BRANCH   8  25
HETATM   25  C   UNL     1      -8.332  14.557  67.646  1.00  0.00    -0.188 A  
HETATM   26  C   UNL     1      -7.061  14.909  68.130  1.00  0.00    -0.124 A  
HETATM   27  C   UNL     1      -8.163  16.508  66.176  1.00  0.00    -0.279 A  
HETATM   28  C   UNL     1      -8.875  15.396  66.659  1.00  0.00    -0.330 A  
HETATM   29  F   UNL     1      -6.172  17.780  66.118  1.00  0.00    -0.193 F  
HETATM   30  C   UNL     1      -6.307  15.952  67.587  1.00  0.00    -0.189 A  
HETATM   31  C   UNL     1      -6.871  16.754  66.618  1.00  0.00    -0.220 A  
ENDBRANCH   8  25
BRANCH   6  32
HETATM   32  C   UNL     1     -10.976  14.681  69.204  1.00  0.00    -0.262 C  
BRANCH  32  33
HETATM   33  C   UNL     1     -12.395  14.869  68.637  1.00  0.00     0.023 C  
BRANCH  33  34
HETATM   34  C   UNL     1     -12.455  14.936  67.097  1.00  0.00     0.577 C  
HETATM   35  O   UNL     1     -11.308  15.573  66.535  1.00  0.00    -0.185 OA 
HETATM   36  H   UNL     1     -11.344  15.615  65.586  1.00  0.00     0.000 HD 
BRANCH  34  37
HETATM   37  C   UNL     1     -12.513  13.518  66.502  1.00  0.00    -0.309 C  
BRANCH  37  38
HETATM   38  C   UNL     1     -12.487  13.496  64.964  1.00  0.00    -0.417 C  
HETATM   39  H   UNL     1     -11.656  14.546  63.495  1.00  0.00     0.000 HD 
HETATM   40  O   UNL     1     -11.671  14.559  64.444  1.00  0.00    -0.404 OA 
BRANCH  38  41
HETATM   41  C   UNL     1     -11.894  12.184  64.455  1.00  0.00    -0.418 C  
HETATM   42  C   UNL     1     -10.476  12.327  63.952  1.00  0.00    -0.429 C  
HETATM   43  O   UNL     1      -9.695  13.141  64.694  1.00  0.00    -0.042 OA 
HETATM   44  O   UNL     1     -10.044  11.700  62.995  1.00  0.00    -0.370 OA 
ENDBRANCH  38  41
ENDBRANCH  37  38
ENDBRANCH  34  37
ENDBRANCH  33  34
ENDBRANCH  32  33
ENDBRANCH   6  32
TORSDOF 10
ENDMDL
MODEL      148
REMARK 921   NORMALIZED FREE ENERGY PREDICTED BY IDOCK:   -2.31 KCAL/MOL
REMARK 922        TOTAL FREE ENERGY PREDICTED BY IDOCK:   -6.42 KCAL/MOL
REMARK 923 INTER-LIGAND FREE ENERGY PREDICTED BY IDOCK:   -7.16 KCAL/MOL
REMARK 924 INTRA-LIGAND FREE ENERGY PREDICTED BY IDOCK:    0.74 KCAL/MOL
REMARK 927      BINDING AFFINITY PREDICTED BY RF-SCORE:    0.00 PKD
ROOT
HETATM    1  C   UNL     1      -9.224   9.482  69.231  1.00  0.00    -0.169 C  
HETATM    2  C   UNL     1      -9.567  10.519  68.160  1.00  0.00    -0.163 C  
HETATM    3  C   UNL     1     -10.405  11.714  68.634  1.00  0.00    -0.215 A  
HETATM    4  C   UNL     1     -10.090   9.826  66.899  1.00  0.00    -0.287 C  
HETATM    5  C   UNL     1     -11.345  11.869  69.671  1.00  0.00    -0.266 A  
HETATM    6  N   UNL     1     -10.196  12.985  68.082  1.00  0.00    -0.233 NA 
HETATM    7  C   UNL     1     -11.518  13.314  69.872  1.00  0.00    -0.170 A  
HETATM    8  C   UNL     1     -10.858  13.980  68.823  1.00  0.00    -0.263 A  
ENDROOT
BRANCH   5   9
HETATM    9  C   UNL     1     -11.955  10.790  70.510  1.00  0.00    -0.361 C  
HETATM   10  O   UNL     1     -12.747  11.076  71.408  1.00  0.00    -0.401 OA 
HETATM   11  N   UNL     1     -11.570   9.494  70.193  1.00  0.00    -0.424 N  
HETATM   12  H   UNL     1     -10.864   9.387  69.464  1.00  0.00     0.000 HD 
BRANCH  11  13
HETATM   13  C   UNL     1     -12.067   8.305  70.788  1.00  0.00    -0.058 A  
HETATM   14  C   UNL     1     -11.804   6.036  71.636  1.00  0.00    -0.142 A  
HETATM   15  C   UNL     1     -13.152   5.985  71.979  1.00  0.00     0.616 A  
HETATM   16  C   UNL     1     -13.414   8.255  71.172  1.00  0.00    -0.036 A  
HETATM   17  C   UNL     1     -11.268   7.185  71.036  1.00  0.00    -0.298 A  
HETATM   18  C   UNL     1     -13.961   7.093  71.738  1.00  0.00    -0.406 A  
ENDBRANCH  11  13
ENDBRANCH   5   9
BRANCH   7  19
HETATM   19  C   UNL     1     -12.240  14.025  70.963  1.00  0.00    -0.430 A  
HETATM   20  C   UNL     1     -13.634  13.889  71.116  1.00  0.00    -0.140 A  
HETATM   21  C   UNL     1     -12.285  15.534  72.888  1.00  0.00    -0.547 A  
HETATM   22  C   UNL     1     -13.656  15.345  73.045  1.00  0.00    -0.563 A  
HETATM   23  C   UNL     1     -11.579  14.860  71.876  1.00  0.00    -0.335 A  
HETATM   24  C   UNL     1     -14.329  14.513  72.163  1.00  0.00    -0.594 A  
ENDBRANCH   7  19
BRANCH   8  25
HETATM   25  C   UNL     1     -10.839  15.443  68.454  1.00  0.00    -0.268 A  
HETATM   26  C   UNL     1     -10.234  16.410  69.274  1.00  0.00    -0.278 A  
HETATM   27  C   UNL     1     -11.391  17.278  66.929  1.00  0.00     0.759 A  
HETATM   28  C   UNL     1     -11.432  15.915  67.271  1.00  0.00     0.099 A  
HETATM   29  F   UNL     1     -10.609  19.463  67.373  1.00  0.00    -0.453 F  
HETATM   30  C   UNL     1     -10.103  17.748  68.895  1.00  0.00    -0.350 A  
HETATM   31  C   UNL     1     -10.695  18.176  67.726  1.00  0.00    -0.335 A  
ENDBRANCH   8  25
BRANCH   6  32
HETATM   32  C   UNL     1      -9.472  13.228  66.824  1.00  0.00    -0.257 C  
BRANCH  32  33
HETATM   33  C   UNL     1      -7.991  13.623  66.971  1.00  0.00     0.047 C  
BRANCH  33  34
HETATM   34  C   UNL     1      -7.664  15.044  66.468  1.00  0.00     0.693 C  
HETATM   35  O   UNL     1      -8.687  15.571  65.623  1.00  0.00    -0.164 OA 
HETATM   36  H   UNL     1      -8.486  16.446  65.313  1.00  0.00     0.000 HD 
BRANCH  34  37
HETATM   37  C   UNL     1      -7.525  16.012  67.656  1.00  0.00    -0.171 C  
BRANCH  37  38
HETATM   38  C   UNL     1      -6.204  15.850  68.427  1.00  0.00    -0.107 C  
HETATM   39  H   UNL     1      -4.409  16.702  68.458  1.00  0.00     0.000 HD 
HETATM   40  O   UNL     1      -5.224  16.802  67.982  1.00  0.00    -0.110 OA 
BRANCH  38  41
HETATM   41  C   UNL     1      -6.420  16.091  69.920  1.00  0.00    -0.111 C  
HETATM   42  C   UNL     1      -6.035  17.484  70.360  1.00  0.00     0.091 C  
HETATM   43  O   UNL     1      -6.377  18.462  69.494  1.00  0.00    -0.261 OA 
HETATM   44  O   UNL     1      -5.522  17.721  71.445  1.00  0.00    -0.099 OA 
ENDBRANCH  38  41
ENDBRANCH  37  38
ENDBRANCH  34  37
ENDBRANCH  33  34
ENDBRANCH  32  33
ENDBRANCH   6  32
TORSDOF 10
ENDMDL
MODEL      149
REMARK 921   NORMALIZED FREE ENERGY PREDICTED BY IDOCK:   -2.29 KCAL/MOL
REMARK 922        TOTAL FREE ENERGY PREDICTED BY IDOCK:   -6.38 KCAL/MOL
REMARK 923 INTER-LIGAND FREE ENERGY PREDICTED BY IDOCK:   -4.89 KCAL/MOL
REMARK 924 INTRA-LIGAND FREE ENERGY PREDICTED BY IDOCK:   -1.49 KCAL/MOL
REMARK 927      BINDING AFFINITY PREDICTED BY RF-SCORE:    0.00 PKD
ROOT
HETATM    1  C   UNL     1     -12.749  14.968  67.672  1.00  0.00     1.366 C  
HETATM    2  C   UNL     1     -11.288  14.772  67.262  1.00  0.00    -0.366 C  
HETATM    3  C   UNL     1     -10.600  13.522  67.824  1.00  0.00    -0.246 A  
HETATM    4  C   UNL     1     -10.507  16.076  67.449  1.00  0.00    -0.308 C  
HETATM    5  C   UNL     1     -10.801  12.767  68.996  1.00  0.00    -0.192 A  
HETATM    6  N   UNL     1      -9.649  12.836  67.056  1.00  0.00    -0.222 NA 
HETATM    7  C   UNL     1     -10.109  11.486  68.797  1.00  0.00    -0.191 A  
HETATM    8  C   UNL     1      -9.338  11.588  67.624  1.00  0.00    -0.171 A  
ENDROOT
BRANCH   5   9
HETATM    9  C   UNL     1     -11.662  13.123  70.166  1.00  0.00    -0.178 C  
HETATM   10  O   UNL     1     -12.354  12.262  70.712  1.00  0.00    -0.377 OA 
HETATM   11  N   UNL     1     -11.608  14.451  70.569  1.00  0.00    -0.443 N  
HETATM   12  H   UNL     1     -11.040  15.082  70.004  1.00  0.00     0.000 HD 
BRANCH  11  13
HETATM   13  C   UNL     1     -12.269  15.011  71.694  1.00  0.00    -0.347 A  
HETATM   14  C   UNL     1     -14.044  16.317  72.733  1.00  0.00     0.241 A  
HETATM   15  C   UNL     1     -13.509  16.080  73.996  1.00  0.00     0.400 A  
HETATM   16  C   UNL     1     -11.761  14.748  72.974  1.00  0.00    -0.084 A  
HETATM   17  C   UNL     1     -13.422  15.793  71.589  1.00  0.00    -0.384 A  
HETATM   18  C   UNL     1     -12.360  15.302  74.116  1.00  0.00    -0.762 A  
ENDBRANCH  11  13
ENDBRANCH   5   9
BRANCH   7  19
HETATM   19  C   UNL     1     -10.163  10.255  69.633  1.00  0.00    -0.268 A  
HETATM   20  C   UNL     1      -9.036   9.825  70.361  1.00  0.00    -0.143 A  
HETATM   21  C   UNL     1     -11.344   8.304  70.517  1.00  0.00    -0.225 A  
HETATM   22  C   UNL     1     -10.230   7.927  71.262  1.00  0.00    -0.218 A  
HETATM   23  C   UNL     1     -11.321   9.470  69.733  1.00  0.00    -0.117 A  
HETATM   24  C   UNL     1      -9.077   8.695  71.191  1.00  0.00    -0.263 A  
ENDBRANCH   7  19
BRANCH   8  25
HETATM   25  C   UNL     1      -8.325  10.636  67.037  1.00  0.00    -0.126 A  
HETATM   26  C   UNL     1      -7.008  10.557  67.520  1.00  0.00    -0.080 A  
HETATM   27  C   UNL     1      -7.702   8.881  65.446  1.00  0.00    -0.092 A  
HETATM   28  C   UNL     1      -8.648   9.778  65.972  1.00  0.00    -0.146 A  
HETATM   29  F   UNL     1      -5.563   7.883  65.561  1.00  0.00    -0.034 F  
HETATM   30  C   UNL     1      -6.093   9.602  67.070  1.00  0.00    -0.063 A  
HETATM   31  C   UNL     1      -6.445   8.775  66.025  1.00  0.00    -0.057 A  
ENDBRANCH   8  25
BRANCH   6  32
HETATM   32  C   UNL     1      -8.981  13.401  65.874  1.00  0.00     0.529 C  
BRANCH  32  33
HETATM   33  C   UNL     1      -8.242  14.733  66.097  1.00  0.00     1.010 C  
BRANCH  33  34
HETATM   34  C   UNL     1      -7.268  14.721  67.294  1.00  0.00    -0.080 C  
HETATM   35  O   UNL     1      -6.295  13.682  67.193  1.00  0.00    -0.438 OA 
HETATM   36  H   UNL     1      -5.695  13.674  67.930  1.00  0.00     0.000 HD 
BRANCH  34  37
HETATM   37  C   UNL     1      -6.495  16.050  67.366  1.00  0.00    -0.214 C  
BRANCH  37  38
HETATM   38  C   UNL     1      -7.292  17.188  68.026  1.00  0.00    -0.189 C  
HETATM   39  H   UNL     1      -7.377  18.086  69.796  1.00  0.00     0.000 HD 
HETATM   40  O   UNL     1      -6.884  17.384  69.389  1.00  0.00    -0.233 OA 
BRANCH  38  41
HETATM   41  C   UNL     1      -7.055  18.506  67.291  1.00  0.00    -0.211 C  
HETATM   42  C   UNL     1      -8.288  19.375  67.212  1.00  0.00    -0.293 C  
HETATM   43  O   UNL     1      -9.038  19.390  68.336  1.00  0.00    -0.336 OA 
HETATM   44  O   UNL     1      -8.553  20.068  66.241  1.00  0.00    -0.340 OA 
ENDBRANCH  38  41
ENDBRANCH  37  38
ENDBRANCH  34  37
ENDBRANCH  33  34
ENDBRANCH  32  33
ENDBRANCH   6  32
TORSDOF 10
ENDMDL
MODEL      150
REMARK 921   NORMALIZED FREE ENERGY PREDICTED BY IDOCK:   -2.28 KCAL/MOL
REMARK 922        TOTAL FREE ENERGY PREDICTED BY IDOCK:   -6.37 KCAL/MOL
REMARK 923 INTER-LIGAND FREE ENERGY PREDICTED BY IDOCK:   -6.16 KCAL/MOL
REMARK 924 INTRA-LIGAND FREE ENERGY PREDICTED BY IDOCK:   -0.21 KCAL/MOL
REMARK 927      BINDING AFFINITY PREDICTED BY RF-SCORE:    0.00 PKD
ROOT
HETATM    1  C   UNL     1     -11.553  14.272  66.552  1.00  0.00    -0.390 C  
HETATM    2  C   UNL     1     -10.698  13.203  65.870  1.00  0.00    -0.287 C  
HETATM    3  C   UNL     1      -9.420  12.797  66.616  1.00  0.00    -0.249 A  
HETATM    4  C   UNL     1     -10.498  13.547  64.392  1.00  0.00    -0.366 C  
HETATM    5  C   UNL     1      -8.579  13.484  67.513  1.00  0.00    -0.193 A  
HETATM    6  N   UNL     1      -8.965  11.472  66.567  1.00  0.00    -0.185 NA 
HETATM    7  C   UNL     1      -7.750  12.469  68.176  1.00  0.00    -0.141 A  
HETATM    8  C   UNL     1      -7.952  11.244  67.514  1.00  0.00    -0.124 A  
ENDROOT
BRANCH   5   9
HETATM    9  C   UNL     1      -8.606  14.944  67.842  1.00  0.00    -0.160 C  
HETATM   10  O   UNL     1      -8.943  15.320  68.965  1.00  0.00    -0.197 OA 
HETATM   11  N   UNL     1      -8.226  15.798  66.815  1.00  0.00    -0.249 N  
HETATM   12  H   UNL     1      -8.022  15.371  65.911  1.00  0.00     0.000 HD 
BRANCH  11  13
HETATM   13  C   UNL     1      -8.095  17.209  66.906  1.00  0.00    -0.216 A  
HETATM   14  C   UNL     1      -6.783  19.255  67.066  1.00  0.00    -0.204 A  
HETATM   15  C   UNL     1      -7.943  20.023  67.083  1.00  0.00    -0.351 A  
HETATM   16  C   UNL     1      -9.255  17.996  66.887  1.00  0.00    -0.271 A  
HETATM   17  C   UNL     1      -6.859  17.856  66.987  1.00  0.00    -0.204 A  
HETATM   18  C   UNL     1      -9.181  19.392  67.003  1.00  0.00    -0.378 A  
ENDBRANCH  11  13
ENDBRANCH   5   9
BRANCH   7  19
HETATM   19  C   UNL     1      -6.838  12.625  69.343  1.00  0.00     0.038 A  
HETATM   20  C   UNL     1      -6.769  13.843  70.049  1.00  0.00     0.088 A  
HETATM   21  C   UNL     1      -5.145  11.761  70.883  1.00  0.00    -0.130 A  
HETATM   22  C   UNL     1      -5.131  12.959  71.591  1.00  0.00    -0.139 A  
HETATM   23  C   UNL     1      -6.009  11.585  69.788  1.00  0.00    -0.116 A  
HETATM   24  C   UNL     1      -5.952  13.999  71.179  1.00  0.00    -0.160 A  
ENDBRANCH   7  19
BRANCH   8  25
HETATM   25  C   UNL     1      -7.250   9.919  67.679  1.00  0.00    -0.089 A  
HETATM   26  C   UNL     1      -6.321   9.446  66.738  1.00  0.00    -0.066 A  
HETATM   27  C   UNL     1      -6.816   7.863  68.937  1.00  0.00    -0.058 A  
HETATM   28  C   UNL     1      -7.492   9.086  68.785  1.00  0.00    -0.076 A  
HETATM   29  F   UNL     1      -5.155   6.352  68.202  1.00  0.00    -0.006 F  
HETATM   30  C   UNL     1      -5.574   8.281  66.931  1.00  0.00    -0.037 A  
HETATM   31  C   UNL     1      -5.837   7.489  68.028  1.00  0.00    -0.032 A  
ENDBRANCH   8  25
BRANCH   6  32
HETATM   32  C   UNL     1      -9.414  10.483  65.575  1.00  0.00    -0.216 C  
BRANCH  32  33
HETATM   33  C   UNL     1     -10.466   9.472  66.066  1.00  0.00     0.011 C  
BRANCH  33  34
HETATM   34  C   UNL     1     -10.609   9.407  67.601  1.00  0.00    -0.271 C  
HETATM   35  O   UNL     1     -11.523  10.381  68.104  1.00  0.00    -0.514 OA 
HETATM   36  H   UNL     1     -11.611  10.341  69.049  1.00  0.00     0.000 HD 
BRANCH  34  37
HETATM   37  C   UNL     1     -11.145   8.030  68.029  1.00  0.00     0.296 C  
BRANCH  37  38
HETATM   38  C   UNL     1     -11.440   7.928  69.535  1.00  0.00     0.399 C  
HETATM   39  H   UNL     1     -12.335   6.657  70.773  1.00  0.00     0.000 HD 
HETATM   40  O   UNL     1     -12.153   6.720  69.844  1.00  0.00    -0.184 OA 
BRANCH  38  41
HETATM   41  C   UNL     1     -10.140   7.900  70.336  1.00  0.00    -0.194 C  
HETATM   42  C   UNL     1      -9.888   6.575  71.016  1.00  0.00    -0.179 C  
HETATM   43  O   UNL     1     -10.211   5.493  70.276  1.00  0.00    -0.214 OA 
HETATM   44  O   UNL     1      -9.364   6.481  72.118  1.00  0.00    -0.144 OA 
ENDBRANCH  38  41
ENDBRANCH  37  38
ENDBRANCH  34  37
ENDBRANCH  33  34
ENDBRANCH  32  33
ENDBRANCH   6  32
TORSDOF 10
ENDMDL
MODEL      151
REMARK 921   NORMALIZED FREE ENERGY PREDICTED BY IDOCK:   -2.16 KCAL/MOL
REMARK 922        TOTAL FREE ENERGY PREDICTED BY IDOCK:   -6.18 KCAL/MOL
REMARK 923 INTER-LIGAND FREE ENERGY PREDICTED BY IDOCK:   -5.52 KCAL/MOL
REMARK 924 INTRA-LIGAND FREE ENERGY PREDICTED BY IDOCK:   -0.66 KCAL/MOL
REMARK 927      BINDING AFFINITY PREDICTED BY RF-SCORE:    0.00 PKD
ROOT
HETATM    1  C   UNL     1      -5.139  13.812  68.973  1.00  0.00    -0.070 C  
HETATM    2  C   UNL     1      -6.337  12.874  68.813  1.00  0.00    -0.080 C  
HETATM    3  C   UNL     1      -7.586  13.492  68.171  1.00  0.00    -0.138 A  
HETATM    4  C   UNL     1      -6.592  12.114  70.117  1.00  0.00     0.295 C  
HETATM    5  C   UNL     1      -8.087  14.807  68.132  1.00  0.00    -0.134 A  
HETATM    6  N   UNL     1      -8.405  12.720  67.335  1.00  0.00    -0.179 NA 
HETATM    7  C   UNL     1      -9.094  14.844  67.063  1.00  0.00    -0.255 A  
HETATM    8  C   UNL     1      -9.328  13.521  66.642  1.00  0.00    -0.245 A  
ENDROOT
BRANCH   5   9
HETATM    9  C   UNL     1      -7.605  15.985  68.920  1.00  0.00    -0.192 C  
HETATM   10  O   UNL     1      -7.701  15.992  70.147  1.00  0.00     0.467 OA 
HETATM   11  N   UNL     1      -7.057  17.021  68.174  1.00  0.00    -0.172 N  
HETATM   12  H   UNL     1      -7.083  16.924  67.159  1.00  0.00     0.000 HD 
BRANCH  11  13
HETATM   13  C   UNL     1      -6.463  18.201  68.694  1.00  0.00    -0.220 A  
HETATM   14  C   UNL     1      -5.165  20.251  68.468  1.00  0.00    -0.246 A  
HETATM   15  C   UNL     1      -5.321  20.524  69.824  1.00  0.00    -0.360 A  
HETATM   16  C   UNL     1      -6.644  18.507  70.049  1.00  0.00     0.168 A  
HETATM   17  C   UNL     1      -5.725  19.092  67.909  1.00  0.00    -0.195 A  
HETATM   18  C   UNL     1      -6.054  19.646  70.618  1.00  0.00    -0.198 A  
ENDBRANCH  11  13
ENDBRANCH   5   9
BRANCH   7  19
HETATM   19  C   UNL     1      -9.786  16.023  66.471  1.00  0.00    -0.284 A  
HETATM   20  C   UNL     1     -10.513  15.907  65.270  1.00  0.00    -0.403 A  
HETATM   21  C   UNL     1     -10.392  18.392  66.484  1.00  0.00    -0.426 A  
HETATM   22  C   UNL     1     -11.142  18.240  65.320  1.00  0.00     0.834 A  
HETATM   23  C   UNL     1      -9.744  17.291  67.069  1.00  0.00    -0.267 A  
HETATM   24  C   UNL     1     -11.210  16.991  64.718  1.00  0.00     0.320 A  
ENDBRANCH   7  19
BRANCH   8  25
HETATM   25  C   UNL     1     -10.359  12.969  65.689  1.00  0.00    -0.294 A  
HETATM   26  C   UNL     1     -10.017  12.508  64.407  1.00  0.00    -0.206 A  
HETATM   27  C   UNL     1     -12.667  12.356  65.146  1.00  0.00    -0.053 A  
HETATM   28  C   UNL     1     -11.718  12.891  66.036  1.00  0.00    -0.456 A  
HETATM   29  F   UNL     1     -13.155  11.265  63.108  1.00  0.00    -0.286 F  
HETATM   30  C   UNL     1     -10.936  11.885  63.557  1.00  0.00    -0.505 A  
HETATM   31  C   UNL     1     -12.261  11.824  63.931  1.00  0.00    -0.297 A  
ENDBRANCH   8  25
BRANCH   6  32
HETATM   32  C   UNL     1      -8.374  11.250  67.281  1.00  0.00    -0.145 C  
BRANCH  32  33
HETATM   33  C   UNL     1      -9.579  10.532  67.915  1.00  0.00    -0.164 C  
BRANCH  33  34
HETATM   34  C   UNL     1      -9.584   9.004  67.705  1.00  0.00    -0.150 C  
HETATM   35  O   UNL     1      -9.793   8.643  66.340  1.00  0.00    -0.250 OA 
HETATM   36  H   UNL     1      -9.796   7.701  66.211  1.00  0.00     0.000 HD 
BRANCH  34  37
HETATM   37  C   UNL     1      -8.230   8.404  68.123  1.00  0.00    -0.124 C  
BRANCH  37  38
HETATM   38  C   UNL     1      -8.318   7.497  69.363  1.00  0.00    -0.132 C  
HETATM   39  H   UNL     1      -8.767   5.604  69.769  1.00  0.00     0.000 HD 
HETATM   40  O   UNL     1      -8.712   6.164  69.004  1.00  0.00    -0.123 OA 
BRANCH  38  41
HETATM   41  C   UNL     1      -6.957   7.395  70.050  1.00  0.00    -0.060 C  
HETATM   42  C   UNL     1      -6.754   8.436  71.126  1.00  0.00    -0.052 C  
HETATM   43  O   UNL     1      -7.843   8.679  71.887  1.00  0.00    -0.199 OA 
HETATM   44  O   UNL     1      -5.673   8.966  71.343  1.00  0.00    -0.040 OA 
ENDBRANCH  38  41
ENDBRANCH  37  38
ENDBRANCH  34  37
ENDBRANCH  33  34
ENDBRANCH  32  33
ENDBRANCH   6  32
TORSDOF 10
ENDMDL
MODEL      152
REMARK 921   NORMALIZED FREE ENERGY PREDICTED BY IDOCK:   -2.08 KCAL/MOL
REMARK 922        TOTAL FREE ENERGY PREDICTED BY IDOCK:   -6.05 KCAL/MOL
REMARK 923 INTER-LIGAND FREE ENERGY PREDICTED BY IDOCK:   -4.87 KCAL/MOL
REMARK 924 INTRA-LIGAND FREE ENERGY PREDICTED BY IDOCK:   -1.19 KCAL/MOL
REMARK 927      BINDING AFFINITY PREDICTED BY RF-SCORE:    0.00 PKD
ROOT
HETATM    1  C   UNL     1      -9.533  11.621  64.787  1.00  0.00    -0.083 C  
HETATM    2  C   UNL     1      -9.840  13.062  65.199  1.00  0.00    -0.078 C  
HETATM    3  C   UNL     1      -9.153  13.548  66.481  1.00  0.00    -0.113 A  
HETATM    4  C   UNL     1     -11.348  13.320  65.139  1.00  0.00    -0.318 C  
HETATM    5  C   UNL     1      -8.702  12.879  67.636  1.00  0.00    -0.185 A  
HETATM    6  N   UNL     1      -8.734  14.881  66.594  1.00  0.00    -0.255 NA 
HETATM    7  C   UNL     1      -7.798  13.804  68.333  1.00  0.00    -0.143 A  
HETATM    8  C   UNL     1      -7.901  15.062  67.711  1.00  0.00    -0.148 A  
ENDROOT
BRANCH   5   9
HETATM    9  C   UNL     1      -8.966  11.458  68.021  1.00  0.00    -0.163 C  
HETATM   10  O   UNL     1      -8.992  10.577  67.161  1.00  0.00    -0.139 OA 
HETATM   11  N   UNL     1      -9.165  11.231  69.376  1.00  0.00    -0.326 N  
HETATM   12  H   UNL     1      -9.176  12.049  69.985  1.00  0.00     0.000 HD 
BRANCH  11  13
HETATM   13  C   UNL     1      -9.353   9.966  69.993  1.00  0.00    -0.190 A  
HETATM   14  C   UNL     1     -10.696   8.014  70.561  1.00  0.00    -0.231 A  
HETATM   15  C   UNL     1      -9.627   7.454  71.255  1.00  0.00    -0.166 A  
HETATM   16  C   UNL     1      -8.274   9.375  70.663  1.00  0.00    -0.207 A  
HETATM   17  C   UNL     1     -10.563   9.266  69.942  1.00  0.00    -0.246 A  
HETATM   18  C   UNL     1      -8.417   8.139  71.314  1.00  0.00    -0.154 A  
ENDBRANCH  11  13
ENDBRANCH   5   9
BRANCH   7  19
HETATM   19  C   UNL     1      -6.902  13.537  69.492  1.00  0.00     0.048 A  
HETATM   20  C   UNL     1      -6.161  12.341  69.573  1.00  0.00    -0.127 A  
HETATM   21  C   UNL     1      -5.916  14.167  71.640  1.00  0.00    -0.034 A  
HETATM   22  C   UNL     1      -5.160  12.998  71.673  1.00  0.00    -0.154 A  
HETATM   23  C   UNL     1      -6.756  14.448  70.549  1.00  0.00     0.141 A  
HETATM   24  C   UNL     1      -5.276  12.088  70.632  1.00  0.00    -0.136 A  
ENDBRANCH   7  19
BRANCH   8  25
HETATM   25  C   UNL     1      -7.317  16.396  68.107  1.00  0.00    -0.151 A  
HETATM   26  C   UNL     1      -8.116  17.445  68.592  1.00  0.00    -0.264 A  
HETATM   27  C   UNL     1      -5.405  17.900  68.398  1.00  0.00    -0.156 A  
HETATM   28  C   UNL     1      -5.940  16.659  68.007  1.00  0.00    -0.133 A  
HETATM   29  F   UNL     1      -5.709  20.025  69.385  1.00  0.00    -0.243 F  
HETATM   30  C   UNL     1      -7.581  18.643  69.074  1.00  0.00    -0.223 A  
HETATM   31  C   UNL     1      -6.225  18.866  68.962  1.00  0.00    -0.247 A  
ENDBRANCH   8  25
BRANCH   6  32
HETATM   32  C   UNL     1      -9.202  15.968  65.721  1.00  0.00    -0.180 C  
BRANCH  32  33
HETATM   33  C   UNL     1     -10.619  16.495  66.010  1.00  0.00    -0.259 C  
BRANCH  33  34
HETATM   34  C   UNL     1     -10.657  17.938  66.554  1.00  0.00    -0.235 C  
HETATM   35  O   UNL     1     -11.284  18.846  65.647  1.00  0.00    -0.002 OA 
HETATM   36  H   UNL     1     -11.307  19.735  65.983  1.00  0.00     0.000 HD 
BRANCH  34  37
HETATM   37  C   UNL     1     -11.461  17.993  67.865  1.00  0.00     0.893 C  
BRANCH  37  38
HETATM   38  C   UNL     1     -11.065  16.899  68.872  1.00  0.00    -0.128 C  
HETATM   39  H   UNL     1     -10.777  16.743  70.832  1.00  0.00     0.000 HD 
HETATM   40  O   UNL     1     -11.022  17.418  70.211  1.00  0.00     0.434 OA 
BRANCH  38  41
HETATM   41  C   UNL     1     -12.089  15.765  68.862  1.00  0.00    -0.139 C  
HETATM   42  C   UNL     1     -11.493  14.422  69.215  1.00  0.00    -0.285 C  
HETATM   43  O   UNL     1     -10.580  14.456  70.209  1.00  0.00     0.184 OA 
HETATM   44  O   UNL     1     -11.857  13.376  68.698  1.00  0.00    -0.329 OA 
ENDBRANCH  38  41
ENDBRANCH  37  38
ENDBRANCH  34  37
ENDBRANCH  33  34
ENDBRANCH  32  33
ENDBRANCH   6  32
TORSDOF 10
ENDMDL
MODEL      153
REMARK 921   NORMALIZED FREE ENERGY PREDICTED BY IDOCK:   -1.93 KCAL/MOL
REMARK 922        TOTAL FREE ENERGY PREDICTED BY IDOCK:   -5.81 KCAL/MOL
REMARK 923 INTER-LIGAND FREE ENERGY PREDICTED BY IDOCK:   -5.02 KCAL/MOL
REMARK 924 INTRA-LIGAND FREE ENERGY PREDICTED BY IDOCK:   -0.79 KCAL/MOL
REMARK 927      BINDING AFFINITY PREDICTED BY RF-SCORE:    0.00 PKD
ROOT
HETATM    1  C   UNL     1      -9.661   3.526  68.777  1.00  0.00    -0.137 C  
HETATM    2  C   UNL     1      -8.378   4.295  69.099  1.00  0.00    -0.084 C  
HETATM    3  C   UNL     1      -8.179   5.610  68.333  1.00  0.00    -0.103 A  
HETATM    4  C   UNL     1      -7.174   3.349  69.075  1.00  0.00    -0.049 C  
HETATM    5  C   UNL     1      -8.619   6.056  67.072  1.00  0.00    -0.107 A  
HETATM    6  N   UNL     1      -7.555   6.700  68.955  1.00  0.00    -0.099 NA 
HETATM    7  C   UNL     1      -8.441   7.514  67.055  1.00  0.00    -0.122 A  
HETATM    8  C   UNL     1      -7.707   7.875  68.200  1.00  0.00    -0.125 A  
ENDROOT
BRANCH   5   9
HETATM    9  C   UNL     1      -9.272   5.242  66.000  1.00  0.00    -0.157 C  
HETATM   10  O   UNL     1     -10.388   5.548  65.581  1.00  0.00     0.130 OA 
HETATM   11  N   UNL     1      -8.534   4.161  65.534  1.00  0.00    -0.109 N  
HETATM   12  H   UNL     1      -7.644   3.975  65.998  1.00  0.00     0.000 HD 
BRANCH  11  13
HETATM   13  C   UNL     1      -8.902   3.292  64.473  1.00  0.00    -0.108 A  
HETATM   14  C   UNL     1     -10.513   2.351  62.906  1.00  0.00    -0.146 A  
HETATM   15  C   UNL     1      -9.533   1.529  62.359  1.00  0.00    -0.081 A  
HETATM   16  C   UNL     1      -7.916   2.486  63.889  1.00  0.00    -0.081 A  
HETATM   17  C   UNL     1     -10.201   3.221  63.963  1.00  0.00    -0.195 A  
HETATM   18  C   UNL     1      -8.234   1.589  62.858  1.00  0.00    -0.057 A  
ENDBRANCH  11  13
ENDBRANCH   5   9
BRANCH   7  19
HETATM   19  C   UNL     1      -8.923   8.502  66.049  1.00  0.00    -0.228 A  
HETATM   20  C   UNL     1      -8.446   8.475  64.724  1.00  0.00    -0.146 A  
HETATM   21  C   UNL     1     -10.285  10.429  65.407  1.00  0.00    -0.329 A  
HETATM   22  C   UNL     1      -9.833  10.351  64.092  1.00  0.00    -0.379 A  
HETATM   23  C   UNL     1      -9.857   9.498  66.369  1.00  0.00    -0.320 A  
HETATM   24  C   UNL     1      -8.919   9.366  63.748  1.00  0.00    -0.153 A  
ENDBRANCH   7  19
BRANCH   8  25
HETATM   25  C   UNL     1      -7.119   9.205  68.602  1.00  0.00    -0.071 A  
HETATM   26  C   UNL     1      -5.768   9.345  68.961  1.00  0.00    -0.036 A  
HETATM   27  C   UNL     1      -7.332  11.613  68.998  1.00  0.00    -0.074 A  
HETATM   28  C   UNL     1      -7.896  10.375  68.640  1.00  0.00    -0.108 A  
HETATM   29  F   UNL     1      -5.423  12.899  69.535  1.00  0.00    -0.073 F  
HETATM   30  C   UNL     1      -5.178  10.585  69.222  1.00  0.00    -0.038 A  
HETATM   31  C   UNL     1      -5.971  11.713  69.249  1.00  0.00    -0.071 A  
ENDBRANCH   8  25
BRANCH   6  32
HETATM   32  C   UNL     1      -6.749   6.598  70.182  1.00  0.00    -0.052 C  
BRANCH  32  33
HETATM   33  C   UNL     1      -7.511   6.817  71.502  1.00  0.00    -0.087 C  
BRANCH  33  34
HETATM   34  C   UNL     1      -7.584   5.567  72.402  1.00  0.00    -0.101 C  
HETATM   35  O   UNL     1      -6.314   5.215  72.950  1.00  0.00    -0.043 OA 
HETATM   36  H   UNL     1      -6.359   4.445  73.505  1.00  0.00     0.000 HD 
BRANCH  34  37
HETATM   37  C   UNL     1      -8.528   5.820  73.591  1.00  0.00    -0.116 C  
BRANCH  37  38
HETATM   38  C   UNL     1     -10.014   5.861  73.196  1.00  0.00    -0.177 C  
HETATM   39  H   UNL     1     -11.220   7.032  72.136  1.00  0.00     0.000 HD 
HETATM   40  O   UNL     1     -10.302   7.007  72.379  1.00  0.00    -0.195 OA 
BRANCH  38  41
HETATM   41  C   UNL     1     -10.388   4.623  72.383  1.00  0.00    -0.262 C  
HETATM   42  C   UNL     1      -9.791   3.348  72.932  1.00  0.00    -0.142 C  
HETATM   43  O   UNL     1      -9.797   3.259  74.280  1.00  0.00    -0.103 OA 
HETATM   44  O   UNL     1      -9.401   2.435  72.219  1.00  0.00    -0.083 OA 
ENDBRANCH  38  41
ENDBRANCH  37  38
ENDBRANCH  34  37
ENDBRANCH  33  34
ENDBRANCH  32  33
ENDBRANCH   6  32
TORSDOF 10
ENDMDL
MODEL      154
REMARK 921   NORMALIZED FREE ENERGY PREDICTED BY IDOCK:   -1.86 KCAL/MOL
REMARK 922        TOTAL FREE ENERGY PREDICTED BY IDOCK:   -5.69 KCAL/MOL
REMARK 923 INTER-LIGAND FREE ENERGY PREDICTED BY IDOCK:   -5.63 KCAL/MOL
REMARK 924 INTRA-LIGAND FREE ENERGY PREDICTED BY IDOCK:   -0.06 KCAL/MOL
REMARK 927      BINDING AFFINITY PREDICTED BY RF-SCORE:    0.00 PKD
ROOT
HETATM    1  C   UNL     1      -9.514   3.914  68.540  1.00  0.00    -0.213 C  
HETATM    2  C   UNL     1      -8.523   4.930  69.111  1.00  0.00    -0.086 C  
HETATM    3  C   UNL     1      -8.035   6.006  68.132  1.00  0.00    -0.110 A  
HETATM    4  C   UNL     1      -7.413   4.212  69.882  1.00  0.00    -0.049 C  
HETATM    5  C   UNL     1      -7.880   6.024  66.732  1.00  0.00    -0.101 A  
HETATM    6  N   UNL     1      -7.774   7.307  68.587  1.00  0.00    -0.117 NA 
HETATM    7  C   UNL     1      -7.745   7.434  66.341  1.00  0.00    -0.093 A  
HETATM    8  C   UNL     1      -7.601   8.198  67.514  1.00  0.00    -0.101 A  
ENDROOT
BRANCH   5   9
HETATM    9  C   UNL     1      -7.973   4.861  65.795  1.00  0.00    -0.106 C  
HETATM   10  O   UNL     1      -7.062   4.035  65.740  1.00  0.00    -0.064 OA 
HETATM   11  N   UNL     1      -9.133   4.796  65.033  1.00  0.00    -0.156 N  
HETATM   12  H   UNL     1      -9.791   5.570  65.127  1.00  0.00     0.000 HD 
BRANCH  11  13
HETATM   13  C   UNL     1      -9.486   3.754  64.137  1.00  0.00    -0.156 A  
HETATM   14  C   UNL     1     -11.107   2.326  63.009  1.00  0.00    -0.236 A  
HETATM   15  C   UNL     1     -10.086   1.667  62.330  1.00  0.00    -0.090 A  
HETATM   16  C   UNL     1      -8.471   3.108  63.419  1.00  0.00    -0.086 A  
HETATM   17  C   UNL     1     -10.808   3.356  63.913  1.00  0.00    -0.150 A  
HETATM   18  C   UNL     1      -8.765   2.053  62.542  1.00  0.00    -0.073 A  
ENDBRANCH  11  13
ENDBRANCH   5   9
BRANCH   7  19
HETATM   19  C   UNL     1      -7.753   8.029  64.975  1.00  0.00    -0.112 A  
HETATM   20  C   UNL     1      -6.664   7.847  64.101  1.00  0.00    -0.061 A  
HETATM   21  C   UNL     1      -8.806   9.359  63.213  1.00  0.00    -0.202 A  
HETATM   22  C   UNL     1      -7.737   9.125  62.353  1.00  0.00    -0.116 A  
HETATM   23  C   UNL     1      -8.829   8.795  64.500  1.00  0.00    -0.011 A  
HETATM   24  C   UNL     1      -6.668   8.358  62.795  1.00  0.00    -0.090 A  
ENDBRANCH   7  19
BRANCH   8  25
HETATM   25  C   UNL     1      -7.281   9.662  67.691  1.00  0.00    -0.089 A  
HETATM   26  C   UNL     1      -5.979  10.112  67.966  1.00  0.00    -0.041 A  
HETATM   27  C   UNL     1      -7.959  12.015  67.740  1.00  0.00    -0.147 A  
HETATM   28  C   UNL     1      -8.273  10.652  67.593  1.00  0.00    -0.107 A  
HETATM   29  F   UNL     1      -6.334  13.711  67.998  1.00  0.00    -0.083 F  
HETATM   30  C   UNL     1      -5.642  11.467  68.016  1.00  0.00    -0.043 A  
HETATM   31  C   UNL     1      -6.640  12.412  67.913  1.00  0.00    -0.097 A  
ENDBRANCH   8  25
BRANCH   6  32
HETATM   32  C   UNL     1      -7.592   7.663  70.002  1.00  0.00    -0.087 C  
BRANCH  32  33
HETATM   33  C   UNL     1      -8.590   7.024  70.986  1.00  0.00    -0.134 C  
BRANCH  33  34
HETATM   34  C   UNL     1      -8.075   6.938  72.438  1.00  0.00    -0.103 C  
HETATM   35  O   UNL     1      -8.424   8.089  73.208  1.00  0.00    -0.181 OA 
HETATM   36  H   UNL     1      -8.108   8.036  74.102  1.00  0.00     0.000 HD 
BRANCH  34  37
HETATM   37  C   UNL     1      -8.691   5.721  73.150  1.00  0.00    -0.122 C  
BRANCH  37  38
HETATM   38  C   UNL     1     -10.225   5.786  73.259  1.00  0.00    -0.200 C  
HETATM   39  H   UNL     1     -11.639   5.118  74.485  1.00  0.00     0.000 HD 
HETATM   40  O   UNL     1     -10.693   5.078  74.418  1.00  0.00    -0.328 OA 
BRANCH  38  41
HETATM   41  C   UNL     1     -10.692   7.234  73.396  1.00  0.00    -0.415 C  
HETATM   42  C   UNL     1     -11.759   7.612  72.395  1.00  0.00    -0.317 C  
HETATM   43  O   UNL     1     -12.685   6.655  72.171  1.00  0.00    -0.236 OA 
HETATM   44  O   UNL     1     -11.827   8.720  71.882  1.00  0.00    -0.319 OA 
ENDBRANCH  38  41
ENDBRANCH  37  38
ENDBRANCH  34  37
ENDBRANCH  33  34
ENDBRANCH  32  33
ENDBRANCH   6  32
TORSDOF 10
ENDMDL
MODEL      155
REMARK 921   NORMALIZED FREE ENERGY PREDICTED BY IDOCK:   -1.81 KCAL/MOL
REMARK 922        TOTAL FREE ENERGY PREDICTED BY IDOCK:   -5.63 KCAL/MOL
REMARK 923 INTER-LIGAND FREE ENERGY PREDICTED BY IDOCK:   -6.51 KCAL/MOL
REMARK 924 INTRA-LIGAND FREE ENERGY PREDICTED BY IDOCK:    0.89 KCAL/MOL
REMARK 927      BINDING AFFINITY PREDICTED BY RF-SCORE:    0.00 PKD
ROOT
HETATM    1  C   UNL     1     -11.003  14.817  66.510  1.00  0.00    -0.325 C  
HETATM    2  C   UNL     1     -10.309  13.537  66.041  1.00  0.00    -0.303 C  
HETATM    3  C   UNL     1      -9.164  13.036  66.930  1.00  0.00    -0.236 A  
HETATM    4  C   UNL     1      -9.972  13.633  64.551  1.00  0.00     0.057 C  
HETATM    5  C   UNL     1      -8.267  13.695  67.794  1.00  0.00    -0.179 A  
HETATM    6  N   UNL     1      -8.943  11.661  67.089  1.00  0.00    -0.168 NA 
HETATM    7  C   UNL     1      -7.664  12.662  68.645  1.00  0.00    -0.066 A  
HETATM    8  C   UNL     1      -8.039  11.405  68.134  1.00  0.00    -0.137 A  
ENDROOT
BRANCH   5   9
HETATM    9  C   UNL     1      -8.059  15.171  67.929  1.00  0.00    -0.137 C  
HETATM   10  O   UNL     1      -6.956  15.666  67.699  1.00  0.00    -0.139 OA 
HETATM   11  N   UNL     1      -9.177  15.901  68.314  1.00  0.00    -0.187 N  
HETATM   12  H   UNL     1     -10.022  15.373  68.531  1.00  0.00     0.000 HD 
BRANCH  11  13
HETATM   13  C   UNL     1      -9.252  17.314  68.433  1.00  0.00    -0.268 A  
HETATM   14  C   UNL     1     -10.442  19.436  68.309  1.00  0.00    -0.424 A  
HETATM   15  C   UNL     1      -9.298  20.125  68.702  1.00  0.00    -0.040 A  
HETATM   16  C   UNL     1      -8.118  18.015  68.864  1.00  0.00    -0.168 A  
HETATM   17  C   UNL     1     -10.416  18.041  68.167  1.00  0.00    -0.373 A  
HETATM   18  C   UNL     1      -8.132  19.415  68.971  1.00  0.00    -0.280 A  
ENDBRANCH  11  13
ENDBRANCH   5   9
BRANCH   7  19
HETATM   19  C   UNL     1      -6.805  12.828  69.850  1.00  0.00     0.375 A  
HETATM   20  C   UNL     1      -5.998  11.771  70.315  1.00  0.00    -0.155 A  
HETATM   21  C   UNL     1      -5.954  14.156  71.720  1.00  0.00     0.023 A  
HETATM   22  C   UNL     1      -5.131  13.111  72.130  1.00  0.00    -0.075 A  
HETATM   23  C   UNL     1      -6.761  14.028  70.577  1.00  0.00     0.272 A  
HETATM   24  C   UNL     1      -5.146  11.919  71.419  1.00  0.00    -0.077 A  
ENDBRANCH   7  19
BRANCH   8  25
HETATM   25  C   UNL     1      -7.586  10.020  68.522  1.00  0.00    -0.087 A  
HETATM   26  C   UNL     1      -6.837   9.209  67.653  1.00  0.00    -0.077 A  
HETATM   27  C   UNL     1      -7.450   8.181  70.135  1.00  0.00    -0.061 A  
HETATM   28  C   UNL     1      -7.894   9.466  69.776  1.00  0.00    -0.115 A  
HETATM   29  F   UNL     1      -6.162   6.263  69.639  1.00  0.00    -0.027 F  
HETATM   30  C   UNL     1      -6.309   7.973  68.037  1.00  0.00    -0.051 A  
HETATM   31  C   UNL     1      -6.630   7.462  69.276  1.00  0.00    -0.037 A  
ENDBRANCH   8  25
BRANCH   6  32
HETATM   32  C   UNL     1      -9.501  10.630  66.200  1.00  0.00    -0.179 C  
BRANCH  32  33
HETATM   33  C   UNL     1     -10.679   9.820  66.772  1.00  0.00    -0.143 C  
BRANCH  33  34
HETATM   34  C   UNL     1     -10.966  10.093  68.263  1.00  0.00    -0.248 C  
HETATM   35  O   UNL     1     -12.211  10.763  68.463  1.00  0.00    -0.824 OA 
HETATM   36  H   UNL     1     -12.389  10.931  69.381  1.00  0.00     0.000 HD 
BRANCH  34  37
HETATM   37  C   UNL     1     -11.043   8.768  69.043  1.00  0.00     0.164 C  
BRANCH  37  38
HETATM   38  C   UNL     1     -10.915   8.946  70.566  1.00  0.00    -0.241 C  
HETATM   39  H   UNL     1     -10.665  10.438  71.854  1.00  0.00     0.000 HD 
HETATM   40  O   UNL     1     -10.744  10.329  70.914  1.00  0.00    -0.153 OA 
BRANCH  38  41
HETATM   41  C   UNL     1     -12.180   8.457  71.271  1.00  0.00    -0.305 C  
HETATM   42  C   UNL     1     -13.119   9.577  71.652  1.00  0.00    -0.401 C  
HETATM   43  O   UNL     1     -13.235  10.553  70.726  1.00  0.00    -0.335 OA 
HETATM   44  O   UNL     1     -13.781   9.569  72.680  1.00  0.00    -0.382 OA 
ENDBRANCH  38  41
ENDBRANCH  37  38
ENDBRANCH  34  37
ENDBRANCH  33  34
ENDBRANCH  32  33
ENDBRANCH   6  32
TORSDOF 10
ENDMDL
MODEL      156
REMARK 921   NORMALIZED FREE ENERGY PREDICTED BY IDOCK:   -1.43 KCAL/MOL
REMARK 922        TOTAL FREE ENERGY PREDICTED BY IDOCK:   -5.01 KCAL/MOL
REMARK 923 INTER-LIGAND FREE ENERGY PREDICTED BY IDOCK:   -3.26 KCAL/MOL
REMARK 924 INTRA-LIGAND FREE ENERGY PREDICTED BY IDOCK:   -1.75 KCAL/MOL
REMARK 927      BINDING AFFINITY PREDICTED BY RF-SCORE:    0.00 PKD
ROOT
HETATM    1  C   UNL     1     -11.596   5.410  71.283  1.00  0.00     0.551 C  
HETATM    2  C   UNL     1     -10.972   6.650  70.641  1.00  0.00    -0.329 C  
HETATM    3  C   UNL     1      -9.865   6.382  69.613  1.00  0.00    -0.159 A  
HETATM    4  C   UNL     1     -10.617   7.682  71.715  1.00  0.00    -0.250 C  
HETATM    5  C   UNL     1      -8.940   5.331  69.459  1.00  0.00    -0.128 A  
HETATM    6  N   UNL     1      -9.725   7.215  68.494  1.00  0.00    -0.142 NA 
HETATM    7  C   UNL     1      -8.404   5.437  68.095  1.00  0.00    -0.098 A  
HETATM    8  C   UNL     1      -8.845   6.657  67.550  1.00  0.00    -0.116 A  
ENDROOT
BRANCH   5   9
HETATM    9  C   UNL     1      -8.650   4.229  70.429  1.00  0.00    -0.073 C  
HETATM   10  O   UNL     1      -9.064   3.090  70.216  1.00  0.00    -0.094 OA 
HETATM   11  N   UNL     1      -7.897   4.591  71.539  1.00  0.00    -0.084 N  
HETATM   12  H   UNL     1      -7.658   5.578  71.634  1.00  0.00     0.000 HD 
BRANCH  11  13
HETATM   13  C   UNL     1      -7.429   3.714  72.553  1.00  0.00    -0.055 A  
HETATM   14  C   UNL     1      -5.899   3.102  74.348  1.00  0.00    -0.007 A  
HETATM   15  C   UNL     1      -6.578   1.903  74.546  1.00  0.00    -0.017 A  
HETATM   16  C   UNL     1      -8.126   2.522  72.788  1.00  0.00    -0.055 A  
HETATM   17  C   UNL     1      -6.317   3.997  73.351  1.00  0.00    -0.032 A  
HETATM   18  C   UNL     1      -7.687   1.608  73.759  1.00  0.00    -0.037 A  
ENDBRANCH  11  13
ENDBRANCH   5   9
BRANCH   7  19
HETATM   19  C   UNL     1      -7.548   4.473  67.350  1.00  0.00    -0.082 A  
HETATM   20  C   UNL     1      -6.216   4.794  67.022  1.00  0.00    -0.035 A  
HETATM   21  C   UNL     1      -7.197   2.331  66.223  1.00  0.00    -0.061 A  
HETATM   22  C   UNL     1      -5.870   2.654  65.952  1.00  0.00    -0.022 A  
HETATM   23  C   UNL     1      -8.019   3.218  66.939  1.00  0.00    -0.080 A  
HETATM   24  C   UNL     1      -5.376   3.884  66.361  1.00  0.00    -0.013 A  
ENDBRANCH   7  19
BRANCH   8  25
HETATM   25  C   UNL     1      -8.476   7.337  66.254  1.00  0.00    -0.135 A  
HETATM   26  C   UNL     1      -7.370   8.197  66.153  1.00  0.00    -0.070 A  
HETATM   27  C   UNL     1      -8.858   7.769  63.874  1.00  0.00     0.805 A  
HETATM   28  C   UNL     1      -9.223   7.146  65.080  1.00  0.00     0.680 A  
HETATM   29  F   UNL     1      -7.321   9.079  62.646  1.00  0.00    -0.100 F  
HETATM   30  C   UNL     1      -6.942   8.741  64.939  1.00  0.00    -0.073 A  
HETATM   31  C   UNL     1      -7.700   8.531  63.806  1.00  0.00    -0.142 A  
ENDBRANCH   8  25
BRANCH   6  32
HETATM   32  C   UNL     1     -10.332   8.549  68.380  1.00  0.00    -0.202 C  
BRANCH  32  33
HETATM   33  C   UNL     1      -9.411   9.658  67.837  1.00  0.00    -0.141 C  
BRANCH  33  34
HETATM   34  C   UNL     1     -10.042  10.508  66.715  1.00  0.00    -0.219 C  
HETATM   35  O   UNL     1     -11.453  10.655  66.871  1.00  0.00    -0.241 OA 
HETATM   36  H   UNL     1     -11.842  11.179  66.180  1.00  0.00     0.000 HD 
BRANCH  34  37
HETATM   37  C   UNL     1      -9.444  11.926  66.720  1.00  0.00    -0.207 C  
BRANCH  37  38
HETATM   38  C   UNL     1     -10.343  12.969  67.406  1.00  0.00    -0.234 C  
HETATM   39  H   UNL     1     -10.319  14.064  69.064  1.00  0.00     0.000 HD 
HETATM   40  O   UNL     1      -9.764  13.421  68.641  1.00  0.00    -0.183 OA 
BRANCH  38  41
HETATM   41  C   UNL     1     -10.519  14.197  66.515  1.00  0.00    -0.280 C  
HETATM   42  C   UNL     1     -11.618  14.036  65.491  1.00  0.00    -0.332 C  
HETATM   43  O   UNL     1     -12.724  13.408  65.946  1.00  0.00    -0.400 OA 
HETATM   44  O   UNL     1     -11.549  14.501  64.362  1.00  0.00    -0.369 OA 
ENDBRANCH  38  41
ENDBRANCH  37  38
ENDBRANCH  34  37
ENDBRANCH  33  34
ENDBRANCH  32  33
ENDBRANCH   6  32
TORSDOF 10
ENDMDL
MODEL      157
REMARK 921   NORMALIZED FREE ENERGY PREDICTED BY IDOCK:   -1.31 KCAL/MOL
REMARK 922        TOTAL FREE ENERGY PREDICTED BY IDOCK:   -4.83 KCAL/MOL
REMARK 923 INTER-LIGAND FREE ENERGY PREDICTED BY IDOCK:   -4.90 KCAL/MOL
REMARK 924 INTRA-LIGAND FREE ENERGY PREDICTED BY IDOCK:    0.08 KCAL/MOL
REMARK 927      BINDING AFFINITY PREDICTED BY RF-SCORE:    0.00 PKD
ROOT
HETATM    1  C   UNL     1     -11.893  12.261  65.819  1.00  0.00    -0.417 C  
HETATM    2  C   UNL     1     -10.943  11.072  65.660  1.00  0.00    -0.090 C  
HETATM    3  C   UNL     1      -9.663  11.125  66.504  1.00  0.00    -0.198 A  
HETATM    4  C   UNL     1     -10.725  10.764  64.177  1.00  0.00    -0.070 C  
HETATM    5  C   UNL     1      -8.900  12.192  67.015  1.00  0.00    -0.203 A  
HETATM    6  N   UNL     1      -9.115   9.946  67.028  1.00  0.00    -0.138 NA 
HETATM    7  C   UNL     1      -8.021  11.626  68.048  1.00  0.00    -0.132 A  
HETATM    8  C   UNL     1      -8.117  10.224  67.977  1.00  0.00    -0.106 A  
ENDROOT
BRANCH   5   9
HETATM    9  C   UNL     1      -9.040  13.645  66.686  1.00  0.00    -0.174 C  
HETATM   10  O   UNL     1      -8.938  14.030  65.521  1.00  0.00     0.581 OA 
HETATM   11  N   UNL     1      -9.291  14.483  67.765  1.00  0.00    -0.195 N  
HETATM   12  H   UNL     1      -9.297  14.055  68.691  1.00  0.00     0.000 HD 
BRANCH  11  13
HETATM   13  C   UNL     1      -9.538  15.880  67.699  1.00  0.00    -0.221 A  
HETATM   14  C   UNL     1     -10.776  17.823  66.907  1.00  0.00    -0.165 A  
HETATM   15  C   UNL     1      -9.949  18.673  67.636  1.00  0.00    -0.375 A  
HETATM   16  C   UNL     1      -8.737  16.743  68.458  1.00  0.00    -0.245 A  
HETATM   17  C   UNL     1     -10.566  16.436  66.932  1.00  0.00    -0.252 A  
HETATM   18  C   UNL     1      -8.922  18.133  68.405  1.00  0.00    -0.305 A  
ENDBRANCH  11  13
ENDBRANCH   5   9
BRANCH   7  19
HETATM   19  C   UNL     1      -7.158  12.337  69.031  1.00  0.00    -0.051 A  
HETATM   20  C   UNL     1      -6.169  11.645  69.758  1.00  0.00    -0.139 A  
HETATM   21  C   UNL     1      -6.473  14.356  70.230  1.00  0.00    -0.130 A  
HETATM   22  C   UNL     1      -5.472  13.658  70.900  1.00  0.00    -0.178 A  
HETATM   23  C   UNL     1      -7.289  13.711  69.285  1.00  0.00     0.129 A  
HETATM   24  C   UNL     1      -5.313  12.302  70.655  1.00  0.00    -0.153 A  
ENDBRANCH   7  19
BRANCH   8  25
HETATM   25  C   UNL     1      -7.327   9.156  68.693  1.00  0.00    -0.076 A  
HETATM   26  C   UNL     1      -7.948   8.177  69.487  1.00  0.00    -0.113 A  
HETATM   27  C   UNL     1      -5.204   8.075  69.260  1.00  0.00    -0.026 A  
HETATM   28  C   UNL     1      -5.927   9.087  68.604  1.00  0.00    -0.045 A  
HETATM   29  F   UNL     1      -5.191   6.082  70.529  1.00  0.00    -0.011 F  
HETATM   30  C   UNL     1      -7.248   7.112  70.061  1.00  0.00    -0.078 A  
HETATM   31  C   UNL     1      -5.874   7.076  69.951  1.00  0.00    -0.023 A  
ENDBRANCH   8  25
BRANCH   6  32
HETATM   32  C   UNL     1      -9.462   8.596  66.558  1.00  0.00    -0.216 C  
BRANCH  32  33
HETATM   33  C   UNL     1      -8.333   7.823  65.852  1.00  0.00    -0.135 C  
BRANCH  33  34
HETATM   34  C   UNL     1      -8.658   6.338  65.584  1.00  0.00    -0.139 C  
HETATM   35  O   UNL     1      -8.708   6.036  64.189  1.00  0.00    -0.347 OA 
HETATM   36  H   UNL     1      -8.907   5.121  64.024  1.00  0.00     0.000 HD 
BRANCH  34  37
HETATM   37  C   UNL     1      -7.573   5.436  66.197  1.00  0.00    -0.087 C  
BRANCH  37  38
HETATM   38  C   UNL     1      -8.068   4.014  66.517  1.00  0.00    -0.097 C  
HETATM   39  H   UNL     1      -9.167   2.610  65.639  1.00  0.00     0.000 HD 
HETATM   40  O   UNL     1      -8.861   3.487  65.442  1.00  0.00    -0.116 OA 
BRANCH  38  41
HETATM   41  C   UNL     1      -6.886   3.066  66.711  1.00  0.00    -0.049 C  
HETATM   42  C   UNL     1      -6.814   2.483  68.103  1.00  0.00    -0.043 C  
HETATM   43  O   UNL     1      -8.008   2.140  68.632  1.00  0.00    -0.052 OA 
HETATM   44  O   UNL     1      -5.757   2.267  68.680  1.00  0.00    -0.021 OA 
ENDBRANCH  38  41
ENDBRANCH  37  38
ENDBRANCH  34  37
ENDBRANCH  33  34
ENDBRANCH  32  33
ENDBRANCH   6  32
TORSDOF 10
ENDMDL
MODEL      158
REMARK 921   NORMALIZED FREE ENERGY PREDICTED BY IDOCK:   -1.18 KCAL/MOL
REMARK 922        TOTAL FREE ENERGY PREDICTED BY IDOCK:   -4.63 KCAL/MOL
REMARK 923 INTER-LIGAND FREE ENERGY PREDICTED BY IDOCK:   -2.92 KCAL/MOL
REMARK 924 INTRA-LIGAND FREE ENERGY PREDICTED BY IDOCK:   -1.71 KCAL/MOL
REMARK 927      BINDING AFFINITY PREDICTED BY RF-SCORE:    0.00 PKD
ROOT
HETATM    1  C   UNL     1     -11.499   9.478  68.685  1.00  0.00     0.330 C  
HETATM    2  C   UNL     1     -10.810   8.130  68.462  1.00  0.00     0.040 C  
HETATM    3  C   UNL     1      -9.595   7.848  69.356  1.00  0.00    -0.160 A  
HETATM    4  C   UNL     1     -10.577   7.896  66.967  1.00  0.00    -0.381 C  
HETATM    5  C   UNL     1      -8.658   8.689  69.987  1.00  0.00    -0.132 A  
HETATM    6  N   UNL     1      -9.334   6.544  69.799  1.00  0.00    -0.148 NA 
HETATM    7  C   UNL     1      -7.975   7.874  71.001  1.00  0.00    -0.090 A  
HETATM    8  C   UNL     1      -8.355   6.533  70.807  1.00  0.00    -0.130 A  
ENDROOT
BRANCH   5   9
HETATM    9  C   UNL     1      -8.474  10.159  69.778  1.00  0.00    -0.128 C  
HETATM   10  O   UNL     1      -9.399  10.938  70.011  1.00  0.00     0.554 OA 
HETATM   11  N   UNL     1      -7.221  10.549  69.325  1.00  0.00    -0.091 N  
HETATM   12  H   UNL     1      -6.554   9.806  69.114  1.00  0.00     0.000 HD 
BRANCH  11  13
HETATM   13  C   UNL     1      -6.781  11.884  69.127  1.00  0.00    -0.105 A  
HETATM   14  C   UNL     1      -6.655  13.955  67.849  1.00  0.00    -0.167 A  
HETATM   15  C   UNL     1      -5.856  14.536  68.830  1.00  0.00    -0.085 A  
HETATM   16  C   UNL     1      -6.007  12.493  70.124  1.00  0.00    -0.142 A  
HETATM   17  C   UNL     1      -7.107  12.635  67.994  1.00  0.00    -0.103 A  
HETATM   18  C   UNL     1      -5.524  13.801  69.964  1.00  0.00    -0.104 A  
ENDBRANCH  11  13
ENDBRANCH   5   9
BRANCH   7  19
HETATM   19  C   UNL     1      -7.040   8.310  72.075  1.00  0.00    -0.099 A  
HETATM   20  C   UNL     1      -6.011   9.234  71.806  1.00  0.00    -0.044 A  
HETATM   21  C   UNL     1      -6.227   8.239  74.381  1.00  0.00    -0.136 A  
HETATM   22  C   UNL     1      -5.249   9.189  74.099  1.00  0.00    -0.117 A  
HETATM   23  C   UNL     1      -7.131   7.825  73.388  1.00  0.00    -0.110 A  
HETATM   24  C   UNL     1      -5.147   9.694  72.811  1.00  0.00    -0.054 A  
ENDBRANCH   7  19
BRANCH   8  25
HETATM   25  C   UNL     1      -7.846   5.271  71.459  1.00  0.00    -0.113 A  
HETATM   26  C   UNL     1      -8.554   4.624  72.485  1.00  0.00    -0.115 A  
HETATM   27  C   UNL     1      -6.176   3.492  71.677  1.00  0.00    -0.014 A  
HETATM   28  C   UNL     1      -6.631   4.679  71.075  1.00  0.00    -0.031 A  
HETATM   29  F   UNL     1      -6.557   1.683  73.149  1.00  0.00    -0.012 F  
HETATM   30  C   UNL     1      -8.160   3.394  73.018  1.00  0.00    -0.073 A  
HETATM   31  C   UNL     1      -6.963   2.841  72.616  1.00  0.00    -0.031 A  
ENDBRANCH   8  25
BRANCH   6  32
HETATM   32  C   UNL     1      -9.926   5.337  69.202  1.00  0.00    -0.205 C  
BRANCH  32  33
HETATM   33  C   UNL     1      -9.297   4.868  67.877  1.00  0.00    -0.155 C  
BRANCH  33  34
HETATM   34  C   UNL     1      -7.988   4.069  68.050  1.00  0.00    -0.085 C  
HETATM   35  O   UNL     1      -7.978   2.867  67.280  1.00  0.00    -0.076 OA 
HETATM   36  H   UNL     1      -7.172   2.376  67.386  1.00  0.00     0.000 HD 
BRANCH  34  37
HETATM   37  C   UNL     1      -6.786   4.908  67.581  1.00  0.00    -0.055 C  
BRANCH  37  38
HETATM   38  C   UNL     1      -6.762   5.149  66.062  1.00  0.00    -0.053 C  
HETATM   39  H   UNL     1      -7.656   4.417  64.445  1.00  0.00     0.000 HD 
HETATM   40  O   UNL     1      -7.671   4.268  65.383  1.00  0.00    -0.084 OA 
BRANCH  38  41
HETATM   41  C   UNL     1      -7.194   6.579  65.739  1.00  0.00    -0.070 C  
HETATM   42  C   UNL     1      -6.573   7.609  66.652  1.00  0.00    -0.057 C  
HETATM   43  O   UNL     1      -5.277   7.382  66.958  1.00  0.00    -0.021 OA 
HETATM   44  O   UNL     1      -7.168   8.609  67.028  1.00  0.00    -0.075 OA 
ENDBRANCH  38  41
ENDBRANCH  37  38
ENDBRANCH  34  37
ENDBRANCH  33  34
ENDBRANCH  32  33
ENDBRANCH   6  32
TORSDOF 10
ENDMDL
MODEL      159
REMARK 921   NORMALIZED FREE ENERGY PREDICTED BY IDOCK:   -0.50 KCAL/MOL
REMARK 922        TOTAL FREE ENERGY PREDICTED BY IDOCK:   -3.55 KCAL/MOL
REMARK 923 INTER-LIGAND FREE ENERGY PREDICTED BY IDOCK:   -5.45 KCAL/MOL
REMARK 924 INTRA-LIGAND FREE ENERGY PREDICTED BY IDOCK:    1.91 KCAL/MOL
REMARK 927      BINDING AFFINITY PREDICTED BY RF-SCORE:    0.00 PKD
ROOT
HETATM    1  C   UNL     1      -9.077  11.165  64.372  1.00  0.00    -0.057 C  
HETATM    2  C   UNL     1      -8.589  10.217  65.469  1.00  0.00    -0.162 C  
HETATM    3  C   UNL     1      -9.160  10.470  66.871  1.00  0.00    -0.147 A  
HETATM    4  C   UNL     1      -7.066  10.078  65.410  1.00  0.00    -0.138 C  
HETATM    5  C   UNL     1      -9.634  11.631  67.513  1.00  0.00    -0.176 A  
HETATM    6  N   UNL     1      -9.417   9.395  67.732  1.00  0.00    -0.132 NA 
HETATM    7  C   UNL     1     -10.394  11.182  68.688  1.00  0.00    -0.219 A  
HETATM    8  C   UNL     1     -10.175   9.801  68.844  1.00  0.00    -0.200 A  
ENDROOT
BRANCH   5   9
HETATM    9  C   UNL     1      -9.517  13.043  67.034  1.00  0.00    -0.237 C  
HETATM   10  O   UNL     1      -8.886  13.301  66.009  1.00  0.00     0.221 OA 
HETATM   11  N   UNL     1     -10.164  13.995  67.811  1.00  0.00    -0.237 N  
HETATM   12  H   UNL     1     -10.608  13.667  68.669  1.00  0.00     0.000 HD 
BRANCH  11  13
HETATM   13  C   UNL     1     -10.265  15.382  67.523  1.00  0.00    -0.244 A  
HETATM   14  C   UNL     1     -10.148  17.293  66.017  1.00  0.00    -0.275 A  
HETATM   15  C   UNL     1     -10.491  18.158  67.052  1.00  0.00    -0.385 A  
HETATM   16  C   UNL     1     -10.645  16.258  68.548  1.00  0.00    -0.294 A  
HETATM   17  C   UNL     1     -10.027  15.916  66.253  1.00  0.00    -0.318 A  
HETATM   18  C   UNL     1     -10.731  17.640  68.322  1.00  0.00    -0.285 A  
ENDBRANCH  11  13
ENDBRANCH   5   9
BRANCH   7  19
HETATM   19  C   UNL     1     -11.264  11.979  69.597  1.00  0.00    -0.168 A  
HETATM   20  C   UNL     1     -12.504  11.475  70.036  1.00  0.00    -0.192 A  
HETATM   21  C   UNL     1     -11.745  13.994  70.896  1.00  0.00    -0.136 A  
HETATM   22  C   UNL     1     -12.944  13.454  71.352  1.00  0.00    -0.412 A  
HETATM   23  C   UNL     1     -10.900  13.255  70.051  1.00  0.00     0.691 A  
HETATM   24  C   UNL     1     -13.319  12.187  70.928  1.00  0.00     0.519 A  
ENDBRANCH   7  19
BRANCH   8  25
HETATM   25  C   UNL     1     -10.584   8.869  69.958  1.00  0.00    -0.234 A  
HETATM   26  C   UNL     1     -11.493   7.818  69.754  1.00  0.00     0.186 A  
HETATM   27  C   UNL     1     -10.451   8.120  72.286  1.00  0.00    -0.371 A  
HETATM   28  C   UNL     1     -10.077   9.007  71.261  1.00  0.00    -0.384 A  
HETATM   29  F   UNL     1     -11.588   6.164  72.969  1.00  0.00    -0.246 F  
HETATM   30  C   UNL     1     -11.793   6.874  70.740  1.00  0.00    -0.427 A  
HETATM   31  C   UNL     1     -11.276   7.040  72.007  1.00  0.00    -0.253 A  
ENDBRANCH   8  25
BRANCH   6  32
HETATM   32  C   UNL     1      -8.866   8.043  67.550  1.00  0.00    -0.128 C  
BRANCH  32  33
HETATM   33  C   UNL     1      -7.336   7.959  67.402  1.00  0.00    -0.092 C  
BRANCH  33  34
HETATM   34  C   UNL     1      -6.824   6.590  66.908  1.00  0.00    -0.066 C  
HETATM   35  O   UNL     1      -5.399   6.526  66.863  1.00  0.00    -0.012 OA 
HETATM   36  H   UNL     1      -5.084   5.683  66.559  1.00  0.00     0.000 HD 
BRANCH  34  37
HETATM   37  C   UNL     1      -7.291   5.472  67.857  1.00  0.00    -0.073 C  
BRANCH  37  38
HETATM   38  C   UNL     1      -7.341   4.085  67.192  1.00  0.00    -0.068 C  
HETATM   39  H   UNL     1      -6.102   2.885  66.206  1.00  0.00     0.000 HD 
HETATM   40  O   UNL     1      -6.071   3.741  66.616  1.00  0.00    -0.023 OA 
BRANCH  38  41
HETATM   41  C   UNL     1      -7.676   3.008  68.222  1.00  0.00    -0.055 C  
HETATM   42  C   UNL     1      -8.960   3.279  68.970  1.00  0.00    -0.129 C  
HETATM   43  O   UNL     1      -9.960   3.775  68.210  1.00  0.00    -0.006 OA 
HETATM   44  O   UNL     1      -9.113   3.003  70.152  1.00  0.00    -0.092 OA 
ENDBRANCH  38  41
ENDBRANCH  37  38
ENDBRANCH  34  37
ENDBRANCH  33  34
ENDBRANCH  32  33
ENDBRANCH   6  32
TORSDOF 10
ENDMDL
MODEL      160
REMARK 921   NORMALIZED FREE ENERGY PREDICTED BY IDOCK:   -0.26 KCAL/MOL
REMARK 922        TOTAL FREE ENERGY PREDICTED BY IDOCK:   -3.16 KCAL/MOL
REMARK 923 INTER-LIGAND FREE ENERGY PREDICTED BY IDOCK:   -5.00 KCAL/MOL
REMARK 924 INTRA-LIGAND FREE ENERGY PREDICTED BY IDOCK:    1.84 KCAL/MOL
REMARK 927      BINDING AFFINITY PREDICTED BY RF-SCORE:    0.00 PKD
ROOT
HETATM    1  C   UNL     1     -13.081  14.425  68.691  1.00  0.00     2.137 C  
HETATM    2  C   UNL     1     -12.361  13.357  67.867  1.00  0.00     0.043 C  
HETATM    3  C   UNL     1     -10.850  13.239  68.105  1.00  0.00    -0.251 A  
HETATM    4  C   UNL     1     -12.775  13.453  66.397  1.00  0.00     0.031 C  
HETATM    5  C   UNL     1      -9.873  14.166  68.517  1.00  0.00    -0.230 A  
HETATM    6  N   UNL     1     -10.222  11.987  68.046  1.00  0.00    -0.192 NA 
HETATM    7  C   UNL     1      -8.697  13.386  68.927  1.00  0.00     0.250 A  
HETATM    8  C   UNL     1      -8.911  12.048  68.549  1.00  0.00    -0.095 A  
ENDROOT
BRANCH   5   9
HETATM    9  C   UNL     1     -10.030  15.648  68.652  1.00  0.00    -0.208 C  
HETATM   10  O   UNL     1     -10.544  16.128  69.663  1.00  0.00    -0.268 OA 
HETATM   11  N   UNL     1      -9.558  16.401  67.585  1.00  0.00    -0.226 N  
HETATM   12  H   UNL     1      -9.203  15.887  66.778  1.00  0.00     0.000 HD 
BRANCH  11  13
HETATM   13  C   UNL     1      -9.523  17.818  67.512  1.00  0.00    -0.257 A  
HETATM   14  C   UNL     1     -10.352  20.036  68.087  1.00  0.00    -0.503 A  
HETATM   15  C   UNL     1      -9.368  20.631  67.303  1.00  0.00    -0.480 A  
HETATM   16  C   UNL     1      -8.514  18.430  66.756  1.00  0.00    -0.274 A  
HETATM   17  C   UNL     1     -10.434  18.639  68.184  1.00  0.00    -0.361 A  
HETATM   18  C   UNL     1      -8.453  19.826  66.629  1.00  0.00    -0.371 A  
ENDBRANCH  11  13
ENDBRANCH   5   9
BRANCH   7  19
HETATM   19  C   UNL     1      -7.465  13.851  69.624  1.00  0.00     0.393 A  
HETATM   20  C   UNL     1      -7.073  15.203  69.575  1.00  0.00    -0.195 A  
HETATM   21  C   UNL     1      -5.476  13.434  70.985  1.00  0.00    -0.198 A  
HETATM   22  C   UNL     1      -5.136  14.784  70.959  1.00  0.00    -0.131 A  
HETATM   23  C   UNL     1      -6.642  12.976  70.349  1.00  0.00     0.561 A  
HETATM   24  C   UNL     1      -5.942  15.672  70.260  1.00  0.00    -0.102 A  
ENDBRANCH   7  19
BRANCH   8  25
HETATM   25  C   UNL     1      -7.979  10.862  68.589  1.00  0.00    -0.140 A  
HETATM   26  C   UNL     1      -6.903  10.729  67.696  1.00  0.00    -0.073 A  
HETATM   27  C   UNL     1      -7.254   8.736  69.565  1.00  0.00    -0.059 A  
HETATM   28  C   UNL     1      -8.141   9.826  69.524  1.00  0.00    -0.141 A  
HETATM   29  F   UNL     1      -5.276   7.694  68.799  1.00  0.00    -0.021 F  
HETATM   30  C   UNL     1      -5.961   9.702  67.793  1.00  0.00    -0.051 A  
HETATM   31  C   UNL     1      -6.151   8.702  68.723  1.00  0.00    -0.045 A  
ENDBRANCH   8  25
BRANCH   6  32
HETATM   32  C   UNL     1     -10.822  10.793  67.432  1.00  0.00    -0.290 C  
BRANCH  32  33
HETATM   33  C   UNL     1     -10.025  10.165  66.274  1.00  0.00    -0.304 C  
BRANCH  33  34
HETATM   34  C   UNL     1     -10.082  10.970  64.959  1.00  0.00    -0.296 C  
HETATM   35  O   UNL     1     -11.388  10.982  64.384  1.00  0.00    -0.152 OA 
HETATM   36  H   UNL     1     -11.423  11.479  63.575  1.00  0.00     0.000 HD 
BRANCH  34  37
HETATM   37  C   UNL     1      -9.695  12.438  65.216  1.00  0.00    -0.104 C  
BRANCH  37  38
HETATM   38  C   UNL     1     -10.226  13.408  64.146  1.00  0.00     0.067 C  
HETATM   39  H   UNL     1     -11.714  13.471  62.831  1.00  0.00     0.000 HD 
HETATM   40  O   UNL     1     -11.387  12.873  63.492  1.00  0.00    -0.443 OA 
BRANCH  38  41
HETATM   41  C   UNL     1     -10.637  14.735  64.781  1.00  0.00    -0.355 C  
HETATM   42  C   UNL     1     -11.679  15.480  63.980  1.00  0.00     0.063 C  
HETATM   43  O   UNL     1     -12.641  14.698  63.443  1.00  0.00    -0.574 OA 
HETATM   44  O   UNL     1     -11.699  16.699  63.884  1.00  0.00    -1.153 OA 
ENDBRANCH  38  41
ENDBRANCH  37  38
ENDBRANCH  34  37
ENDBRANCH  33  34
ENDBRANCH  32  33
ENDBRANCH   6  32
TORSDOF 10
ENDMDL
MODEL      161
REMARK 921   NORMALIZED FREE ENERGY PREDICTED BY IDOCK:   -0.20 KCAL/MOL
REMARK 922        TOTAL FREE ENERGY PREDICTED BY IDOCK:   -3.07 KCAL/MOL
REMARK 923 INTER-LIGAND FREE ENERGY PREDICTED BY IDOCK:   -2.19 KCAL/MOL
REMARK 924 INTRA-LIGAND FREE ENERGY PREDICTED BY IDOCK:   -0.88 KCAL/MOL
REMARK 927      BINDING AFFINITY PREDICTED BY RF-SCORE:    0.00 PKD
ROOT
HETATM    1  C   UNL     1      -6.340  12.246  67.185  1.00  0.00    -0.117 C  
HETATM    2  C   UNL     1      -6.035  11.707  68.584  1.00  0.00    -0.050 C  
HETATM    3  C   UNL     1      -7.245  11.204  69.382  1.00  0.00    -0.091 A  
HETATM    4  C   UNL     1      -5.125  12.679  69.340  1.00  0.00    -0.073 C  
HETATM    5  C   UNL     1      -8.611  11.548  69.364  1.00  0.00     0.584 A  
HETATM    6  N   UNL     1      -7.114  10.107  70.246  1.00  0.00    -0.193 NA 
HETATM    7  C   UNL     1      -9.326  10.474  70.066  1.00  0.00     0.382 A  
HETATM    8  C   UNL     1      -8.369   9.639  70.671  1.00  0.00     0.008 A  
ENDROOT
BRANCH   5   9
HETATM    9  C   UNL     1      -9.245  12.703  68.654  1.00  0.00     0.034 C  
HETATM   10  O   UNL     1     -10.000  12.507  67.702  1.00  0.00    -0.195 OA 
HETATM   11  N   UNL     1      -8.924  13.960  69.150  1.00  0.00    -0.337 N  
HETATM   12  H   UNL     1      -8.242  13.999  69.908  1.00  0.00     0.000 HD 
BRANCH  11  13
HETATM   13  C   UNL     1      -9.457  15.197  68.699  1.00  0.00    -0.206 A  
HETATM   14  C   UNL     1     -10.195  17.492  69.051  1.00  0.00    -0.314 A  
HETATM   15  C   UNL     1     -10.521  17.617  67.704  1.00  0.00    -0.372 A  
HETATM   16  C   UNL     1      -9.754  15.347  67.338  1.00  0.00    -0.215 A  
HETATM   17  C   UNL     1      -9.675  16.287  69.547  1.00  0.00    -0.131 A  
HETATM   18  C   UNL     1     -10.309  16.540  66.848  1.00  0.00    -0.300 A  
ENDBRANCH  11  13
ENDBRANCH   5   9
BRANCH   7  19
HETATM   19  C   UNL     1     -10.794  10.238  70.164  1.00  0.00    -0.362 A  
HETATM   20  C   UNL     1     -11.671  10.721  69.173  1.00  0.00    -0.368 A  
HETATM   21  C   UNL     1     -12.757   9.343  71.315  1.00  0.00    -0.391 A  
HETATM   22  C   UNL     1     -13.597   9.790  70.299  1.00  0.00     0.663 A  
HETATM   23  C   UNL     1     -11.368   9.540  71.236  1.00  0.00    -0.446 A  
HETATM   24  C   UNL     1     -13.051  10.472  69.221  1.00  0.00     1.594 A  
ENDBRANCH   7  19
BRANCH   8  25
HETATM   25  C   UNL     1      -8.547   8.485  71.627  1.00  0.00    -0.247 A  
HETATM   26  C   UNL     1      -9.013   7.230  71.203  1.00  0.00    -0.147 A  
HETATM   27  C   UNL     1      -8.407   7.521  73.875  1.00  0.00    -0.230 A  
HETATM   28  C   UNL     1      -8.256   8.609  72.996  1.00  0.00     0.034 A  
HETATM   29  F   UNL     1      -8.868   5.228  74.211  1.00  0.00    -0.117 F  
HETATM   30  C   UNL     1      -9.071   6.119  72.048  1.00  0.00    -0.143 A  
HETATM   31  C   UNL     1      -8.777   6.277  73.386  1.00  0.00    -0.125 A  
ENDBRANCH   8  25
BRANCH   6  32
HETATM   32  C   UNL     1      -5.825   9.591  70.731  1.00  0.00    -0.066 C  
BRANCH  32  33
HETATM   33  C   UNL     1      -5.513   8.126  70.371  1.00  0.00    -0.022 C  
BRANCH  33  34
HETATM   34  C   UNL     1      -5.878   7.742  68.922  1.00  0.00    -0.031 C  
HETATM   35  O   UNL     1      -5.364   8.671  67.967  1.00  0.00    -0.034 OA 
HETATM   36  H   UNL     1      -5.588   8.434  67.075  1.00  0.00     0.000 HD 
BRANCH  34  37
HETATM   37  C   UNL     1      -5.284   6.367  68.570  1.00  0.00    -0.008 C  
BRANCH  37  38
HETATM   38  C   UNL     1      -6.169   5.543  67.618  1.00  0.00    -0.034 C  
HETATM   39  H   UNL     1      -7.698   5.864  66.390  1.00  0.00     0.000 HD 
HETATM   40  O   UNL     1      -7.152   6.372  66.977  1.00  0.00    -0.069 OA 
BRANCH  38  41
HETATM   41  C   UNL     1      -5.325   4.911  66.513  1.00  0.00    -0.009 C  
HETATM   42  C   UNL     1      -5.282   5.738  65.249  1.00  0.00    -0.010 C  
HETATM   43  O   UNL     1      -5.184   7.069  65.451  1.00  0.00    -0.025 OA 
HETATM   44  O   UNL     1      -5.262   5.243  64.131  1.00  0.00    -0.009 OA 
ENDBRANCH  38  41
ENDBRANCH  37  38
ENDBRANCH  34  37
ENDBRANCH  33  34
ENDBRANCH  32  33
ENDBRANCH   6  32
TORSDOF 10
ENDMDL
MODEL      162
REMARK 921   NORMALIZED FREE ENERGY PREDICTED BY IDOCK:   -0.09 KCAL/MOL
REMARK 922        TOTAL FREE ENERGY PREDICTED BY IDOCK:   -2.89 KCAL/MOL
REMARK 923 INTER-LIGAND FREE ENERGY PREDICTED BY IDOCK:   -3.56 KCAL/MOL
REMARK 924 INTRA-LIGAND FREE ENERGY PREDICTED BY IDOCK:    0.67 KCAL/MOL
REMARK 927      BINDING AFFINITY PREDICTED BY RF-SCORE:    0.00 PKD
ROOT
HETATM    1  C   UNL     1      -6.554   9.343  69.468  1.00  0.00    -0.044 C  
HETATM    2  C   UNL     1      -8.034   9.253  69.092  1.00  0.00    -0.097 C  
HETATM    3  C   UNL     1      -8.630  10.502  68.431  1.00  0.00    -0.132 A  
HETATM    4  C   UNL     1      -8.845   8.695  70.264  1.00  0.00    -0.158 C  
HETATM    5  C   UNL     1      -8.312  11.872  68.516  1.00  0.00    -0.118 A  
HETATM    6  N   UNL     1      -9.613  10.374  67.439  1.00  0.00    -0.153 NA 
HETATM    7  C   UNL     1      -8.970  12.529  67.380  1.00  0.00    -0.188 A  
HETATM    8  C   UNL     1      -9.833  11.595  66.778  1.00  0.00    -0.200 A  
ENDROOT
BRANCH   5   9
HETATM    9  C   UNL     1      -7.376  12.526  69.483  1.00  0.00     0.477 C  
HETATM   10  O   UNL     1      -6.519  11.860  70.064  1.00  0.00    -0.116 OA 
HETATM   11  N   UNL     1      -7.550  13.893  69.654  1.00  0.00    -0.229 N  
HETATM   12  H   UNL     1      -8.331  14.325  69.160  1.00  0.00     0.000 HD 
BRANCH  11  13
HETATM   13  C   UNL     1      -6.741  14.745  70.452  1.00  0.00     0.024 A  
HETATM   14  C   UNL     1      -5.333  15.205  72.386  1.00  0.00     0.137 A  
HETATM   15  C   UNL     1      -5.150  16.520  71.967  1.00  0.00     0.670 A  
HETATM   16  C   UNL     1      -6.520  16.061  70.022  1.00  0.00    -0.042 A  
HETATM   17  C   UNL     1      -6.130  14.326  71.637  1.00  0.00     0.120 A  
HETATM   18  C   UNL     1      -5.752  16.951  70.789  1.00  0.00     0.164 A  
ENDBRANCH  11  13
ENDBRANCH   5   9
BRANCH   7  19
HETATM   19  C   UNL     1      -8.807  13.925  66.885  1.00  0.00    -0.210 A  
HETATM   20  C   UNL     1      -7.605  14.630  67.095  1.00  0.00    -0.078 A  
HETATM   21  C   UNL     1      -9.657  15.923  65.759  1.00  0.00    -0.339 A  
HETATM   22  C   UNL     1      -8.443  16.580  65.938  1.00  0.00    -0.016 A  
HETATM   23  C   UNL     1      -9.829  14.600  66.202  1.00  0.00    -0.334 A  
HETATM   24  C   UNL     1      -7.411  15.928  66.599  1.00  0.00    -0.093 A  
ENDBRANCH   7  19
BRANCH   8  25
HETATM   25  C   UNL     1     -10.853  11.774  65.680  1.00  0.00    -0.342 A  
HETATM   26  C   UNL     1     -12.132  12.298  65.929  1.00  0.00    -0.261 A  
HETATM   27  C   UNL     1     -11.525  11.613  63.330  1.00  0.00    -0.360 A  
HETATM   28  C   UNL     1     -10.574  11.423  64.348  1.00  0.00    -0.403 A  
HETATM   29  F   UNL     1     -13.621  12.457  62.638  1.00  0.00     0.538 F  
HETATM   30  C   UNL     1     -13.046  12.582  64.911  1.00  0.00     0.218 A  
HETATM   31  C   UNL     1     -12.738  12.225  63.615  1.00  0.00    -0.411 A  
ENDBRANCH   8  25
BRANCH   6  32
HETATM   32  C   UNL     1     -10.390   9.148  67.203  1.00  0.00    -0.267 C  
BRANCH  32  33
HETATM   33  C   UNL     1      -9.869   8.232  66.080  1.00  0.00    -0.138 C  
BRANCH  33  34
HETATM   34  C   UNL     1      -9.604   6.779  66.525  1.00  0.00    -0.140 C  
HETATM   35  O   UNL     1     -10.675   5.900  66.179  1.00  0.00    -0.485 OA 
HETATM   36  H   UNL     1     -10.511   5.005  66.453  1.00  0.00     0.000 HD 
BRANCH  34  37
HETATM   37  C   UNL     1      -8.340   6.232  65.837  1.00  0.00    -0.142 C  
BRANCH  37  38
HETATM   38  C   UNL     1      -7.482   5.340  66.751  1.00  0.00    -0.087 C  
HETATM   39  H   UNL     1      -7.091   5.173  68.692  1.00  0.00     0.000 HD 
HETATM   40  O   UNL     1      -7.621   5.724  68.128  1.00  0.00    -0.083 OA 
BRANCH  38  41
HETATM   41  C   UNL     1      -7.923   3.881  66.643  1.00  0.00    -0.096 C  
HETATM   42  C   UNL     1      -7.130   3.093  65.627  1.00  0.00    -0.065 C  
HETATM   43  O   UNL     1      -5.808   3.370  65.608  1.00  0.00    -0.018 OA 
HETATM   44  O   UNL     1      -7.625   2.222  64.927  1.00  0.00    -0.066 OA 
ENDBRANCH  38  41
ENDBRANCH  37  38
ENDBRANCH  34  37
ENDBRANCH  33  34
ENDBRANCH  32  33
ENDBRANCH   6  32
TORSDOF 10
ENDMDL
MODEL      163
REMARK 921   NORMALIZED FREE ENERGY PREDICTED BY IDOCK:    0.40 KCAL/MOL
REMARK 922        TOTAL FREE ENERGY PREDICTED BY IDOCK:   -2.12 KCAL/MOL
REMARK 923 INTER-LIGAND FREE ENERGY PREDICTED BY IDOCK:   -0.23 KCAL/MOL
REMARK 924 INTRA-LIGAND FREE ENERGY PREDICTED BY IDOCK:   -1.89 KCAL/MOL
REMARK 927      BINDING AFFINITY PREDICTED BY RF-SCORE:    0.00 PKD
ROOT
HETATM    1  C   UNL     1     -12.650   6.602  70.031  1.00  0.00     0.952 C  
HETATM    2  C   UNL     1     -12.502   8.116  69.870  1.00  0.00     1.528 C  
HETATM    3  C   UNL     1     -11.174   8.711  70.357  1.00  0.00    -0.218 A  
HETATM    4  C   UNL     1     -13.754   8.829  70.385  1.00  0.00     1.226 C  
HETATM    5  C   UNL     1     -10.257   8.313  71.349  1.00  0.00    -0.263 A  
HETATM    6  N   UNL     1     -10.599   9.797  69.683  1.00  0.00    -0.224 NA 
HETATM    7  C   UNL     1      -9.012   9.050  71.093  1.00  0.00    -0.303 A  
HETATM    8  C   UNL     1      -9.278  10.020  70.108  1.00  0.00    -0.026 A  
ENDROOT
BRANCH   5   9
HETATM    9  C   UNL     1     -10.445   7.247  72.382  1.00  0.00    -0.229 C  
HETATM   10  O   UNL     1     -11.174   7.448  73.354  1.00  0.00    -0.285 OA 
HETATM   11  N   UNL     1      -9.760   6.061  72.152  1.00  0.00    -0.155 N  
HETATM   12  H   UNL     1      -9.143   6.034  71.341  1.00  0.00     0.000 HD 
BRANCH  11  13
HETATM   13  C   UNL     1      -9.840   4.883  72.942  1.00  0.00    -0.150 A  
HETATM   14  C   UNL     1     -11.077   3.166  74.148  1.00  0.00    -0.041 A  
HETATM   15  C   UNL     1      -9.890   2.534  74.509  1.00  0.00    -0.146 A  
HETATM   16  C   UNL     1      -8.654   4.217  73.280  1.00  0.00    -0.093 A  
HETATM   17  C   UNL     1     -11.051   4.338  73.377  1.00  0.00    -0.371 A  
HETATM   18  C   UNL     1      -8.677   3.066  74.082  1.00  0.00    -0.076 A  
ENDBRANCH  11  13
ENDBRANCH   5   9
BRANCH   7  19
HETATM   19  C   UNL     1      -7.672   8.865  71.715  1.00  0.00    -0.019 A  
HETATM   20  C   UNL     1      -7.480   9.076  73.095  1.00  0.00     0.538 A  
HETATM   21  C   UNL     1      -5.290   8.329  71.575  1.00  0.00    -0.034 A  
HETATM   22  C   UNL     1      -5.137   8.499  72.949  1.00  0.00    -0.042 A  
HETATM   23  C   UNL     1      -6.548   8.482  70.968  1.00  0.00    -0.048 A  
HETATM   24  C   UNL     1      -6.238   8.864  73.711  1.00  0.00    -0.019 A  
ENDBRANCH   7  19
BRANCH   8  25
HETATM   25  C   UNL     1      -8.411  11.138  69.582  1.00  0.00     0.615 A  
HETATM   26  C   UNL     1      -7.072  10.931  69.212  1.00  0.00    -0.124 A  
HETATM   27  C   UNL     1      -8.089  13.476  68.927  1.00  0.00     0.121 A  
HETATM   28  C   UNL     1      -8.900  12.447  69.437  1.00  0.00     1.219 A  
HETATM   29  F   UNL     1      -6.051  14.162  67.948  1.00  0.00    -0.108 F  
HETATM   30  C   UNL     1      -6.291  11.923  68.613  1.00  0.00    -0.058 A  
HETATM   31  C   UNL     1      -6.804  13.196  68.485  1.00  0.00    -0.099 A  
ENDBRANCH   8  25
BRANCH   6  32
HETATM   32  C   UNL     1     -11.325  10.659  68.739  1.00  0.00    -0.277 C  
BRANCH  32  33
HETATM   33  C   UNL     1     -11.128  10.332  67.247  1.00  0.00    -0.215 C  
BRANCH  33  34
HETATM   34  C   UNL     1     -10.579  11.506  66.411  1.00  0.00    -0.259 C  
HETATM   35  O   UNL     1      -9.905  11.067  65.232  1.00  0.00    -0.228 OA 
HETATM   36  H   UNL     1      -9.567  11.791  64.717  1.00  0.00     0.000 HD 
BRANCH  34  37
HETATM   37  C   UNL     1     -11.730  12.419  65.953  1.00  0.00    -0.476 C  
BRANCH  37  38
HETATM   38  C   UNL     1     -11.334  13.902  65.855  1.00  0.00    -0.313 C  
HETATM   39  H   UNL     1     -11.643  15.425  64.615  1.00  0.00     0.000 HD 
HETATM   40  O   UNL     1     -11.887  14.509  64.676  1.00  0.00    -0.413 OA 
BRANCH  38  41
HETATM   41  C   UNL     1     -11.870  14.681  67.055  1.00  0.00    -0.358 C  
HETATM   42  C   UNL     1     -10.791  15.414  67.818  1.00  0.00    -0.302 C  
HETATM   43  O   UNL     1      -9.849  15.993  67.043  1.00  0.00    -0.229 OA 
HETATM   44  O   UNL     1     -10.805  15.539  69.034  1.00  0.00    -0.227 OA 
ENDBRANCH  38  41
ENDBRANCH  37  38
ENDBRANCH  34  37
ENDBRANCH  33  34
ENDBRANCH  32  33
ENDBRANCH   6  32
TORSDOF 10
ENDMDL
MODEL      164
REMARK 921   NORMALIZED FREE ENERGY PREDICTED BY IDOCK:    0.42 KCAL/MOL
REMARK 922        TOTAL FREE ENERGY PREDICTED BY IDOCK:   -2.09 KCAL/MOL
REMARK 923 INTER-LIGAND FREE ENERGY PREDICTED BY IDOCK:   -3.85 KCAL/MOL
REMARK 924 INTRA-LIGAND FREE ENERGY PREDICTED BY IDOCK:    1.76 KCAL/MOL
REMARK 927      BINDING AFFINITY PREDICTED BY RF-SCORE:    0.00 PKD
ROOT
HETATM    1  C   UNL     1      -7.655  11.275  63.952  1.00  0.00     1.193 C  
HETATM    2  C   UNL     1      -8.985  11.791  64.506  1.00  0.00     0.483 C  
HETATM    3  C   UNL     1      -9.582  10.982  65.665  1.00  0.00    -0.226 A  
HETATM    4  C   UNL     1      -9.957  12.087  63.361  1.00  0.00    -0.384 C  
HETATM    5  C   UNL     1      -9.482   9.626  66.034  1.00  0.00    -0.284 A  
HETATM    6  N   UNL     1     -10.287  11.630  66.688  1.00  0.00    -0.215 NA 
HETATM    7  C   UNL     1      -9.949   9.531  67.423  1.00  0.00    -0.241 A  
HETATM    8  C   UNL     1     -10.517  10.770  67.775  1.00  0.00    -0.208 A  
ENDROOT
BRANCH   5   9
HETATM    9  C   UNL     1      -8.888   8.510  65.233  1.00  0.00    -0.100 C  
HETATM   10  O   UNL     1      -9.618   7.697  64.665  1.00  0.00     1.654 OA 
HETATM   11  N   UNL     1      -7.501   8.480  65.183  1.00  0.00    -0.088 N  
HETATM   12  H   UNL     1      -7.003   9.175  65.740  1.00  0.00     0.000 HD 
BRANCH  11  13
HETATM   13  C   UNL     1      -6.710   7.573  64.429  1.00  0.00    -0.048 A  
HETATM   14  C   UNL     1      -5.645   6.825  62.370  1.00  0.00    -0.035 A  
HETATM   15  C   UNL     1      -5.125   5.709  63.019  1.00  0.00    -0.013 A  
HETATM   16  C   UNL     1      -6.151   6.465  65.079  1.00  0.00    -0.030 A  
HETATM   17  C   UNL     1      -6.440   7.746  63.069  1.00  0.00    -0.071 A  
HETATM   18  C   UNL     1      -5.386   5.523  64.373  1.00  0.00    -0.013 A  
ENDBRANCH  11  13
ENDBRANCH   5   9
BRANCH   7  19
HETATM   19  C   UNL     1      -9.871   8.375  68.358  1.00  0.00    -0.192 A  
HETATM   20  C   UNL     1     -10.560   7.176  68.085  1.00  0.00    -0.241 A  
HETATM   21  C   UNL     1      -9.077   7.323  70.419  1.00  0.00    -0.155 A  
HETATM   22  C   UNL     1      -9.729   6.134  70.102  1.00  0.00    -0.194 A  
HETATM   23  C   UNL     1      -9.123   8.422  69.544  1.00  0.00    -0.153 A  
HETATM   24  C   UNL     1     -10.464   6.058  68.927  1.00  0.00    -0.309 A  
ENDBRANCH   7  19
BRANCH   8  25
HETATM   25  C   UNL     1     -11.276  11.178  69.014  1.00  0.00    -0.318 A  
HETATM   26  C   UNL     1     -12.217  10.332  69.624  1.00  0.00    -0.024 A  
HETATM   27  C   UNL     1     -11.781  12.792  70.785  1.00  0.00     0.368 A  
HETATM   28  C   UNL     1     -11.082  12.431  69.620  1.00  0.00     0.003 A  
HETATM   29  F   UNL     1     -13.249  12.204  72.541  1.00  0.00    -0.553 F  
HETATM   30  C   UNL     1     -12.841  10.643  70.835  1.00  0.00    -0.473 A  
HETATM   31  C   UNL     1     -12.626  11.881  71.403  1.00  0.00    -0.240 A  
ENDBRANCH   8  25
BRANCH   6  32
HETATM   32  C   UNL     1     -10.815  12.999  66.584  1.00  0.00    -0.275 C  
BRANCH  32  33
HETATM   33  C   UNL     1     -10.981  13.754  67.916  1.00  0.00    -0.270 C  
BRANCH  33  34
HETATM   34  C   UNL     1     -10.227  15.099  67.977  1.00  0.00    -0.230 C  
HETATM   35  O   UNL     1     -11.004  16.132  68.584  1.00  0.00    -0.297 OA 
HETATM   36  H   UNL     1     -10.540  16.960  68.621  1.00  0.00     0.000 HD 
BRANCH  34  37
HETATM   37  C   UNL     1      -8.945  14.955  68.816  1.00  0.00    -0.188 C  
BRANCH  37  38
HETATM   38  C   UNL     1      -8.261  16.297  69.125  1.00  0.00    -0.215 C  
HETATM   39  H   UNL     1      -6.590  16.926  69.997  1.00  0.00     0.000 HD 
HETATM   40  O   UNL     1      -7.012  16.098  69.806  1.00  0.00    -0.171 OA 
BRANCH  38  41
HETATM   41  C   UNL     1      -7.954  17.054  67.834  1.00  0.00    -0.192 C  
HETATM   42  C   UNL     1      -8.777  18.311  67.671  1.00  0.00    -0.256 C  
HETATM   43  O   UNL     1      -8.951  19.020  68.806  1.00  0.00    -0.347 OA 
HETATM   44  O   UNL     1      -9.191  18.699  66.587  1.00  0.00    -0.301 OA 
ENDBRANCH  38  41
ENDBRANCH  37  38
ENDBRANCH  34  37
ENDBRANCH  33  34
ENDBRANCH  32  33
ENDBRANCH   6  32
TORSDOF 10
ENDMDL
MODEL      165
REMARK 921   NORMALIZED FREE ENERGY PREDICTED BY IDOCK:    0.67 KCAL/MOL
REMARK 922        TOTAL FREE ENERGY PREDICTED BY IDOCK:   -1.69 KCAL/MOL
REMARK 923 INTER-LIGAND FREE ENERGY PREDICTED BY IDOCK:   -2.75 KCAL/MOL
REMARK 924 INTRA-LIGAND FREE ENERGY PREDICTED BY IDOCK:    1.07 KCAL/MOL
REMARK 927      BINDING AFFINITY PREDICTED BY RF-SCORE:    0.00 PKD
ROOT
HETATM    1  C   UNL     1     -11.514  10.504  67.833  1.00  0.00    -0.190 C  
HETATM    2  C   UNL     1     -10.663   9.285  67.471  1.00  0.00    -0.272 C  
HETATM    3  C   UNL     1      -9.399   9.080  68.317  1.00  0.00    -0.139 A  
HETATM    4  C   UNL     1     -10.440   9.226  65.957  1.00  0.00     0.184 C  
HETATM    5  C   UNL     1      -8.562   9.972  69.014  1.00  0.00    -0.153 A  
HETATM    6  N   UNL     1      -8.961   7.785  68.626  1.00  0.00    -0.134 NA 
HETATM    7  C   UNL     1      -7.754   9.161  69.934  1.00  0.00    -0.087 A  
HETATM    8  C   UNL     1      -7.963   7.806  69.616  1.00  0.00    -0.116 A  
ENDROOT
BRANCH   5   9
HETATM    9  C   UNL     1      -8.575  11.467  68.947  1.00  0.00    -0.014 C  
HETATM   10  O   UNL     1      -7.548  12.084  68.662  1.00  0.00    -0.122 OA 
HETATM   11  N   UNL     1      -9.797  12.068  69.217  1.00  0.00    -0.250 N  
HETATM   12  H   UNL     1     -10.563  11.455  69.496  1.00  0.00     0.000 HD 
BRANCH  11  13
HETATM   13  C   UNL     1     -10.080  13.458  69.140  1.00  0.00     0.246 A  
HETATM   14  C   UNL     1      -9.421  15.790  68.892  1.00  0.00    -0.229 A  
HETATM   15  C   UNL     1     -10.748  16.198  68.999  1.00  0.00    -0.287 A  
HETATM   16  C   UNL     1     -11.415  13.879  69.209  1.00  0.00    -0.348 A  
HETATM   17  C   UNL     1      -9.089  14.430  68.971  1.00  0.00     0.000 A  
HETATM   18  C   UNL     1     -11.745  15.242  69.167  1.00  0.00    -0.355 A  
ENDBRANCH  11  13
ENDBRANCH   5   9
BRANCH   7  19
HETATM   19  C   UNL     1      -6.855   9.611  71.033  1.00  0.00    -0.002 A  
HETATM   20  C   UNL     1      -6.156  10.830  70.941  1.00  0.00     0.071 A  
HETATM   21  C   UNL     1      -5.793   9.290  73.213  1.00  0.00     0.100 A  
HETATM   22  C   UNL     1      -5.150  10.521  73.117  1.00  0.00     0.227 A  
HETATM   23  C   UNL     1      -6.658   8.851  72.196  1.00  0.00     0.001 A  
HETATM   24  C   UNL     1      -5.340  11.297  71.983  1.00  0.00     0.375 A  
ENDBRANCH   7  19
BRANCH   8  25
HETATM   25  C   UNL     1      -7.279   6.565  70.135  1.00  0.00    -0.080 A  
HETATM   26  C   UNL     1      -7.997   5.509  70.720  1.00  0.00    -0.111 A  
HETATM   27  C   UNL     1      -5.261   5.235  70.532  1.00  0.00    -0.004 A  
HETATM   28  C   UNL     1      -5.885   6.404  70.062  1.00  0.00    -0.018 A  
HETATM   29  F   UNL     1      -5.438   3.047  71.406  1.00  0.00    -0.006 F  
HETATM   30  C   UNL     1      -7.397   4.304  71.098  1.00  0.00    -0.044 A  
HETATM   31  C   UNL     1      -6.026   4.181  71.011  1.00  0.00    -0.014 A  
ENDBRANCH   8  25
BRANCH   6  32
HETATM   32  C   UNL     1      -9.409   6.574  67.922  1.00  0.00    -0.111 C  
BRANCH  32  33
HETATM   33  C   UNL     1      -8.854   6.384  66.498  1.00  0.00    -0.140 C  
BRANCH  33  34
HETATM   34  C   UNL     1      -7.340   6.093  66.445  1.00  0.00    -0.085 C  
HETATM   35  O   UNL     1      -6.952   5.064  67.354  1.00  0.00    -0.062 OA 
HETATM   36  H   UNL     1      -6.019   4.884  67.321  1.00  0.00     0.000 HD 
BRANCH  34  37
HETATM   37  C   UNL     1      -6.938   5.619  65.037  1.00  0.00    -0.059 C  
BRANCH  37  38
HETATM   38  C   UNL     1      -7.168   4.115  64.808  1.00  0.00    -0.070 C  
HETATM   39  H   UNL     1      -6.743   2.408  65.731  1.00  0.00     0.000 HD 
HETATM   40  O   UNL     1      -6.602   3.336  65.873  1.00  0.00    -0.038 OA 
BRANCH  38  41
HETATM   41  C   UNL     1      -8.663   3.802  64.765  1.00  0.00    -0.114 C  
HETATM   42  C   UNL     1      -9.111   3.220  63.445  1.00  0.00    -0.092 C  
HETATM   43  O   UNL     1      -8.252   2.332  62.900  1.00  0.00    -0.068 OA 
HETATM   44  O   UNL     1     -10.197   3.472  62.942  1.00  0.00    -0.145 OA 
ENDBRANCH  38  41
ENDBRANCH  37  38
ENDBRANCH  34  37
ENDBRANCH  33  34
ENDBRANCH  32  33
ENDBRANCH   6  32
TORSDOF 10
ENDMDL
MODEL      166
REMARK 921   NORMALIZED FREE ENERGY PREDICTED BY IDOCK:    0.86 KCAL/MOL
REMARK 922        TOTAL FREE ENERGY PREDICTED BY IDOCK:   -1.39 KCAL/MOL
REMARK 923 INTER-LIGAND FREE ENERGY PREDICTED BY IDOCK:   -0.54 KCAL/MOL
REMARK 924 INTRA-LIGAND FREE ENERGY PREDICTED BY IDOCK:   -0.85 KCAL/MOL
REMARK 927      BINDING AFFINITY PREDICTED BY RF-SCORE:    0.00 PKD
ROOT
HETATM    1  C   UNL     1     -11.519  10.508  67.830  1.00  0.00    -0.143 C  
HETATM    2  C   UNL     1     -10.687   9.274  67.473  1.00  0.00    -0.272 C  
HETATM    3  C   UNL     1      -9.427   9.054  68.319  1.00  0.00    -0.146 A  
HETATM    4  C   UNL     1     -10.467   9.204  65.960  1.00  0.00     0.286 C  
HETATM    5  C   UNL     1      -8.575   9.936  69.012  1.00  0.00    -0.149 A  
HETATM    6  N   UNL     1      -9.009   7.753  68.635  1.00  0.00    -0.134 NA 
HETATM    7  C   UNL     1      -7.780   9.117  69.935  1.00  0.00    -0.087 A  
HETATM    8  C   UNL     1      -8.010   7.764  69.624  1.00  0.00    -0.116 A  
ENDROOT
BRANCH   5   9
HETATM    9  C   UNL     1      -8.565  11.430  68.937  1.00  0.00    -0.014 C  
HETATM   10  O   UNL     1      -9.487  12.082  69.428  1.00  0.00     0.523 OA 
HETATM   11  N   UNL     1      -7.466  11.992  68.300  1.00  0.00    -0.098 N  
HETATM   12  H   UNL     1      -6.794  11.347  67.884  1.00  0.00     0.000 HD 
BRANCH  11  13
HETATM   13  C   UNL     1      -7.191  13.379  68.173  1.00  0.00    -0.113 A  
HETATM   14  C   UNL     1      -7.028  15.445  66.891  1.00  0.00     0.277 A  
HETATM   15  C   UNL     1      -6.622  16.142  68.026  1.00  0.00    -0.142 A  
HETATM   16  C   UNL     1      -6.818  14.100  69.315  1.00  0.00    -0.118 A  
HETATM   17  C   UNL     1      -7.302  14.071  66.963  1.00  0.00     0.378 A  
HETATM   18  C   UNL     1      -6.509  15.466  69.238  1.00  0.00    -0.137 A  
ENDBRANCH  11  13
ENDBRANCH   5   9
BRANCH   7  19
HETATM   19  C   UNL     1      -6.873   9.559  71.032  1.00  0.00    -0.041 A  
HETATM   20  C   UNL     1      -6.145  10.760  70.928  1.00  0.00     0.071 A  
HETATM   21  C   UNL     1      -5.824   9.237  73.218  1.00  0.00     0.100 A  
HETATM   22  C   UNL     1      -5.152  10.452  73.110  1.00  0.00     0.175 A  
HETATM   23  C   UNL     1      -6.697   8.808  72.204  1.00  0.00    -0.036 A  
HETATM   24  C   UNL     1      -5.321  11.219  71.966  1.00  0.00     0.375 A  
ENDBRANCH   7  19
BRANCH   8  25
HETATM   25  C   UNL     1      -7.345   6.515  70.149  1.00  0.00    -0.089 A  
HETATM   26  C   UNL     1      -8.079   5.472  70.737  1.00  0.00    -0.113 A  
HETATM   27  C   UNL     1      -5.348   5.157  70.553  1.00  0.00    -0.004 A  
HETATM   28  C   UNL     1      -5.954   6.334  70.078  1.00  0.00    -0.026 A  
HETATM   29  F   UNL     1      -5.557   2.975  71.436  1.00  0.00    -0.007 F  
HETATM   30  C   UNL     1      -7.497   4.260  71.121  1.00  0.00    -0.051 A  
HETATM   31  C   UNL     1      -6.128   4.116  71.036  1.00  0.00    -0.014 A  
ENDBRANCH   8  25
BRANCH   6  32
HETATM   32  C   UNL     1      -9.476   6.546  67.937  1.00  0.00    -0.120 C  
BRANCH  32  33
HETATM   33  C   UNL     1      -8.928   6.343  66.512  1.00  0.00    -0.153 C  
BRANCH  33  34
HETATM   34  C   UNL     1      -9.687   5.280  65.691  1.00  0.00    -0.007 C  
HETATM   35  O   UNL     1     -11.003   5.705  65.336  1.00  0.00     0.162 OA 
HETATM   36  H   UNL     1     -11.470   5.050  64.829  1.00  0.00     0.000 HD 
BRANCH  34  37
HETATM   37  C   UNL     1      -8.942   4.991  64.376  1.00  0.00    -0.034 C  
BRANCH  37  38
HETATM   38  C   UNL     1      -7.463   5.416  64.403  1.00  0.00    -0.067 C  
HETATM   39  H   UNL     1      -5.691   4.582  64.071  1.00  0.00     0.000 HD 
HETATM   40  O   UNL     1      -6.603   4.320  64.055  1.00  0.00    -0.040 OA 
BRANCH  38  41
HETATM   41  C   UNL     1      -7.207   6.529  63.389  1.00  0.00    -0.064 C  
HETATM   42  C   UNL     1      -7.615   7.895  63.889  1.00  0.00    -0.121 C  
HETATM   43  O   UNL     1      -7.328   8.128  65.188  1.00  0.00    -0.073 OA 
HETATM   44  O   UNL     1      -8.100   8.752  63.163  1.00  0.00    -0.159 OA 
ENDBRANCH  38  41
ENDBRANCH  37  38
ENDBRANCH  34  37
ENDBRANCH  33  34
ENDBRANCH  32  33
ENDBRANCH   6  32
TORSDOF 10
ENDMDL
MODEL      167
REMARK 921   NORMALIZED FREE ENERGY PREDICTED BY IDOCK:    0.89 KCAL/MOL
REMARK 922        TOTAL FREE ENERGY PREDICTED BY IDOCK:   -1.34 KCAL/MOL
REMARK 923 INTER-LIGAND FREE ENERGY PREDICTED BY IDOCK:   -1.16 KCAL/MOL
REMARK 924 INTRA-LIGAND FREE ENERGY PREDICTED BY IDOCK:   -0.18 KCAL/MOL
REMARK 927      BINDING AFFINITY PREDICTED BY RF-SCORE:    0.00 PKD
ROOT
HETATM    1  C   UNL     1      -6.586   9.837  69.577  1.00  0.00    -0.051 C  
HETATM    2  C   UNL     1      -8.038   9.651  69.134  1.00  0.00    -0.104 C  
HETATM    3  C   UNL     1      -8.679  10.856  68.433  1.00  0.00    -0.147 A  
HETATM    4  C   UNL     1      -8.867   9.053  70.273  1.00  0.00    -0.210 C  
HETATM    5  C   UNL     1      -8.452  12.243  68.519  1.00  0.00    -0.077 A  
HETATM    6  N   UNL     1      -9.604  10.659  67.398  1.00  0.00    -0.157 NA 
HETATM    7  C   UNL     1      -9.095  12.850  67.346  1.00  0.00    -0.197 A  
HETATM    8  C   UNL     1      -9.869  11.859  66.715  1.00  0.00    -0.197 A  
ENDROOT
BRANCH   5   9
HETATM    9  C   UNL     1      -7.605  12.962  69.521  1.00  0.00     0.726 C  
HETATM   10  O   UNL     1      -7.046  12.337  70.423  1.00  0.00     0.792 OA 
HETATM   11  N   UNL     1      -7.504  14.336  69.346  1.00  0.00    -0.335 N  
HETATM   12  H   UNL     1      -8.059  14.748  68.596  1.00  0.00     0.000 HD 
BRANCH  11  13
HETATM   13  C   UNL     1      -6.702  15.221  70.115  1.00  0.00    -0.037 A  
HETATM   14  C   UNL     1      -5.242  15.736  71.996  1.00  0.00     0.205 A  
HETATM   15  C   UNL     1      -5.130  17.058  71.574  1.00  0.00     0.147 A  
HETATM   16  C   UNL     1      -6.552  16.544  69.681  1.00  0.00    -0.169 A  
HETATM   17  C   UNL     1      -6.030  14.826  71.276  1.00  0.00     0.089 A  
HETATM   18  C   UNL     1      -5.794  17.465  70.420  1.00  0.00    -0.029 A  
ENDBRANCH  11  13
ENDBRANCH   5   9
BRANCH   7  19
HETATM   19  C   UNL     1      -8.996  14.249  66.846  1.00  0.00    -0.255 A  
HETATM   20  C   UNL     1     -10.135  15.075  66.776  1.00  0.00    -0.257 A  
HETATM   21  C   UNL     1      -7.715  16.124  65.935  1.00  0.00     0.984 A  
HETATM   22  C   UNL     1      -8.848  16.933  65.921  1.00  0.00    -0.067 A  
HETATM   23  C   UNL     1      -7.781  14.805  66.418  1.00  0.00     1.235 A  
HETATM   24  C   UNL     1     -10.058  16.410  66.352  1.00  0.00    -0.328 A  
ENDBRANCH   7  19
BRANCH   8  25
HETATM   25  C   UNL     1     -10.845  11.966  65.569  1.00  0.00    -0.343 A  
HETATM   26  C   UNL     1     -10.678  11.240  64.378  1.00  0.00    -0.407 A  
HETATM   27  C   UNL     1     -12.885  12.879  64.567  1.00  0.00    -0.273 A  
HETATM   28  C   UNL     1     -11.972  12.802  65.634  1.00  0.00    -0.503 A  
HETATM   29  F   UNL     1     -13.623  12.098  62.462  1.00  0.00     0.473 F  
HETATM   30  C   UNL     1     -11.630  11.235  63.355  1.00  0.00     0.153 A  
HETATM   31  C   UNL     1     -12.726  12.067  63.453  1.00  0.00    -0.398 A  
ENDBRANCH   8  25
BRANCH   6  32
HETATM   32  C   UNL     1     -10.292   9.385  67.139  1.00  0.00    -0.258 C  
BRANCH  32  33
HETATM   33  C   UNL     1      -9.665   8.497  66.048  1.00  0.00    -0.195 C  
BRANCH  33  34
HETATM   34  C   UNL     1      -9.643   6.994  66.394  1.00  0.00    -0.099 C  
HETATM   35  O   UNL     1     -10.882   6.349  66.098  1.00  0.00    -0.364 OA 
HETATM   36  H   UNL     1     -10.869   5.423  66.311  1.00  0.00     0.000 HD 
BRANCH  34  37
HETATM   37  C   UNL     1      -8.558   6.273  65.575  1.00  0.00    -0.124 C  
BRANCH  37  38
HETATM   38  C   UNL     1      -7.139   6.812  65.828  1.00  0.00    -0.072 C  
HETATM   39  H   UNL     1      -5.460   6.178  66.680  1.00  0.00     0.000 HD 
HETATM   40  O   UNL     1      -6.335   5.846  66.523  1.00  0.00    -0.036 OA 
BRANCH  38  41
HETATM   41  C   UNL     1      -6.437   7.116  64.506  1.00  0.00    -0.037 C  
HETATM   42  C   UNL     1      -6.586   8.555  64.070  1.00  0.00    -0.075 C  
HETATM   43  O   UNL     1      -6.495   9.458  65.071  1.00  0.00    -0.072 OA 
HETATM   44  O   UNL     1      -6.705   8.886  62.900  1.00  0.00    -0.091 OA 
ENDBRANCH  38  41
ENDBRANCH  37  38
ENDBRANCH  34  37
ENDBRANCH  33  34
ENDBRANCH  32  33
ENDBRANCH   6  32
TORSDOF 10
ENDMDL
MODEL      168
REMARK 921   NORMALIZED FREE ENERGY PREDICTED BY IDOCK:    1.46 KCAL/MOL
REMARK 922        TOTAL FREE ENERGY PREDICTED BY IDOCK:   -0.44 KCAL/MOL
REMARK 923 INTER-LIGAND FREE ENERGY PREDICTED BY IDOCK:    0.18 KCAL/MOL
REMARK 924 INTRA-LIGAND FREE ENERGY PREDICTED BY IDOCK:   -0.62 KCAL/MOL
REMARK 927      BINDING AFFINITY PREDICTED BY RF-SCORE:    0.00 PKD
ROOT
HETATM    1  C   UNL     1     -12.090  10.383  68.012  1.00  0.00     1.265 C  
HETATM    2  C   UNL     1     -11.274   9.151  67.618  1.00  0.00     0.418 C  
HETATM    3  C   UNL     1      -9.922   8.992  68.326  1.00  0.00    -0.173 A  
HETATM    4  C   UNL     1     -11.221   9.016  66.093  1.00  0.00     2.322 C  
HETATM    5  C   UNL     1      -9.020   9.921  68.880  1.00  0.00    -0.153 A  
HETATM    6  N   UNL     1      -9.440   7.716  68.649  1.00  0.00    -0.151 NA 
HETATM    7  C   UNL     1      -8.108   9.160  69.744  1.00  0.00    -0.111 A  
HETATM    8  C   UNL     1      -8.339   7.790  69.518  1.00  0.00    -0.129 A  
ENDROOT
BRANCH   5   9
HETATM    9  C   UNL     1      -9.054  11.411  68.741  1.00  0.00    -0.089 C  
HETATM   10  O   UNL     1      -8.138  12.001  68.169  1.00  0.00    -0.143 OA 
HETATM   11  N   UNL     1     -10.167  12.039  69.285  1.00  0.00    -0.401 N  
HETATM   12  H   UNL     1     -10.833  11.448  69.785  1.00  0.00     0.000 HD 
BRANCH  11  13
HETATM   13  C   UNL     1     -10.464  13.425  69.212  1.00  0.00     0.164 A  
HETATM   14  C   UNL     1      -9.979  15.708  68.513  1.00  0.00    -0.211 A  
HETATM   15  C   UNL     1     -11.144  16.165  69.121  1.00  0.00    -0.329 A  
HETATM   16  C   UNL     1     -11.652  13.892  69.788  1.00  0.00    -0.335 A  
HETATM   17  C   UNL     1      -9.636  14.349  68.566  1.00  0.00    -0.217 A  
HETATM   18  C   UNL     1     -11.978  15.257  69.768  1.00  0.00    -0.374 A  
ENDBRANCH  11  13
ENDBRANCH   5   9
BRANCH   7  19
HETATM   19  C   UNL     1      -7.096   9.668  70.712  1.00  0.00    -0.080 A  
HETATM   20  C   UNL     1      -6.881   9.016  71.942  1.00  0.00     0.043 A  
HETATM   21  C   UNL     1      -5.384  11.279  71.389  1.00  0.00     0.037 A  
HETATM   22  C   UNL     1      -5.159  10.589  72.578  1.00  0.00     0.140 A  
HETATM   23  C   UNL     1      -6.322  10.809  70.453  1.00  0.00    -0.108 A  
HETATM   24  C   UNL     1      -5.903   9.449  72.849  1.00  0.00     0.158 A  
ENDBRANCH   7  19
BRANCH   8  25
HETATM   25  C   UNL     1      -7.590   6.580  70.019  1.00  0.00    -0.100 A  
HETATM   26  C   UNL     1      -8.254   5.456  70.540  1.00  0.00    -0.110 A  
HETATM   27  C   UNL     1      -5.501   5.373  70.443  1.00  0.00    -0.005 A  
HETATM   28  C   UNL     1      -6.187   6.515  69.992  1.00  0.00    -0.035 A  
HETATM   29  F   UNL     1      -5.558   3.147  71.234  1.00  0.00    -0.010 F  
HETATM   30  C   UNL     1      -7.586   4.282  70.898  1.00  0.00    -0.052 A  
HETATM   31  C   UNL     1      -6.208   4.253  70.857  1.00  0.00    -0.015 A  
ENDBRANCH   8  25
BRANCH   6  32
HETATM   32  C   UNL     1      -9.953   6.469  68.061  1.00  0.00    -0.134 C  
BRANCH  32  33
HETATM   33  C   UNL     1      -9.659   6.266  66.563  1.00  0.00    -0.183 C  
BRANCH  33  34
HETATM   34  C   UNL     1      -8.245   6.710  66.133  1.00  0.00    -0.124 C  
HETATM   35  O   UNL     1      -7.230   5.819  66.596  1.00  0.00    -0.071 OA 
HETATM   36  H   UNL     1      -6.360   6.091  66.331  1.00  0.00     0.000 HD 
BRANCH  34  37
HETATM   37  C   UNL     1      -8.140   6.744  64.598  1.00  0.00    -0.086 C  
BRANCH  37  38
HETATM   38  C   UNL     1      -6.974   7.604  64.082  1.00  0.00    -0.061 C  
HETATM   39  H   UNL     1      -5.735   7.618  62.528  1.00  0.00     0.000 HD 
HETATM   40  O   UNL     1      -6.455   7.087  62.846  1.00  0.00    -0.046 OA 
BRANCH  38  41
HETATM   41  C   UNL     1      -7.440   9.034  63.811  1.00  0.00    -0.107 C  
HETATM   42  C   UNL     1      -7.145   9.982  64.950  1.00  0.00    -0.136 C  
HETATM   43  O   UNL     1      -5.943   9.797  65.538  1.00  0.00    -0.062 OA 
HETATM   44  O   UNL     1      -7.896  10.892  65.270  1.00  0.00    -0.030 OA 
ENDBRANCH  38  41
ENDBRANCH  37  38
ENDBRANCH  34  37
ENDBRANCH  33  34
ENDBRANCH  32  33
ENDBRANCH   6  32
TORSDOF 10
ENDMDL
MODEL      169
REMARK 921   NORMALIZED FREE ENERGY PREDICTED BY IDOCK:    1.62 KCAL/MOL
REMARK 922        TOTAL FREE ENERGY PREDICTED BY IDOCK:   -0.18 KCAL/MOL
REMARK 923 INTER-LIGAND FREE ENERGY PREDICTED BY IDOCK:   -1.76 KCAL/MOL
REMARK 924 INTRA-LIGAND FREE ENERGY PREDICTED BY IDOCK:    1.57 KCAL/MOL
REMARK 927      BINDING AFFINITY PREDICTED BY RF-SCORE:    0.00 PKD
ROOT
HETATM    1  C   UNL     1      -5.388  11.972  70.307  1.00  0.00    -0.115 C  
HETATM    2  C   UNL     1      -5.853  10.522  70.453  1.00  0.00    -0.101 C  
HETATM    3  C   UNL     1      -6.415   9.872  69.182  1.00  0.00    -0.048 A  
HETATM    4  C   UNL     1      -6.734  10.372  71.696  1.00  0.00     1.531 C  
HETATM    5  C   UNL     1      -7.062  10.396  68.047  1.00  0.00    -0.082 A  
HETATM    6  N   UNL     1      -6.200   8.509  68.934  1.00  0.00    -0.044 NA 
HETATM    7  C   UNL     1      -7.017   9.352  67.015  1.00  0.00    -0.085 A  
HETATM    8  C   UNL     1      -6.551   8.168  67.616  1.00  0.00    -0.058 A  
ENDROOT
BRANCH   5   9
HETATM    9  C   UNL     1      -7.575  11.789  67.859  1.00  0.00    -0.121 C  
HETATM   10  O   UNL     1      -8.782  12.021  67.932  1.00  0.00    -0.154 OA 
HETATM   11  N   UNL     1      -6.609  12.757  67.614  1.00  0.00    -0.136 N  
HETATM   12  H   UNL     1      -5.645  12.434  67.520  1.00  0.00     0.000 HD 
BRANCH  11  13
HETATM   13  C   UNL     1      -6.837  14.152  67.481  1.00  0.00    -0.130 A  
HETATM   14  C   UNL     1      -6.106  16.476  67.499  1.00  0.00    -0.175 A  
HETATM   15  C   UNL     1      -7.394  16.906  67.194  1.00  0.00    -0.213 A  
HETATM   16  C   UNL     1      -8.121  14.595  67.138  1.00  0.00    -0.213 A  
HETATM   17  C   UNL     1      -5.832  15.108  67.650  1.00  0.00    -0.078 A  
HETATM   18  C   UNL     1      -8.406  15.965  67.023  1.00  0.00    -0.255 A  
ENDBRANCH  11  13
ENDBRANCH   5   9
BRANCH   7  19
HETATM   19  C   UNL     1      -7.377   9.447  65.573  1.00  0.00    -0.088 A  
HETATM   20  C   UNL     1      -8.316   8.565  65.002  1.00  0.00    -0.175 A  
HETATM   21  C   UNL     1      -7.147  10.463  63.360  1.00  0.00    -0.027 A  
HETATM   22  C   UNL     1      -8.112   9.610  62.832  1.00  0.00    -0.140 A  
HETATM   23  C   UNL     1      -6.803  10.403  64.721  1.00  0.00    -0.028 A  
HETATM   24  C   UNL     1      -8.705   8.665  63.658  1.00  0.00     0.096 A  
ENDBRANCH   7  19
BRANCH   8  25
HETATM   25  C   UNL     1      -6.455   6.767  67.065  1.00  0.00    -0.043 A  
HETATM   26  C   UNL     1      -5.253   6.039  67.086  1.00  0.00    -0.005 A  
HETATM   27  C   UNL     1      -7.466   4.804  66.006  1.00  0.00    -0.078 A  
HETATM   28  C   UNL     1      -7.564   6.117  66.498  1.00  0.00    -0.094 A  
HETATM   29  F   UNL     1      -6.203   2.827  65.722  1.00  0.00    -0.022 F  
HETATM   30  C   UNL     1      -5.171   4.701  66.690  1.00  0.00    -0.009 A  
HETATM   31  C   UNL     1      -6.281   4.095  66.140  1.00  0.00    -0.032 A  
ENDBRANCH   8  25
BRANCH   6  32
HETATM   32  C   UNL     1      -5.769   7.543  69.956  1.00  0.00    -0.024 C  
BRANCH  32  33
HETATM   33  C   UNL     1      -6.775   7.280  71.092  1.00  0.00    -0.044 C  
BRANCH  33  34
HETATM   34  C   UNL     1      -6.120   6.976  72.456  1.00  0.00    -0.041 C  
HETATM   35  O   UNL     1      -7.071   6.943  73.521  1.00  0.00    -0.075 OA 
HETATM   36  H   UNL     1      -6.667   6.756  74.360  1.00  0.00     0.000 HD 
BRANCH  34  37
HETATM   37  C   UNL     1      -5.438   5.597  72.425  1.00  0.00    -0.018 C  
BRANCH  37  38
HETATM   38  C   UNL     1      -6.432   4.422  72.442  1.00  0.00    -0.022 C  
HETATM   39  H   UNL     1      -7.039   3.032  73.726  1.00  0.00     0.000 HD 
HETATM   40  O   UNL     1      -6.427   3.757  73.715  1.00  0.00    -0.033 OA 
BRANCH  38  41
HETATM   41  C   UNL     1      -7.855   4.919  72.199  1.00  0.00    -0.109 C  
HETATM   42  C   UNL     1      -8.353   4.639  70.800  1.00  0.00    -0.092 C  
HETATM   43  O   UNL     1      -8.000   3.431  70.309  1.00  0.00    -0.046 OA 
HETATM   44  O   UNL     1      -9.079   5.407  70.185  1.00  0.00    -0.130 OA 
ENDBRANCH  38  41
ENDBRANCH  37  38
ENDBRANCH  34  37
ENDBRANCH  33  34
ENDBRANCH  32  33
ENDBRANCH   6  32
TORSDOF 10
ENDMDL
MODEL      170
REMARK 921   NORMALIZED FREE ENERGY PREDICTED BY IDOCK:    2.18 KCAL/MOL
REMARK 922        TOTAL FREE ENERGY PREDICTED BY IDOCK:    0.70 KCAL/MOL
REMARK 923 INTER-LIGAND FREE ENERGY PREDICTED BY IDOCK:    0.63 KCAL/MOL
REMARK 924 INTRA-LIGAND FREE ENERGY PREDICTED BY IDOCK:    0.07 KCAL/MOL
REMARK 927      BINDING AFFINITY PREDICTED BY RF-SCORE:    0.00 PKD
ROOT
HETATM    1  C   UNL     1     -10.162  14.089  70.731  1.00  0.00     2.643 C  
HETATM    2  C   UNL     1     -11.079  12.866  70.663  1.00  0.00     1.701 C  
HETATM    3  C   UNL     1     -10.841  11.922  69.478  1.00  0.00     0.050 A  
HETATM    4  C   UNL     1     -12.537  13.285  70.870  1.00  0.00    -0.386 C  
HETATM    5  C   UNL     1     -10.334  12.127  68.180  1.00  0.00    -0.214 A  
HETATM    6  N   UNL     1     -11.015  10.539  69.632  1.00  0.00    -0.264 NA 
HETATM    7  C   UNL     1      -9.992  10.802  67.646  1.00  0.00    -0.199 A  
HETATM    8  C   UNL     1     -10.498   9.833  68.532  1.00  0.00    -0.210 A  
ENDROOT
BRANCH   5   9
HETATM    9  C   UNL     1     -10.059  13.437  67.511  1.00  0.00    -0.227 C  
HETATM   10  O   UNL     1      -8.911  13.877  67.457  1.00  0.00    -0.175 OA 
HETATM   11  N   UNL     1     -11.167  14.080  66.974  1.00  0.00    -0.304 N  
HETATM   12  H   UNL     1     -12.076  13.644  67.131  1.00  0.00     0.000 HD 
BRANCH  11  13
HETATM   13  C   UNL     1     -11.152  15.288  66.227  1.00  0.00    -0.273 A  
HETATM   14  C   UNL     1     -10.742  17.677  65.985  1.00  0.00    -0.117 A  
HETATM   15  C   UNL     1     -11.158  17.635  64.657  1.00  0.00     1.570 A  
HETATM   16  C   UNL     1     -11.533  15.252  64.879  1.00  0.00    -0.343 A  
HETATM   17  C   UNL     1     -10.748  16.513  66.767  1.00  0.00    -0.155 A  
HETATM   18  C   UNL     1     -11.563  16.423  64.106  1.00  0.00     0.351 A  
ENDBRANCH  11  13
ENDBRANCH   5   9
BRANCH   7  19
HETATM   19  C   UNL     1      -9.244  10.460  66.404  1.00  0.00    -0.187 A  
HETATM   20  C   UNL     1      -9.826  10.647  65.135  1.00  0.00    -0.344 A  
HETATM   21  C   UNL     1      -7.263   9.607  65.251  1.00  0.00    -0.113 A  
HETATM   22  C   UNL     1      -7.844   9.845  64.008  1.00  0.00    -0.145 A  
HETATM   23  C   UNL     1      -7.943   9.936  66.436  1.00  0.00    -0.111 A  
HETATM   24  C   UNL     1      -9.125  10.376  63.951  1.00  0.00    -0.272 A  
ENDBRANCH   7  19
BRANCH   8  25
HETATM   25  C   UNL     1     -10.564   8.331  68.402  1.00  0.00    -0.148 A  
HETATM   26  C   UNL     1      -9.721   7.622  67.530  1.00  0.00    -0.197 A  
HETATM   27  C   UNL     1     -11.515   6.163  69.029  1.00  0.00    -0.067 A  
HETATM   28  C   UNL     1     -11.477   7.564  69.145  1.00  0.00     0.471 A  
HETATM   29  F   UNL     1     -10.595   4.169  68.159  1.00  0.00     0.190 F  
HETATM   30  C   UNL     1      -9.685   6.225  67.482  1.00  0.00    -0.129 A  
HETATM   31  C   UNL     1     -10.594   5.504  68.227  1.00  0.00    -0.136 A  
ENDBRANCH   8  25
BRANCH   6  32
HETATM   32  C   UNL     1     -11.746   9.921  70.749  1.00  0.00    -0.341 C  
BRANCH  32  33
HETATM   33  C   UNL     1     -11.022   8.764  71.463  1.00  0.00    -0.377 C  
BRANCH  33  34
HETATM   34  C   UNL     1      -9.515   9.007  71.687  1.00  0.00    -0.223 C  
HETATM   35  O   UNL     1      -9.123   8.782  73.041  1.00  0.00    -0.279 OA 
HETATM   36  H   UNL     1      -8.195   8.931  73.179  1.00  0.00     0.000 HD 
BRANCH  34  37
HETATM   37  C   UNL     1      -8.685   8.046  70.817  1.00  0.00    -0.139 C  
BRANCH  37  38
HETATM   38  C   UNL     1      -7.215   8.472  70.664  1.00  0.00    -0.052 C  
HETATM   39  H   UNL     1      -5.641   8.764  71.842  1.00  0.00     0.000 HD 
HETATM   40  O   UNL     1      -6.548   8.500  71.936  1.00  0.00    -0.067 OA 
BRANCH  38  41
HETATM   41  C   UNL     1      -6.458   7.483  69.781  1.00  0.00    -0.035 C  
HETATM   42  C   UNL     1      -5.943   8.100  68.501  1.00  0.00    -0.041 C  
HETATM   43  O   UNL     1      -5.449   9.349  68.638  1.00  0.00    -0.037 OA 
HETATM   44  O   UNL     1      -5.906   7.495  67.439  1.00  0.00    -0.033 OA 
ENDBRANCH  38  41
ENDBRANCH  37  38
ENDBRANCH  34  37
ENDBRANCH  33  34
ENDBRANCH  32  33
ENDBRANCH   6  32
TORSDOF 10
ENDMDL
MODEL      171
REMARK 921   NORMALIZED FREE ENERGY PREDICTED BY IDOCK:    2.65 KCAL/MOL
REMARK 922        TOTAL FREE ENERGY PREDICTED BY IDOCK:    1.44 KCAL/MOL
REMARK 923 INTER-LIGAND FREE ENERGY PREDICTED BY IDOCK:    1.28 KCAL/MOL
REMARK 924 INTRA-LIGAND FREE ENERGY PREDICTED BY IDOCK:    0.17 KCAL/MOL
REMARK 927      BINDING AFFINITY PREDICTED BY RF-SCORE:    0.00 PKD
ROOT
HETATM    1  C   UNL     1      -9.067  11.257  64.449  1.00  0.00     0.014 C  
HETATM    2  C   UNL     1      -8.296  10.526  65.550  1.00  0.00    -0.170 C  
HETATM    3  C   UNL     1      -8.876  10.651  66.965  1.00  0.00    -0.137 A  
HETATM    4  C   UNL     1      -6.800  10.828  65.439  1.00  0.00     0.066 C  
HETATM    5  C   UNL     1      -9.646  11.648  67.596  1.00  0.00    -0.184 A  
HETATM    6  N   UNL     1      -8.789   9.576  67.861  1.00  0.00    -0.120 NA 
HETATM    7  C   UNL     1     -10.212  11.039  68.808  1.00  0.00    -0.211 A  
HETATM    8  C   UNL     1      -9.600   9.785  68.989  1.00  0.00    -0.177 A  
ENDROOT
BRANCH   5   9
HETATM    9  C   UNL     1      -9.955  13.018  67.079  1.00  0.00    -0.242 C  
HETATM   10  O   UNL     1      -9.450  14.008  67.608  1.00  0.00    -0.200 OA 
HETATM   11  N   UNL     1     -10.818  13.068  65.992  1.00  0.00    -0.270 N  
HETATM   12  H   UNL     1     -11.216  12.183  65.677  1.00  0.00     0.000 HD 
BRANCH  11  13
HETATM   13  C   UNL     1     -11.197  14.236  65.280  1.00  0.00    -0.337 A  
HETATM   14  C   UNL     1     -10.971  16.595  64.713  1.00  0.00    -0.123 A  
HETATM   15  C   UNL     1     -12.028  16.502  63.812  1.00  0.00     2.003 A  
HETATM   16  C   UNL     1     -12.235  14.147  64.343  1.00  0.00    -0.466 A  
HETATM   17  C   UNL     1     -10.565  15.471  65.448  1.00  0.00    -0.428 A  
HETATM   18  C   UNL     1     -12.667  15.278  63.633  1.00  0.00     1.107 A  
ENDBRANCH  11  13
ENDBRANCH   5   9
BRANCH   7  19
HETATM   19  C   UNL     1     -11.249  11.583  69.729  1.00  0.00    -0.237 A  
HETATM   20  C   UNL     1     -12.503  10.954  69.857  1.00  0.00    -0.292 A  
HETATM   21  C   UNL     1     -12.033  13.238  71.350  1.00  0.00     0.467 A  
HETATM   22  C   UNL     1     -13.247  12.571  71.492  1.00  0.00    -0.298 A  
HETATM   23  C   UNL     1     -11.033  12.735  70.499  1.00  0.00     1.779 A  
HETATM   24  C   UNL     1     -13.478  11.421  70.751  1.00  0.00     0.765 A  
ENDBRANCH   7  19
BRANCH   8  25
HETATM   25  C   UNL     1      -9.693   8.812  70.139  1.00  0.00    -0.188 A  
HETATM   26  C   UNL     1     -10.204   7.514  69.977  1.00  0.00    -0.215 A  
HETATM   27  C   UNL     1      -9.346   8.236  72.494  1.00  0.00    -0.350 A  
HETATM   28  C   UNL     1      -9.274   9.158  71.435  1.00  0.00    -0.208 A  
HETATM   29  F   UNL     1      -9.785   6.042  73.254  1.00  0.00    -0.151 F  
HETATM   30  C   UNL     1     -10.188   6.562  71.000  1.00  0.00    -0.218 A  
HETATM   31  C   UNL     1      -9.768   6.935  72.259  1.00  0.00    -0.146 A  
ENDBRANCH   8  25
BRANCH   6  32
HETATM   32  C   UNL     1      -7.878   8.434  67.691  1.00  0.00    -0.107 C  
BRANCH  32  33
HETATM   33  C   UNL     1      -6.536   8.746  67.003  1.00  0.00    -0.062 C  
BRANCH  33  34
HETATM   34  C   UNL     1      -5.878   7.528  66.323  1.00  0.00    -0.037 C  
HETATM   35  O   UNL     1      -5.451   6.544  67.265  1.00  0.00    -0.011 OA 
HETATM   36  H   UNL     1      -5.046   5.793  66.847  1.00  0.00     0.000 HD 
BRANCH  34  37
HETATM   37  C   UNL     1      -6.880   6.837  65.381  1.00  0.00    -0.051 C  
BRANCH  37  38
HETATM   38  C   UNL     1      -6.207   6.027  64.259  1.00  0.00    -0.029 C  
HETATM   39  H   UNL     1      -4.868   4.567  64.103  1.00  0.00     0.000 HD 
HETATM   40  O   UNL     1      -5.283   5.067  64.795  1.00  0.00    -0.012 OA 
BRANCH  38  41
HETATM   41  C   UNL     1      -7.251   5.249  63.459  1.00  0.00    -0.049 C  
HETATM   42  C   UNL     1      -8.427   6.096  63.032  1.00  0.00     0.138 C  
HETATM   43  O   UNL     1      -8.103   7.344  62.628  1.00  0.00    -0.134 OA 
HETATM   44  O   UNL     1      -9.571   5.670  62.984  1.00  0.00     0.796 OA 
ENDBRANCH  38  41
ENDBRANCH  37  38
ENDBRANCH  34  37
ENDBRANCH  33  34
ENDBRANCH  32  33
ENDBRANCH   6  32
TORSDOF 10
ENDMDL
MODEL      172
REMARK 921   NORMALIZED FREE ENERGY PREDICTED BY IDOCK:    2.78 KCAL/MOL
REMARK 922        TOTAL FREE ENERGY PREDICTED BY IDOCK:    1.65 KCAL/MOL
REMARK 923 INTER-LIGAND FREE ENERGY PREDICTED BY IDOCK:   -3.04 KCAL/MOL
REMARK 924 INTRA-LIGAND FREE ENERGY PREDICTED BY IDOCK:    4.68 KCAL/MOL
REMARK 927      BINDING AFFINITY PREDICTED BY RF-SCORE:    0.00 PKD
ROOT
HETATM    1  C   UNL     1      -5.430   9.295  70.170  1.00  0.00    -0.027 C  
HETATM    2  C   UNL     1      -5.640   9.956  68.806  1.00  0.00    -0.035 C  
HETATM    3  C   UNL     1      -6.972  10.695  68.622  1.00  0.00    -0.072 A  
HETATM    4  C   UNL     1      -5.286   8.977  67.684  1.00  0.00    -0.034 C  
HETATM    5  C   UNL     1      -8.247  10.521  69.193  1.00  0.00    -0.152 A  
HETATM    6  N   UNL     1      -7.029  11.863  67.848  1.00  0.00    -0.078 NA 
HETATM    7  C   UNL     1      -9.003  11.751  68.921  1.00  0.00     0.118 A  
HETATM    8  C   UNL     1      -8.255  12.529  68.019  1.00  0.00    -0.166 A  
ENDROOT
BRANCH   5   9
HETATM    9  C   UNL     1      -8.714   9.376  70.036  1.00  0.00    -0.210 C  
HETATM   10  O   UNL     1      -8.519   9.381  71.252  1.00  0.00    -0.302 OA 
HETATM   11  N   UNL     1      -9.364   8.356  69.355  1.00  0.00    -0.154 N  
HETATM   12  H   UNL     1      -9.416   8.438  68.339  1.00  0.00     0.000 HD 
BRANCH  11  13
HETATM   13  C   UNL     1      -9.964   7.209  69.940  1.00  0.00    -0.182 A  
HETATM   14  C   UNL     1     -10.274   4.802  70.157  1.00  0.00    -0.259 A  
HETATM   15  C   UNL     1     -11.211   4.993  71.168  1.00  0.00     0.553 A  
HETATM   16  C   UNL     1     -10.881   7.386  70.983  1.00  0.00    -0.254 A  
HETATM   17  C   UNL     1      -9.661   5.904  69.541  1.00  0.00    -0.174 A  
HETATM   18  C   UNL     1     -11.523   6.287  71.575  1.00  0.00    -0.351 A  
ENDBRANCH  11  13
ENDBRANCH   5   9
BRANCH   7  19
HETATM   19  C   UNL     1     -10.324  12.175  69.463  1.00  0.00     0.534 A  
HETATM   20  C   UNL     1     -11.122  11.281  70.205  1.00  0.00    -0.020 A  
HETATM   21  C   UNL     1     -12.092  13.837  69.768  1.00  0.00    -0.400 A  
HETATM   22  C   UNL     1     -12.840  12.948  70.537  1.00  0.00     0.036 A  
HETATM   23  C   UNL     1     -10.836  13.465  69.260  1.00  0.00    -0.085 A  
HETATM   24  C   UNL     1     -12.348  11.671  70.764  1.00  0.00    -0.454 A  
ENDBRANCH   7  19
BRANCH   8  25
HETATM   25  C   UNL     1      -8.618  13.801  67.294  1.00  0.00    -0.221 A  
HETATM   26  C   UNL     1      -9.228  13.790  66.028  1.00  0.00     0.059 A  
HETATM   27  C   UNL     1      -8.723  16.245  67.171  1.00  0.00    -0.213 A  
HETATM   28  C   UNL     1      -8.362  15.067  67.848  1.00  0.00    -0.151 A  
HETATM   29  F   UNL     1      -9.804  17.295  65.351  1.00  0.00    -0.069 F  
HETATM   30  C   UNL     1      -9.678  14.951  65.394  1.00  0.00    -0.211 A  
HETATM   31  C   UNL     1      -9.411  16.176  65.968  1.00  0.00    -0.339 A  
ENDBRANCH   8  25
BRANCH   6  32
HETATM   32  C   UNL     1      -5.985  12.272  66.896  1.00  0.00     0.084 C  
BRANCH  32  33
HETATM   33  C   UNL     1      -5.987  11.534  65.544  1.00  0.00     0.962 C  
BRANCH  33  34
HETATM   34  C   UNL     1      -5.575  10.050  65.636  1.00  0.00    -0.064 C  
HETATM   35  O   UNL     1      -6.503   9.273  66.394  1.00  0.00    -0.065 OA 
HETATM   36  H   UNL     1      -6.249   8.359  66.450  1.00  0.00     0.000 HD 
BRANCH  34  37
HETATM   37  C   UNL     1      -5.515   9.425  64.231  1.00  0.00    -0.061 C  
BRANCH  37  38
HETATM   38  C   UNL     1      -6.566   9.995  63.262  1.00  0.00    -0.134 C  
HETATM   39  H   UNL     1      -6.649  11.372  61.832  1.00  0.00     0.000 HD 
HETATM   40  O   UNL     1      -6.001  11.021  62.430  1.00  0.00    -0.133 OA 
BRANCH  38  41
HETATM   41  C   UNL     1      -7.090   8.900  62.334  1.00  0.00    -0.095 C  
HETATM   42  C   UNL     1      -7.931   7.868  63.048  1.00  0.00    -0.139 C  
HETATM   43  O   UNL     1      -8.764   8.371  63.984  1.00  0.00     0.027 OA 
HETATM   44  O   UNL     1      -7.918   6.681  62.754  1.00  0.00    -0.104 OA 
ENDBRANCH  38  41
ENDBRANCH  37  38
ENDBRANCH  34  37
ENDBRANCH  33  34
ENDBRANCH  32  33
ENDBRANCH   6  32
TORSDOF 10
ENDMDL
MODEL      173
REMARK 921   NORMALIZED FREE ENERGY PREDICTED BY IDOCK:    2.81 KCAL/MOL
REMARK 922        TOTAL FREE ENERGY PREDICTED BY IDOCK:    1.70 KCAL/MOL
REMARK 923 INTER-LIGAND FREE ENERGY PREDICTED BY IDOCK:    0.85 KCAL/MOL
REMARK 924 INTRA-LIGAND FREE ENERGY PREDICTED BY IDOCK:    0.85 KCAL/MOL
REMARK 927      BINDING AFFINITY PREDICTED BY RF-SCORE:    0.00 PKD
ROOT
HETATM    1  C   UNL     1     -10.875  11.012  63.260  1.00  0.00     0.018 C  
HETATM    2  C   UNL     1     -11.841  11.654  64.257  1.00  0.00    -0.219 C  
HETATM    3  C   UNL     1     -11.378  11.669  65.719  1.00  0.00    -0.182 A  
HETATM    4  C   UNL     1     -13.260  11.123  64.037  1.00  0.00     2.288 C  
HETATM    5  C   UNL     1     -10.527  10.825  66.459  1.00  0.00    -0.299 A  
HETATM    6  N   UNL     1     -11.704  12.749  66.552  1.00  0.00    -0.382 NA 
HETATM    7  C   UNL     1     -10.169  11.555  67.683  1.00  0.00    -0.205 A  
HETATM    8  C   UNL     1     -10.975  12.707  67.752  1.00  0.00    -0.234 A  
ENDROOT
BRANCH   5   9
HETATM    9  C   UNL     1      -9.972   9.502  66.037  1.00  0.00    -0.278 C  
HETATM   10  O   UNL     1      -9.308   9.409  65.004  1.00  0.00    -0.251 OA 
HETATM   11  N   UNL     1     -10.254   8.436  66.881  1.00  0.00    -0.294 N  
HETATM   12  H   UNL     1     -10.861   8.626  67.679  1.00  0.00     0.000 HD 
BRANCH  11  13
HETATM   13  C   UNL     1      -9.776   7.106  66.738  1.00  0.00    -0.192 A  
HETATM   14  C   UNL     1      -8.085   5.373  67.010  1.00  0.00    -0.101 A  
HETATM   15  C   UNL     1      -8.919   4.436  66.408  1.00  0.00    -0.117 A  
HETATM   16  C   UNL     1     -10.619   6.144  66.167  1.00  0.00     0.218 A  
HETATM   17  C   UNL     1      -8.507   6.702  67.166  1.00  0.00    -0.113 A  
HETATM   18  C   UNL     1     -10.184   4.824  65.977  1.00  0.00    -0.308 A  
ENDBRANCH  11  13
ENDBRANCH   5   9
BRANCH   7  19
HETATM   19  C   UNL     1      -9.148  11.210  68.711  1.00  0.00    -0.144 A  
HETATM   20  C   UNL     1      -9.294  10.064  69.518  1.00  0.00    -0.247 A  
HETATM   21  C   UNL     1      -7.069  11.664  69.918  1.00  0.00     0.377 A  
HETATM   22  C   UNL     1      -7.214  10.500  70.669  1.00  0.00     0.667 A  
HETATM   23  C   UNL     1      -8.010  12.001  68.930  1.00  0.00     0.069 A  
HETATM   24  C   UNL     1      -8.324   9.694  70.462  1.00  0.00    -0.134 A  
ENDBRANCH   7  19
BRANCH   8  25
HETATM   25  C   UNL     1     -11.132  13.722  68.858  1.00  0.00    -0.300 A  
HETATM   26  C   UNL     1     -10.027  14.361  69.444  1.00  0.00     0.093 A  
HETATM   27  C   UNL     1     -12.530  15.040  70.377  1.00  0.00    -0.407 A  
HETATM   28  C   UNL     1     -12.394  14.078  69.360  1.00  0.00    -0.247 A  
HETATM   29  F   UNL     1     -11.546  16.667  71.780  1.00  0.00    -0.498 F  
HETATM   30  C   UNL     1     -10.158  15.388  70.384  1.00  0.00     0.069 A  
HETATM   31  C   UNL     1     -11.413  15.713  70.853  1.00  0.00    -0.390 A  
ENDBRANCH   8  25
BRANCH   6  32
HETATM   32  C   UNL     1     -12.757  13.731  66.252  1.00  0.00    -0.207 C  
BRANCH  32  33
HETATM   33  C   UNL     1     -12.272  15.082  65.696  1.00  0.00     0.186 C  
BRANCH  33  34
HETATM   34  C   UNL     1     -10.828  15.059  65.153  1.00  0.00    -0.407 C  
HETATM   35  O   UNL     1     -10.671  14.152  64.062  1.00  0.00    -0.466 OA 
HETATM   36  H   UNL     1      -9.782  14.138  63.727  1.00  0.00     0.000 HD 
BRANCH  34  37
HETATM   37  C   UNL     1     -10.430  16.452  64.635  1.00  0.00     0.504 C  
BRANCH  37  38
HETATM   38  C   UNL     1     -11.052  17.606  65.441  1.00  0.00     0.452 C  
HETATM   39  H   UNL     1     -12.697  17.933  66.506  1.00  0.00     0.000 HD 
HETATM   40  O   UNL     1     -12.314  17.221  66.009  1.00  0.00     3.759 OA 
BRANCH  38  41
HETATM   41  C   UNL     1     -10.139  18.004  66.599  1.00  0.00    -0.372 C  
HETATM   42  C   UNL     1      -9.844  19.485  66.643  1.00  0.00    -0.394 C  
HETATM   43  O   UNL     1     -10.899  20.277  66.353  1.00  0.00    -0.159 OA 
HETATM   44  O   UNL     1      -8.761  19.938  66.985  1.00  0.00    -0.308 OA 
ENDBRANCH  38  41
ENDBRANCH  37  38
ENDBRANCH  34  37
ENDBRANCH  33  34
ENDBRANCH  32  33
ENDBRANCH   6  32
TORSDOF 10
ENDMDL
MODEL      174
REMARK 921   NORMALIZED FREE ENERGY PREDICTED BY IDOCK:    2.98 KCAL/MOL
REMARK 922        TOTAL FREE ENERGY PREDICTED BY IDOCK:    1.97 KCAL/MOL
REMARK 923 INTER-LIGAND FREE ENERGY PREDICTED BY IDOCK:   -0.97 KCAL/MOL
REMARK 924 INTRA-LIGAND FREE ENERGY PREDICTED BY IDOCK:    2.94 KCAL/MOL
REMARK 927      BINDING AFFINITY PREDICTED BY RF-SCORE:    0.00 PKD
ROOT
HETATM    1  C   UNL     1     -13.944  14.684  70.720  1.00  0.00     0.148 C  
HETATM    2  C   UNL     1     -12.709  15.563  70.928  1.00  0.00    -0.525 C  
HETATM    3  C   UNL     1     -11.401  15.025  70.335  1.00  0.00    -0.270 A  
HETATM    4  C   UNL     1     -12.618  16.009  72.390  1.00  0.00    -0.521 C  
HETATM    5  C   UNL     1     -10.936  13.721  70.073  1.00  0.00     0.264 A  
HETATM    6  N   UNL     1     -10.451  15.909  69.805  1.00  0.00    -0.294 NA 
HETATM    7  C   UNL     1      -9.791  13.856  69.163  1.00  0.00     0.158 A  
HETATM    8  C   UNL     1      -9.462  15.222  69.079  1.00  0.00    -0.232 A  
ENDROOT
BRANCH   5   9
HETATM    9  C   UNL     1     -11.558  12.433  70.512  1.00  0.00     0.333 C  
HETATM   10  O   UNL     1     -12.680  12.426  71.018  1.00  0.00    -0.326 OA 
HETATM   11  N   UNL     1     -10.792  11.294  70.298  1.00  0.00    -0.289 N  
HETATM   12  H   UNL     1      -9.853  11.432  69.921  1.00  0.00     0.000 HD 
BRANCH  11  13
HETATM   13  C   UNL     1     -11.192   9.956  70.555  1.00  0.00    -0.330 A  
HETATM   14  C   UNL     1     -11.707   7.679  69.857  1.00  0.00     0.266 A  
HETATM   15  C   UNL     1     -11.997   7.320  71.169  1.00  0.00    -0.363 A  
HETATM   16  C   UNL     1     -11.451   9.572  71.877  1.00  0.00    -0.217 A  
HETATM   17  C   UNL     1     -11.316   8.991  69.550  1.00  0.00     0.166 A  
HETATM   18  C   UNL     1     -11.878   8.270  72.180  1.00  0.00    -0.431 A  
ENDBRANCH  11  13
ENDBRANCH   5   9
BRANCH   7  19
HETATM   19  C   UNL     1      -9.056  12.793  68.422  1.00  0.00    -0.129 A  
HETATM   20  C   UNL     1      -7.833  12.288  68.906  1.00  0.00     0.091 A  
HETATM   21  C   UNL     1      -8.817  11.263  66.529  1.00  0.00    -0.180 A  
HETATM   22  C   UNL     1      -7.634  10.748  67.053  1.00  0.00    -0.114 A  
HETATM   23  C   UNL     1      -9.536  12.254  67.219  1.00  0.00    -0.186 A  
HETATM   24  C   UNL     1      -7.147  11.255  68.249  1.00  0.00    -0.074 A  
ENDBRANCH   7  19
BRANCH   8  25
HETATM   25  C   UNL     1      -8.292  15.905  68.415  1.00  0.00    -0.174 A  
HETATM   26  C   UNL     1      -8.040  15.779  67.039  1.00  0.00    -0.272 A  
HETATM   27  C   UNL     1      -6.315  17.347  68.508  1.00  0.00    -0.176 A  
HETATM   28  C   UNL     1      -7.391  16.700  69.141  1.00  0.00    -0.217 A  
HETATM   29  F   UNL     1      -5.179  17.929  66.519  1.00  0.00    -0.137 F  
HETATM   30  C   UNL     1      -7.034  16.496  66.385  1.00  0.00     0.046 A  
HETATM   31  C   UNL     1      -6.169  17.270  67.130  1.00  0.00    -0.161 A  
ENDBRANCH   8  25
BRANCH   6  32
HETATM   32  C   UNL     1     -10.432  17.355  70.073  1.00  0.00     0.554 C  
BRANCH  32  33
HETATM   33  C   UNL     1     -11.375  18.208  69.204  1.00  0.00     2.162 C  
BRANCH  33  34
HETATM   34  C   UNL     1     -10.738  18.719  67.896  1.00  0.00    -0.285 C  
HETATM   35  O   UNL     1      -9.329  18.918  68.018  1.00  0.00    -0.291 OA 
HETATM   36  H   UNL     1      -8.936  19.232  67.212  1.00  0.00     0.000 HD 
BRANCH  34  37
HETATM   37  C   UNL     1     -10.947  17.696  66.765  1.00  0.00     0.163 C  
BRANCH  37  38
HETATM   38  C   UNL     1     -11.321  16.292  67.271  1.00  0.00     0.164 C  
HETATM   39  H   UNL     1     -12.975  15.280  67.704  1.00  0.00     0.000 HD 
HETATM   40  O   UNL     1     -12.745  16.146  67.391  1.00  0.00     2.035 OA 
BRANCH  38  41
HETATM   41  C   UNL     1     -10.840  15.222  66.292  1.00  0.00    -0.312 C  
HETATM   42  C   UNL     1     -11.590  15.237  64.980  1.00  0.00    -0.239 C  
HETATM   43  O   UNL     1     -11.865  16.470  64.503  1.00  0.00    -0.357 OA 
HETATM   44  O   UNL     1     -11.862  14.219  64.359  1.00  0.00    -0.424 OA 
ENDBRANCH  38  41
ENDBRANCH  37  38
ENDBRANCH  34  37
ENDBRANCH  33  34
ENDBRANCH  32  33
ENDBRANCH   6  32
TORSDOF 10
ENDMDL
MODEL      175
REMARK 921   NORMALIZED FREE ENERGY PREDICTED BY IDOCK:    3.62 KCAL/MOL
REMARK 922        TOTAL FREE ENERGY PREDICTED BY IDOCK:    2.98 KCAL/MOL
REMARK 923 INTER-LIGAND FREE ENERGY PREDICTED BY IDOCK:   -1.04 KCAL/MOL
REMARK 924 INTRA-LIGAND FREE ENERGY PREDICTED BY IDOCK:    4.02 KCAL/MOL
REMARK 927      BINDING AFFINITY PREDICTED BY RF-SCORE:    0.00 PKD
ROOT
HETATM    1  C   UNL     1     -11.064   7.259  70.834  1.00  0.00    -0.284 C  
HETATM    2  C   UNL     1     -10.963   8.736  70.449  1.00  0.00    -0.262 C  
HETATM    3  C   UNL     1     -10.311   9.028  69.091  1.00  0.00    -0.219 A  
HETATM    4  C   UNL     1     -10.405   9.551  71.618  1.00  0.00     0.021 C  
HETATM    5  C   UNL     1      -9.351   8.338  68.325  1.00  0.00    -0.138 A  
HETATM    6  N   UNL     1     -10.762  10.099  68.307  1.00  0.00    -0.222 NA 
HETATM    7  C   UNL     1      -9.412   8.897  66.968  1.00  0.00    -0.215 A  
HETATM    8  C   UNL     1     -10.235  10.039  67.006  1.00  0.00    -0.237 A  
ENDROOT
BRANCH   5   9
HETATM    9  C   UNL     1      -8.521   7.169  68.752  1.00  0.00    -0.126 C  
HETATM   10  O   UNL     1      -8.182   6.316  67.932  1.00  0.00    -0.113 OA 
HETATM   11  N   UNL     1      -8.177   7.137  70.098  1.00  0.00    -0.133 N  
HETATM   12  H   UNL     1      -8.565   7.871  70.691  1.00  0.00     0.000 HD 
BRANCH  11  13
HETATM   13  C   UNL     1      -7.337   6.179  70.723  1.00  0.00    -0.082 A  
HETATM   14  C   UNL     1      -6.679   3.893  71.250  1.00  0.00    -0.031 A  
HETATM   15  C   UNL     1      -5.606   4.353  72.007  1.00  0.00    -0.008 A  
HETATM   16  C   UNL     1      -6.232   6.629  71.458  1.00  0.00    -0.041 A  
HETATM   17  C   UNL     1      -7.543   4.800  70.619  1.00  0.00    -0.058 A  
HETATM   18  C   UNL     1      -5.388   5.724  72.120  1.00  0.00    -0.021 A  
ENDBRANCH  11  13
ENDBRANCH   5   9
BRANCH   7  19
HETATM   19  C   UNL     1      -8.757   8.405  65.725  1.00  0.00    -0.199 A  
HETATM   20  C   UNL     1      -7.467   7.840  65.762  1.00  0.00    -0.078 A  
HETATM   21  C   UNL     1      -8.735   8.028  63.308  1.00  0.00     0.435 A  
HETATM   22  C   UNL     1      -7.479   7.430  63.380  1.00  0.00    -0.101 A  
HETATM   23  C   UNL     1      -9.380   8.485  64.470  1.00  0.00     0.880 A  
HETATM   24  C   UNL     1      -6.849   7.328  64.612  1.00  0.00    -0.050 A  
ENDBRANCH   7  19
BRANCH   8  25
HETATM   25  C   UNL     1     -10.519  11.071  65.944  1.00  0.00    -0.300 A  
HETATM   26  C   UNL     1      -9.538  11.973  65.499  1.00  0.00    -0.174 A  
HETATM   27  C   UNL     1     -12.033  12.140  64.342  1.00  0.00    -0.443 A  
HETATM   28  C   UNL     1     -11.785  11.187  65.346  1.00  0.00     0.666 A  
HETATM   29  F   UNL     1     -11.224  13.809  62.878  1.00  0.00     0.728 F  
HETATM   30  C   UNL     1      -9.747  12.855  64.435  1.00  0.00     0.137 A  
HETATM   31  C   UNL     1     -11.002  12.940  63.870  1.00  0.00    -0.384 A  
ENDBRANCH   8  25
BRANCH   6  32
HETATM   32  C   UNL     1     -11.589  11.203  68.819  1.00  0.00    -0.322 C  
BRANCH  32  33
HETATM   33  C   UNL     1     -10.817  12.390  69.425  1.00  0.00     0.011 C  
BRANCH  33  34
HETATM   34  C   UNL     1      -9.312  12.402  69.088  1.00  0.00     0.621 C  
HETATM   35  O   UNL     1      -8.982  11.493  68.038  1.00  0.00    -0.156 OA 
HETATM   36  H   UNL     1      -8.055  11.500  67.830  1.00  0.00     0.000 HD 
BRANCH  34  37
HETATM   37  C   UNL     1      -8.882  13.802  68.617  1.00  0.00    -0.047 C  
BRANCH  37  38
HETATM   38  C   UNL     1      -9.349  14.933  69.549  1.00  0.00     0.023 C  
HETATM   39  H   UNL     1      -8.538  16.174  70.873  1.00  0.00     0.000 HD 
HETATM   40  O   UNL     1      -8.249  15.476  70.297  1.00  0.00     0.370 OA 
BRANCH  38  41
HETATM   41  C   UNL     1      -9.953  16.080  68.741  1.00  0.00    -0.224 C  
HETATM   42  C   UNL     1     -11.383  15.826  68.324  1.00  0.00    -0.354 C  
HETATM   43  O   UNL     1     -12.146  15.230  69.266  1.00  0.00    -0.306 OA 
HETATM   44  O   UNL     1     -11.839  16.194  67.251  1.00  0.00     0.391 OA 
ENDBRANCH  38  41
ENDBRANCH  37  38
ENDBRANCH  34  37
ENDBRANCH  33  34
ENDBRANCH  32  33
ENDBRANCH   6  32
TORSDOF 10
ENDMDL
MODEL      176
REMARK 921   NORMALIZED FREE ENERGY PREDICTED BY IDOCK:    3.65 KCAL/MOL
REMARK 922        TOTAL FREE ENERGY PREDICTED BY IDOCK:    3.03 KCAL/MOL
REMARK 923 INTER-LIGAND FREE ENERGY PREDICTED BY IDOCK:    3.22 KCAL/MOL
REMARK 924 INTRA-LIGAND FREE ENERGY PREDICTED BY IDOCK:   -0.20 KCAL/MOL
REMARK 927      BINDING AFFINITY PREDICTED BY RF-SCORE:    0.00 PKD
ROOT
HETATM    1  C   UNL     1     -11.513   5.874  68.509  1.00  0.00     0.544 C  
HETATM    2  C   UNL     1     -11.469   7.383  68.262  1.00  0.00     0.714 C  
HETATM    3  C   UNL     1     -10.368   8.148  69.008  1.00  0.00    -0.218 A  
HETATM    4  C   UNL     1     -12.871   7.982  68.395  1.00  0.00     8.754 C  
HETATM    5  C   UNL     1      -9.697   7.912  70.224  1.00  0.00    -0.183 A  
HETATM    6  N   UNL     1      -9.743   9.249  68.407  1.00  0.00    -0.151 NA 
HETATM    7  C   UNL     1      -8.502   8.765  70.219  1.00  0.00    -0.154 A  
HETATM    8  C   UNL     1      -8.598   9.641  69.122  1.00  0.00    -0.146 A  
ENDROOT
BRANCH   5   9
HETATM    9  C   UNL     1     -10.041   6.894  71.266  1.00  0.00    -0.190 C  
HETATM   10  O   UNL     1     -10.731   7.208  72.236  1.00  0.00    -0.209 OA 
HETATM   11  N   UNL     1      -9.540   5.617  71.046  1.00  0.00    -0.165 N  
HETATM   12  H   UNL     1      -8.933   5.492  70.235  1.00  0.00     0.000 HD 
BRANCH  11  13
HETATM   13  C   UNL     1      -9.792   4.471  71.844  1.00  0.00    -0.182 A  
HETATM   14  C   UNL     1      -9.878   2.063  72.208  1.00  0.00    -0.207 A  
HETATM   15  C   UNL     1     -10.322   2.255  73.513  1.00  0.00    -0.204 A  
HETATM   16  C   UNL     1     -10.203   4.650  73.171  1.00  0.00    -0.220 A  
HETATM   17  C   UNL     1      -9.624   3.164  71.376  1.00  0.00    -0.227 A  
HETATM   18  C   UNL     1     -10.493   3.550  73.993  1.00  0.00    -0.258 A  
ENDBRANCH  11  13
ENDBRANCH   5   9
BRANCH   7  19
HETATM   19  C   UNL     1      -7.350   8.765  71.164  1.00  0.00    -0.106 A  
HETATM   20  C   UNL     1      -7.375   7.981  72.334  1.00  0.00    -0.115 A  
HETATM   21  C   UNL     1      -5.134   9.536  71.856  1.00  0.00    -0.073 A  
HETATM   22  C   UNL     1      -5.165   8.716  72.982  1.00  0.00    -0.058 A  
HETATM   23  C   UNL     1      -6.202   9.540  70.942  1.00  0.00    -0.086 A  
HETATM   24  C   UNL     1      -6.284   7.929  73.215  1.00  0.00    -0.069 A  
ENDBRANCH   7  19
BRANCH   8  25
HETATM   25  C   UNL     1      -7.734  10.814  68.732  1.00  0.00    -0.121 A  
HETATM   26  C   UNL     1      -6.626  10.673  67.880  1.00  0.00    -0.060 A  
HETATM   27  C   UNL     1      -7.191  13.201  68.818  1.00  0.00    -0.085 A  
HETATM   28  C   UNL     1      -7.992  12.112  69.204  1.00  0.00     0.331 A  
HETATM   29  F   UNL     1      -5.442  14.067  67.486  1.00  0.00    -0.093 F  
HETATM   30  C   UNL     1      -5.886  11.763  67.413  1.00  0.00    -0.104 A  
HETATM   31  C   UNL     1      -6.169  13.023  67.897  1.00  0.00    -0.134 A  
ENDBRANCH   8  25
BRANCH   6  32
HETATM   32  C   UNL     1     -10.285   9.970  67.245  1.00  0.00    -0.222 C  
BRANCH  32  33
HETATM   33  C   UNL     1      -9.687   9.581  65.880  1.00  0.00    -0.352 C  
BRANCH  33  34
HETATM   34  C   UNL     1      -8.736  10.639  65.284  1.00  0.00    -0.187 C  
HETATM   35  O   UNL     1      -8.653  10.557  63.861  1.00  0.00    -0.171 OA 
HETATM   36  H   UNL     1      -8.067  11.208  63.494  1.00  0.00     0.000 HD 
BRANCH  34  37
HETATM   37  C   UNL     1      -9.235  12.055  65.620  1.00  0.00    -0.010 C  
BRANCH  37  38
HETATM   38  C   UNL     1     -10.394  12.525  64.724  1.00  0.00    -0.307 C  
HETATM   39  H   UNL     1     -12.187  11.863  64.177  1.00  0.00     0.000 HD 
HETATM   40  O   UNL     1     -11.471  11.574  64.730  1.00  0.00    -0.201 OA 
BRANCH  38  41
HETATM   41  C   UNL     1     -10.961  13.850  65.231  1.00  0.00    -0.331 C  
HETATM   42  C   UNL     1     -12.137  14.342  64.421  1.00  0.00    -0.470 C  
HETATM   43  O   UNL     1     -13.001  13.377  64.039  1.00  0.00    -0.456 OA 
HETATM   44  O   UNL     1     -12.337  15.527  64.190  1.00  0.00    -0.597 OA 
ENDBRANCH  38  41
ENDBRANCH  37  38
ENDBRANCH  34  37
ENDBRANCH  33  34
ENDBRANCH  32  33
ENDBRANCH   6  32
TORSDOF 10
ENDMDL
MODEL      177
REMARK 921   NORMALIZED FREE ENERGY PREDICTED BY IDOCK:    4.49 KCAL/MOL
REMARK 922        TOTAL FREE ENERGY PREDICTED BY IDOCK:    4.36 KCAL/MOL
REMARK 923 INTER-LIGAND FREE ENERGY PREDICTED BY IDOCK:    3.12 KCAL/MOL
REMARK 924 INTRA-LIGAND FREE ENERGY PREDICTED BY IDOCK:    1.24 KCAL/MOL
REMARK 927      BINDING AFFINITY PREDICTED BY RF-SCORE:    0.00 PKD
ROOT
HETATM    1  C   UNL     1      -8.859  12.556  65.346  1.00  0.00     0.865 C  
HETATM    2  C   UNL     1      -9.143  13.993  65.786  1.00  0.00     0.442 C  
HETATM    3  C   UNL     1      -8.610  14.383  67.171  1.00  0.00    -0.218 A  
HETATM    4  C   UNL     1     -10.613  14.341  65.541  1.00  0.00    -0.351 C  
HETATM    5  C   UNL     1      -8.354  13.640  68.339  1.00  0.00    -0.147 A  
HETATM    6  N   UNL     1      -8.141  15.683  67.405  1.00  0.00    -0.157 NA 
HETATM    7  C   UNL     1      -7.505  14.479  69.196  1.00  0.00    -0.118 A  
HETATM    8  C   UNL     1      -7.457  15.766  68.630  1.00  0.00    -0.151 A  
ENDROOT
BRANCH   5   9
HETATM    9  C   UNL     1      -8.742  12.221  68.614  1.00  0.00     0.023 C  
HETATM   10  O   UNL     1      -9.816  11.966  69.159  1.00  0.00     0.055 OA 
HETATM   11  N   UNL     1      -7.826  11.259  68.209  1.00  0.00    -0.122 N  
HETATM   12  H   UNL     1      -6.945  11.595  67.819  1.00  0.00     0.000 HD 
BRANCH  11  13
HETATM   13  C   UNL     1      -8.000   9.852  68.288  1.00  0.00    -0.100 A  
HETATM   14  C   UNL     1      -7.822   7.711  69.437  1.00  0.00    -0.123 A  
HETATM   15  C   UNL     1      -8.390   7.056  68.348  1.00  0.00    -0.124 A  
HETATM   16  C   UNL     1      -8.604   9.186  67.214  1.00  0.00    -0.118 A  
HETATM   17  C   UNL     1      -7.620   9.099  69.403  1.00  0.00    -0.079 A  
HETATM   18  C   UNL     1      -8.773   7.793  67.231  1.00  0.00    -0.128 A  
ENDBRANCH  11  13
ENDBRANCH   5   9
BRANCH   7  19
HETATM   19  C   UNL     1      -6.788  14.110  70.448  1.00  0.00     0.251 A  
HETATM   20  C   UNL     1      -5.863  13.048  70.465  1.00  0.00    -0.144 A  
HETATM   21  C   UNL     1      -6.323  14.413  72.830  1.00  0.00     1.117 A  
HETATM   22  C   UNL     1      -5.379  13.389  72.809  1.00  0.00     0.069 A  
HETATM   23  C   UNL     1      -7.000  14.789  71.657  1.00  0.00     1.812 A  
HETATM   24  C   UNL     1      -5.141  12.712  71.621  1.00  0.00    -0.100 A  
ENDBRANCH   7  19
BRANCH   8  25
HETATM   25  C   UNL     1      -6.862  17.045  69.166  1.00  0.00    -0.240 A  
HETATM   26  C   UNL     1      -6.879  18.241  68.429  1.00  0.00    -0.239 A  
HETATM   27  C   UNL     1      -5.724  18.308  70.930  1.00  0.00     0.082 A  
HETATM   28  C   UNL     1      -6.257  17.105  70.433  1.00  0.00     0.416 A  
HETATM   29  F   UNL     1      -5.397  20.636  70.697  1.00  0.00    -0.287 F  
HETATM   30  C   UNL     1      -6.441  19.460  68.954  1.00  0.00    -0.312 A  
HETATM   31  C   UNL     1      -5.854  19.482  70.201  1.00  0.00    -0.267 A  
ENDBRANCH   8  25
BRANCH   6  32
HETATM   32  C   UNL     1      -8.429  16.832  66.533  1.00  0.00    -0.283 C  
BRANCH  32  33
HETATM   33  C   UNL     1      -9.896  17.300  66.507  1.00  0.00    -0.306 C  
BRANCH  33  34
HETATM   34  C   UNL     1     -10.194  18.378  65.444  1.00  0.00     0.547 C  
HETATM   35  O   UNL     1     -11.320  18.046  64.633  1.00  0.00    -0.315 OA 
HETATM   36  H   UNL     1     -11.504  18.710  63.979  1.00  0.00     0.000 HD 
BRANCH  34  37
HETATM   37  C   UNL     1     -10.516  19.721  66.123  1.00  0.00    -0.613 C  
BRANCH  37  38
HETATM   38  C   UNL     1      -9.604  20.035  67.323  1.00  0.00    -0.397 C  
HETATM   39  H   UNL     1      -8.042  21.199  67.714  1.00  0.00     0.000 HD 
HETATM   40  O   UNL     1      -8.605  21.006  66.974  1.00  0.00    -0.085 OA 
BRANCH  38  41
HETATM   41  C   UNL     1     -10.418  20.620  68.476  1.00  0.00     0.202 C  
HETATM   42  C   UNL     1     -10.085  20.001  69.813  1.00  0.00     0.233 C  
HETATM   43  O   UNL     1      -8.770  19.760  70.010  1.00  0.00     0.538 OA 
HETATM   44  O   UNL     1     -10.923  19.801  70.681  1.00  0.00     1.989 OA 
ENDBRANCH  38  41
ENDBRANCH  37  38
ENDBRANCH  34  37
ENDBRANCH  33  34
ENDBRANCH  32  33
ENDBRANCH   6  32
TORSDOF 10
ENDMDL
MODEL      178
REMARK 921   NORMALIZED FREE ENERGY PREDICTED BY IDOCK:    5.24 KCAL/MOL
REMARK 922        TOTAL FREE ENERGY PREDICTED BY IDOCK:    5.55 KCAL/MOL
REMARK 923 INTER-LIGAND FREE ENERGY PREDICTED BY IDOCK:    2.73 KCAL/MOL
REMARK 924 INTRA-LIGAND FREE ENERGY PREDICTED BY IDOCK:    2.82 KCAL/MOL
REMARK 927      BINDING AFFINITY PREDICTED BY RF-SCORE:    0.00 PKD
ROOT
HETATM    1  C   UNL     1     -10.397   7.788  70.278  1.00  0.00    -0.215 C  
HETATM    2  C   UNL     1      -9.993   9.264  70.291  1.00  0.00    -0.262 C  
HETATM    3  C   UNL     1      -9.719   9.891  68.918  1.00  0.00    -0.175 A  
HETATM    4  C   UNL     1      -8.903   9.506  71.338  1.00  0.00     0.504 C  
HETATM    5  C   UNL     1      -9.270   9.354  67.695  1.00  0.00    -0.142 A  
HETATM    6  N   UNL     1     -10.053  11.231  68.675  1.00  0.00    -0.204 NA 
HETATM    7  C   UNL     1      -9.567  10.354  66.661  1.00  0.00    -0.219 A  
HETATM    8  C   UNL     1      -9.975  11.536  67.305  1.00  0.00    -0.191 A  
ENDROOT
BRANCH   5   9
HETATM    9  C   UNL     1      -8.725   7.982  67.454  1.00  0.00    -0.124 C  
HETATM   10  O   UNL     1      -7.641   7.651  67.936  1.00  0.00    -0.111 OA 
HETATM   11  N   UNL     1      -9.520   7.148  66.678  1.00  0.00    -0.168 N  
HETATM   12  H   UNL     1     -10.371   7.554  66.288  1.00  0.00     0.000 HD 
BRANCH  11  13
HETATM   13  C   UNL     1      -9.258   5.785  66.377  1.00  0.00    -0.151 A  
HETATM   14  C   UNL     1      -7.831   3.982  65.572  1.00  0.00    -0.090 A  
HETATM   15  C   UNL     1      -8.837   3.050  65.813  1.00  0.00    -0.139 A  
HETATM   16  C   UNL     1     -10.249   4.833  66.650  1.00  0.00    -0.274 A  
HETATM   17  C   UNL     1      -8.044   5.342  65.844  1.00  0.00    -0.110 A  
HETATM   18  C   UNL     1     -10.051   3.477  66.344  1.00  0.00     0.468 A  
ENDBRANCH  11  13
ENDBRANCH   5   9
BRANCH   7  19
HETATM   19  C   UNL     1      -9.481  10.220  65.180  1.00  0.00    -0.309 A  
HETATM   20  C   UNL     1      -8.365   9.610  64.573  1.00  0.00    -0.172 A  
HETATM   21  C   UNL     1     -10.379  10.569  62.932  1.00  0.00     0.390 A  
HETATM   22  C   UNL     1      -9.287   9.920  62.360  1.00  0.00    -0.270 A  
HETATM   23  C   UNL     1     -10.489  10.693  64.327  1.00  0.00    -0.221 A  
HETATM   24  C   UNL     1      -8.283   9.431  63.184  1.00  0.00    -0.165 A  
ENDBRANCH   7  19
BRANCH   8  25
HETATM   25  C   UNL     1     -10.252  12.908  66.742  1.00  0.00    -0.243 A  
HETATM   26  C   UNL     1      -9.219  13.781  66.365  1.00  0.00    -0.158 A  
HETATM   27  C   UNL     1     -11.808  14.659  66.024  1.00  0.00    -0.280 A  
HETATM   28  C   UNL     1     -11.562  13.386  66.568  1.00  0.00    -0.394 A  
HETATM   29  F   UNL     1     -10.989  16.629  65.008  1.00  0.00    -0.405 F  
HETATM   30  C   UNL     1      -9.454  15.005  65.733  1.00  0.00    -0.260 A  
HETATM   31  C   UNL     1     -10.753  15.441  65.577  1.00  0.00    -0.384 A  
ENDBRANCH   8  25
BRANCH   6  32
HETATM   32  C   UNL     1     -10.335  12.213  69.732  1.00  0.00     1.063 C  
BRANCH  32  33
HETATM   33  C   UNL     1      -9.102  12.847  70.402  1.00  0.00     5.653 C  
BRANCH  33  34
HETATM   34  C   UNL     1      -7.758  12.437  69.766  1.00  0.00     1.371 C  
HETATM   35  O   UNL     1      -7.930  11.604  68.619  1.00  0.00    -0.144 OA 
HETATM   36  H   UNL     1      -7.103  11.352  68.227  1.00  0.00     0.000 HD 
BRANCH  34  37
HETATM   37  C   UNL     1      -6.986  13.684  69.299  1.00  0.00    -0.025 C  
BRANCH  37  38
HETATM   38  C   UNL     1      -7.118  14.881  70.257  1.00  0.00     0.162 C  
HETATM   39  H   UNL     1      -5.944  15.922  71.475  1.00  0.00     0.000 HD 
HETATM   40  O   UNL     1      -5.862  15.184  70.884  1.00  0.00    -0.086 OA 
BRANCH  38  41
HETATM   41  C   UNL     1      -7.556  16.131  69.496  1.00  0.00    -0.052 C  
HETATM   42  C   UNL     1      -9.008  16.097  69.080  1.00  0.00    -0.247 C  
HETATM   43  O   UNL     1      -9.846  15.579  70.004  1.00  0.00    -0.283 OA 
HETATM   44  O   UNL     1      -9.408  16.566  68.024  1.00  0.00    -0.213 OA 
ENDBRANCH  38  41
ENDBRANCH  37  38
ENDBRANCH  34  37
ENDBRANCH  33  34
ENDBRANCH  32  33
ENDBRANCH   6  32
TORSDOF 10
ENDMDL
MODEL      179
REMARK 921   NORMALIZED FREE ENERGY PREDICTED BY IDOCK:    5.58 KCAL/MOL
REMARK 922        TOTAL FREE ENERGY PREDICTED BY IDOCK:    6.08 KCAL/MOL
REMARK 923 INTER-LIGAND FREE ENERGY PREDICTED BY IDOCK:    5.07 KCAL/MOL
REMARK 924 INTRA-LIGAND FREE ENERGY PREDICTED BY IDOCK:    1.01 KCAL/MOL
REMARK 927      BINDING AFFINITY PREDICTED BY RF-SCORE:    0.00 PKD
ROOT
HETATM    1  C   UNL     1     -11.039  11.088  64.670  1.00  0.00    -0.041 C  
HETATM    2  C   UNL     1     -11.718  12.007  65.687  1.00  0.00    -0.312 C  
HETATM    3  C   UNL     1     -10.812  12.555  66.798  1.00  0.00    -0.249 A  
HETATM    4  C   UNL     1     -13.028  11.382  66.175  1.00  0.00     5.534 C  
HETATM    5  C   UNL     1      -9.644  12.059  67.409  1.00  0.00    -0.176 A  
HETATM    6  N   UNL     1     -11.017  13.847  67.302  1.00  0.00    -0.286 NA 
HETATM    7  C   UNL     1      -9.028  13.187  68.120  1.00  0.00    -0.195 A  
HETATM    8  C   UNL     1      -9.940  14.259  68.105  1.00  0.00    -0.230 A  
ENDROOT
BRANCH   5   9
HETATM    9  C   UNL     1      -9.054  10.692  67.261  1.00  0.00    -0.143 C  
HETATM   10  O   UNL     1      -8.207  10.473  66.395  1.00  0.00    -0.130 OA 
HETATM   11  N   UNL     1      -9.524   9.736  68.152  1.00  0.00    -0.135 N  
HETATM   12  H   UNL     1     -10.268  10.023  68.788  1.00  0.00     0.000 HD 
BRANCH  11  13
HETATM   13  C   UNL     1      -9.064   8.397  68.261  1.00  0.00    -0.139 A  
HETATM   14  C   UNL     1      -7.580   6.684  69.157  1.00  0.00    -0.100 A  
HETATM   15  C   UNL     1      -8.226   5.704  68.409  1.00  0.00    -0.103 A  
HETATM   16  C   UNL     1      -9.729   7.395  67.543  1.00  0.00    -0.186 A  
HETATM   17  C   UNL     1      -7.991   8.023  69.076  1.00  0.00    -0.114 A  
HETATM   18  C   UNL     1      -9.296   6.061  67.594  1.00  0.00    -0.112 A  
ENDBRANCH  11  13
ENDBRANCH   5   9
BRANCH   7  19
HETATM   19  C   UNL     1      -7.688  13.265  68.765  1.00  0.00    -0.022 A  
HETATM   20  C   UNL     1      -7.223  12.225  69.594  1.00  0.00     0.448 A  
HETATM   21  C   UNL     1      -5.582  14.423  69.218  1.00  0.00    -0.088 A  
HETATM   22  C   UNL     1      -5.127  13.360  69.995  1.00  0.00    -0.086 A  
HETATM   23  C   UNL     1      -6.836  14.365  68.587  1.00  0.00    -0.096 A  
HETATM   24  C   UNL     1      -5.946  12.255  70.175  1.00  0.00    -0.148 A  
ENDBRANCH   7  19
BRANCH   8  25
HETATM   25  C   UNL     1      -9.888  15.593  68.807  1.00  0.00    -0.213 A  
HETATM   26  C   UNL     1      -8.905  16.553  68.512  1.00  0.00    -0.228 A  
HETATM   27  C   UNL     1     -10.774  17.199  70.431  1.00  0.00     0.662 A  
HETATM   28  C   UNL     1     -10.821  15.945  69.797  1.00  0.00    -0.328 A  
HETATM   29  F   UNL     1      -9.832  19.360  70.596  1.00  0.00     0.502 F  
HETATM   30  C   UNL     1      -8.910  17.836  69.065  1.00  0.00    -0.012 A  
HETATM   31  C   UNL     1      -9.842  18.147  70.032  1.00  0.00     1.158 A  
ENDBRANCH   8  25
BRANCH   6  32
HETATM   32  C   UNL     1     -12.252  14.622  67.105  1.00  0.00    -0.062 C  
BRANCH  32  33
HETATM   33  C   UNL     1     -12.189  15.716  66.024  1.00  0.00     1.123 C  
BRANCH  33  34
HETATM   34  C   UNL     1     -11.007  15.568  65.044  1.00  0.00    -0.440 C  
HETATM   35  O   UNL     1     -11.352  14.807  63.886  1.00  0.00    -0.426 OA 
HETATM   36  H   UNL     1     -10.624  14.716  63.283  1.00  0.00     0.000 HD 
BRANCH  34  37
HETATM   37  C   UNL     1     -10.549  16.951  64.548  1.00  0.00     1.103 C  
BRANCH  37  38
HETATM   38  C   UNL     1     -10.373  17.980  65.678  1.00  0.00    -0.049 C  
HETATM   39  H   UNL     1     -10.933  18.188  67.573  1.00  0.00     0.000 HD 
HETATM   40  O   UNL     1     -11.041  17.553  66.876  1.00  0.00     0.029 OA 
BRANCH  38  41
HETATM   41  C   UNL     1      -8.895  18.152  66.023  1.00  0.00     0.011 C  
HETATM   42  C   UNL     1      -8.426  19.585  65.932  1.00  0.00    -0.101 C  
HETATM   43  O   UNL     1      -9.306  20.496  66.401  1.00  0.00    -0.218 OA 
HETATM   44  O   UNL     1      -7.311  19.897  65.537  1.00  0.00    -0.326 OA 
ENDBRANCH  38  41
ENDBRANCH  37  38
ENDBRANCH  34  37
ENDBRANCH  33  34
ENDBRANCH  32  33
ENDBRANCH   6  32
TORSDOF 10
ENDMDL
MODEL      180
REMARK 921   NORMALIZED FREE ENERGY PREDICTED BY IDOCK:    5.93 KCAL/MOL
REMARK 922        TOTAL FREE ENERGY PREDICTED BY IDOCK:    6.65 KCAL/MOL
REMARK 923 INTER-LIGAND FREE ENERGY PREDICTED BY IDOCK:    6.98 KCAL/MOL
REMARK 924 INTRA-LIGAND FREE ENERGY PREDICTED BY IDOCK:   -0.33 KCAL/MOL
REMARK 927      BINDING AFFINITY PREDICTED BY RF-SCORE:    0.00 PKD
ROOT
HETATM    1  C   UNL     1      -6.136  12.722  66.657  1.00  0.00     1.245 C  
HETATM    2  C   UNL     1      -5.987  12.196  68.086  1.00  0.00    -0.055 C  
HETATM    3  C   UNL     1      -7.285  11.737  68.765  1.00  0.00    -0.113 A  
HETATM    4  C   UNL     1      -5.130  13.154  68.917  1.00  0.00    -0.065 C  
HETATM    5  C   UNL     1      -8.631  12.118  68.607  1.00  0.00     0.003 A  
HETATM    6  N   UNL     1      -7.271  10.651  69.651  1.00  0.00    -0.142 NA 
HETATM    7  C   UNL     1      -9.443  11.074  69.247  1.00  0.00     0.020 A  
HETATM    8  C   UNL     1      -8.574  10.222  69.954  1.00  0.00     0.034 A  
ENDROOT
BRANCH   5   9
HETATM    9  C   UNL     1      -9.159  13.278  67.824  1.00  0.00    -0.202 C  
HETATM   10  O   UNL     1      -9.976  13.097  66.921  1.00  0.00    -0.235 OA 
HETATM   11  N   UNL     1      -8.671  14.524  68.195  1.00  0.00    -0.164 N  
HETATM   12  H   UNL     1      -7.954  14.542  68.922  1.00  0.00     0.000 HD 
BRANCH  11  13
HETATM   13  C   UNL     1      -9.076  15.775  67.659  1.00  0.00    -0.192 A  
HETATM   14  C   UNL     1     -10.585  17.682  67.517  1.00  0.00    -0.345 A  
HETATM   15  C   UNL     1      -9.795  18.262  66.529  1.00  0.00    -0.363 A  
HETATM   16  C   UNL     1      -8.269  16.386  66.691  1.00  0.00    -0.314 A  
HETATM   17  C   UNL     1     -10.233  16.443  68.072  1.00  0.00    -0.264 A  
HETATM   18  C   UNL     1      -8.639  17.609  66.108  1.00  0.00    -0.154 A  
ENDBRANCH  11  13
ENDBRANCH   5   9
BRANCH   7  19
HETATM   19  C   UNL     1     -10.919  10.879  69.201  1.00  0.00    -0.290 A  
HETATM   20  C   UNL     1     -11.692  10.935  70.377  1.00  0.00    -0.444 A  
HETATM   21  C   UNL     1     -12.994  10.431  67.986  1.00  0.00     6.048 A  
HETATM   22  C   UNL     1     -13.740  10.538  69.157  1.00  0.00     4.530 A  
HETATM   23  C   UNL     1     -11.602  10.627  68.002  1.00  0.00    -0.182 A  
HETATM   24  C   UNL     1     -13.088  10.800  70.353  1.00  0.00    -0.080 A  
ENDBRANCH   7  19
BRANCH   8  25
HETATM   25  C   UNL     1      -8.878   9.088  70.902  1.00  0.00    -0.294 A  
HETATM   26  C   UNL     1      -9.642   7.976  70.513  1.00  0.00    -0.170 A  
HETATM   27  C   UNL     1      -8.688   8.018  73.097  1.00  0.00    -0.300 A  
HETATM   28  C   UNL     1      -8.414   9.089  72.228  1.00  0.00     0.354 A  
HETATM   29  F   UNL     1      -9.575   5.855  73.442  1.00  0.00    -0.142 F  
HETATM   30  C   UNL     1      -9.834   6.863  71.337  1.00  0.00    -0.184 A  
HETATM   31  C   UNL     1      -9.363   6.898  72.632  1.00  0.00    -0.138 A  
ENDBRANCH   8  25
BRANCH   6  32
HETATM   32  C   UNL     1      -6.052  10.107  70.269  1.00  0.00    -0.090 C  
BRANCH  32  33
HETATM   33  C   UNL     1      -5.798   8.606  70.040  1.00  0.00    -0.027 C  
BRANCH  33  34
HETATM   34  C   UNL     1      -6.011   8.146  68.583  1.00  0.00    -0.044 C  
HETATM   35  O   UNL     1      -5.276   8.937  67.649  1.00  0.00    -0.034 OA 
HETATM   36  H   UNL     1      -5.407   8.653  66.751  1.00  0.00     0.000 HD 
BRANCH  34  37
HETATM   37  C   UNL     1      -5.536   6.693  68.407  1.00  0.00    -0.016 C  
BRANCH  37  38
HETATM   38  C   UNL     1      -5.241   5.979  69.738  1.00  0.00    -0.012 C  
HETATM   39  H   UNL     1      -5.883   6.054  71.617  1.00  0.00     0.000 HD 
HETATM   40  O   UNL     1      -6.065   6.494  70.795  1.00  0.00    -0.030 OA 
BRANCH  38  41
HETATM   41  C   UNL     1      -5.536   4.485  69.623  1.00  0.00    -0.008 C  
HETATM   42  C   UNL     1      -7.012   4.174  69.541  1.00  0.00    -0.046 C  
HETATM   43  O   UNL     1      -7.726   5.032  68.781  1.00  0.00    -0.076 OA 
HETATM   44  O   UNL     1      -7.513   3.186  70.059  1.00  0.00    -0.044 OA 
ENDBRANCH  38  41
ENDBRANCH  37  38
ENDBRANCH  34  37
ENDBRANCH  33  34
ENDBRANCH  32  33
ENDBRANCH   6  32
TORSDOF 10
ENDMDL
MODEL      181
REMARK 921   NORMALIZED FREE ENERGY PREDICTED BY IDOCK:    6.29 KCAL/MOL
REMARK 922        TOTAL FREE ENERGY PREDICTED BY IDOCK:    7.22 KCAL/MOL
REMARK 923 INTER-LIGAND FREE ENERGY PREDICTED BY IDOCK:    3.95 KCAL/MOL
REMARK 924 INTRA-LIGAND FREE ENERGY PREDICTED BY IDOCK:    3.26 KCAL/MOL
REMARK 927      BINDING AFFINITY PREDICTED BY RF-SCORE:    0.00 PKD
ROOT
HETATM    1  C   UNL     1      -8.233  10.609  67.392  1.00  0.00    -0.115 C  
HETATM    2  C   UNL     1      -8.530  11.971  66.762  1.00  0.00    -0.155 C  
HETATM    3  C   UNL     1      -9.629  12.796  67.445  1.00  0.00    -0.199 A  
HETATM    4  C   UNL     1      -8.679  11.831  65.245  1.00  0.00     0.431 C  
HETATM    5  C   UNL     1     -10.764  12.437  68.197  1.00  0.00    -0.243 A  
HETATM    6  N   UNL     1      -9.530  14.193  67.500  1.00  0.00    -0.205 NA 
HETATM    7  C   UNL     1     -11.207  13.650  68.897  1.00  0.00    -0.309 A  
HETATM    8  C   UNL     1     -10.477  14.738  68.384  1.00  0.00    -0.243 A  
ENDROOT
BRANCH   5   9
HETATM    9  C   UNL     1     -11.337  11.066  68.374  1.00  0.00    -0.295 C  
HETATM   10  O   UNL     1     -12.386  10.754  67.808  1.00  0.00     0.308 OA 
HETATM   11  N   UNL     1     -10.608  10.212  69.191  1.00  0.00    -0.210 N  
HETATM   12  H   UNL     1      -9.784  10.601  69.649  1.00  0.00     0.000 HD 
BRANCH  11  13
HETATM   13  C   UNL     1     -10.903   8.847  69.448  1.00  0.00    -0.119 A  
HETATM   14  C   UNL     1     -11.215   6.532  68.754  1.00  0.00    -0.319 A  
HETATM   15  C   UNL     1     -11.501   6.156  70.063  1.00  0.00    -0.369 A  
HETATM   16  C   UNL     1     -11.156   8.448  70.767  1.00  0.00    -0.286 A  
HETATM   17  C   UNL     1     -10.927   7.870  68.447  1.00  0.00     0.150 A  
HETATM   18  C   UNL     1     -11.480   7.117  71.070  1.00  0.00    -0.331 A  
ENDBRANCH  11  13
ENDBRANCH   5   9
BRANCH   7  19
HETATM   19  C   UNL     1     -12.234  13.788  69.967  1.00  0.00    -0.407 A  
HETATM   20  C   UNL     1     -12.148  14.820  70.922  1.00  0.00    -0.387 A  
HETATM   21  C   UNL     1     -14.267  13.047  71.108  1.00  0.00     1.901 A  
HETATM   22  C   UNL     1     -14.183  14.104  72.012  1.00  0.00    -0.617 A  
HETATM   23  C   UNL     1     -13.319  12.906  70.080  1.00  0.00     1.548 A  
HETATM   24  C   UNL     1     -13.127  14.998  71.911  1.00  0.00    -0.437 A  
ENDBRANCH   7  19
BRANCH   8  25
HETATM   25  C   UNL     1     -10.629  16.218  68.632  1.00  0.00    -0.297 A  
HETATM   26  C   UNL     1     -10.942  16.733  69.901  1.00  0.00    -0.063 A  
HETATM   27  C   UNL     1     -10.595  18.539  67.848  1.00  0.00    -0.385 A  
HETATM   28  C   UNL     1     -10.470  17.160  67.602  1.00  0.00    -0.355 A  
HETATM   29  F   UNL     1     -10.872  20.312  69.385  1.00  0.00    -0.204 F  
HETATM   30  C   UNL     1     -10.971  18.103  70.175  1.00  0.00     2.183 A  
HETATM   31  C   UNL     1     -10.807  18.999  69.140  1.00  0.00     1.198 A  
ENDBRANCH   8  25
BRANCH   6  32
HETATM   32  C   UNL     1      -8.628  14.989  66.654  1.00  0.00    -0.211 C  
BRANCH  32  33
HETATM   33  C   UNL     1      -7.239  15.284  67.250  1.00  0.00    -0.213 C  
BRANCH  33  34
HETATM   34  C   UNL     1      -6.841  16.774  67.213  1.00  0.00    -0.171 C  
HETATM   35  O   UNL     1      -7.959  17.641  67.406  1.00  0.00    -0.201 OA 
HETATM   36  H   UNL     1      -7.713  18.558  67.383  1.00  0.00     0.000 HD 
BRANCH  34  37
HETATM   37  C   UNL     1      -5.836  17.085  68.336  1.00  0.00    -0.135 C  
BRANCH  37  38
HETATM   38  C   UNL     1      -6.496  17.640  69.611  1.00  0.00    -0.136 C  
HETATM   39  H   UNL     1      -8.271  17.557  70.501  1.00  0.00     0.000 HD 
HETATM   40  O   UNL     1      -7.864  17.214  69.714  1.00  0.00     0.487 OA 
BRANCH  38  41
HETATM   41  C   UNL     1      -5.771  17.130  70.856  1.00  0.00     0.283 C  
HETATM   42  C   UNL     1      -6.307  15.809  71.357  1.00  0.00     1.468 C  
HETATM   43  O   UNL     1      -6.620  14.924  70.386  1.00  0.00    -0.144 OA 
HETATM   44  O   UNL     1      -6.384  15.530  72.545  1.00  0.00     1.761 OA 
ENDBRANCH  38  41
ENDBRANCH  37  38
ENDBRANCH  34  37
ENDBRANCH  33  34
ENDBRANCH  32  33
ENDBRANCH   6  32
TORSDOF 10
ENDMDL
MODEL      182
REMARK 921   NORMALIZED FREE ENERGY PREDICTED BY IDOCK:    6.44 KCAL/MOL
REMARK 922        TOTAL FREE ENERGY PREDICTED BY IDOCK:    7.46 KCAL/MOL
REMARK 923 INTER-LIGAND FREE ENERGY PREDICTED BY IDOCK:    5.51 KCAL/MOL
REMARK 924 INTRA-LIGAND FREE ENERGY PREDICTED BY IDOCK:    1.94 KCAL/MOL
REMARK 927      BINDING AFFINITY PREDICTED BY RF-SCORE:    0.00 PKD
ROOT
HETATM    1  C   UNL     1     -12.192  10.875  63.968  1.00  0.00     2.000 C  
HETATM    2  C   UNL     1     -10.834  10.197  64.159  1.00  0.00     1.834 C  
HETATM    3  C   UNL     1      -9.956  10.766  65.281  1.00  0.00    -0.282 A  
HETATM    4  C   UNL     1     -10.128  10.036  62.810  1.00  0.00     0.764 C  
HETATM    5  C   UNL     1      -9.860  12.046  65.862  1.00  0.00    -0.259 A  
HETATM    6  N   UNL     1      -9.132   9.917  66.032  1.00  0.00    -0.151 NA 
HETATM    7  C   UNL     1      -9.131  11.882  67.126  1.00  0.00    -0.178 A  
HETATM    8  C   UNL     1      -8.622  10.571  67.166  1.00  0.00    -0.127 A  
ENDROOT
BRANCH   5   9
HETATM    9  C   UNL     1     -10.492  13.312  65.374  1.00  0.00    -0.297 C  
HETATM   10  O   UNL     1     -11.514  13.272  64.689  1.00  0.00    -0.318 OA 
HETATM   11  N   UNL     1      -9.853  14.485  65.753  1.00  0.00    -0.400 N  
HETATM   12  H   UNL     1      -8.981  14.390  66.275  1.00  0.00     0.000 HD 
BRANCH  11  13
HETATM   13  C   UNL     1     -10.300  15.806  65.483  1.00  0.00    -0.404 A  
HETATM   14  C   UNL     1     -11.487  17.456  64.141  1.00  0.00     2.865 A  
HETATM   15  C   UNL     1     -11.141  18.465  65.035  1.00  0.00     1.452 A  
HETATM   16  C   UNL     1      -9.989  16.823  66.395  1.00  0.00    -0.317 A  
HETATM   17  C   UNL     1     -11.062  16.137  64.359  1.00  0.00    -0.104 A  
HETATM   18  C   UNL     1     -10.383  18.149  66.159  1.00  0.00    -0.394 A  
ENDBRANCH  11  13
ENDBRANCH   5   9
BRANCH   7  19
HETATM   19  C   UNL     1      -8.925  12.871  68.221  1.00  0.00    -0.175 A  
HETATM   20  C   UNL     1     -10.003  13.624  68.727  1.00  0.00    -0.095 A  
HETATM   21  C   UNL     1      -7.491  14.054  69.810  1.00  0.00     0.423 A  
HETATM   22  C   UNL     1      -8.581  14.751  70.325  1.00  0.00     1.091 A  
HETATM   23  C   UNL     1      -7.664  13.104  68.789  1.00  0.00    -0.006 A  
HETATM   24  C   UNL     1      -9.841  14.528  69.788  1.00  0.00     0.364 A  
ENDBRANCH   7  19
BRANCH   8  25
HETATM   25  C   UNL     1      -7.682   9.919  68.151  1.00  0.00    -0.082 A  
HETATM   26  C   UNL     1      -7.431  10.470  69.418  1.00  0.00    -0.141 A  
HETATM   27  C   UNL     1      -6.146   8.118  68.780  1.00  0.00    -0.044 A  
HETATM   28  C   UNL     1      -7.004   8.727  67.847  1.00  0.00    -0.078 A  
HETATM   29  F   UNL     1      -5.237   8.044  70.960  1.00  0.00    -0.026 F  
HETATM   30  C   UNL     1      -6.658   9.822  70.386  1.00  0.00    -0.114 A  
HETATM   31  C   UNL     1      -6.010   8.652  70.054  1.00  0.00    -0.027 A  
ENDBRANCH   8  25
BRANCH   6  32
HETATM   32  C   UNL     1      -8.760   8.555  65.619  1.00  0.00    -0.181 C  
BRANCH  32  33
HETATM   33  C   UNL     1      -9.713   7.435  66.074  1.00  0.00     0.145 C  
BRANCH  33  34
HETATM   34  C   UNL     1      -9.530   7.010  67.546  1.00  0.00    -0.126 C  
HETATM   35  O   UNL     1     -10.276   7.830  68.446  1.00  0.00    -0.191 OA 
HETATM   36  H   UNL     1     -10.163   7.569  69.353  1.00  0.00     0.000 HD 
BRANCH  34  37
HETATM   37  C   UNL     1     -10.021   5.566  67.750  1.00  0.00    -0.188 C  
BRANCH  37  38
HETATM   38  C   UNL     1      -9.471   4.906  69.026  1.00  0.00    -0.144 C  
HETATM   39  H   UNL     1      -8.622   3.184  69.539  1.00  0.00     0.000 HD 
HETATM   40  O   UNL     1      -8.961   3.591  68.751  1.00  0.00    -0.105 OA 
BRANCH  38  41
HETATM   41  C   UNL     1      -8.317   5.726  69.600  1.00  0.00    -0.112 C  
HETATM   42  C   UNL     1      -8.467   6.014  71.075  1.00  0.00    -0.124 C  
HETATM   43  O   UNL     1      -8.948   4.983  71.803  1.00  0.00    -0.131 OA 
HETATM   44  O   UNL     1      -8.113   7.067  71.587  1.00  0.00    -0.103 OA 
ENDBRANCH  38  41
ENDBRANCH  37  38
ENDBRANCH  34  37
ENDBRANCH  33  34
ENDBRANCH  32  33
ENDBRANCH   6  32
TORSDOF 10
ENDMDL
MODEL      183
REMARK 921   NORMALIZED FREE ENERGY PREDICTED BY IDOCK:    7.73 KCAL/MOL
REMARK 922        TOTAL FREE ENERGY PREDICTED BY IDOCK:    9.50 KCAL/MOL
REMARK 923 INTER-LIGAND FREE ENERGY PREDICTED BY IDOCK:    7.17 KCAL/MOL
REMARK 924 INTRA-LIGAND FREE ENERGY PREDICTED BY IDOCK:    2.33 KCAL/MOL
REMARK 927      BINDING AFFINITY PREDICTED BY RF-SCORE:    0.00 PKD
ROOT
HETATM    1  C   UNL     1     -11.912  10.521  64.246  1.00  0.00     3.470 C  
HETATM    2  C   UNL     1     -10.543   9.900  64.530  1.00  0.00     1.455 C  
HETATM    3  C   UNL     1      -9.726  10.571  65.642  1.00  0.00    -0.234 A  
HETATM    4  C   UNL     1      -9.784   9.671  63.221  1.00  0.00     0.654 C  
HETATM    5  C   UNL     1      -9.689  11.890  66.137  1.00  0.00    -0.251 A  
HETATM    6  N   UNL     1      -8.906   9.800  66.478  1.00  0.00    -0.137 NA 
HETATM    7  C   UNL     1      -9.003  11.834  67.434  1.00  0.00    -0.173 A  
HETATM    8  C   UNL     1      -8.458  10.545  67.582  1.00  0.00    -0.115 A  
ENDROOT
BRANCH   5   9
HETATM    9  C   UNL     1     -10.337  13.099  65.541  1.00  0.00    -0.290 C  
HETATM   10  O   UNL     1     -11.223  12.975  64.695  1.00  0.00    -0.302 OA 
HETATM   11  N   UNL     1      -9.876  14.321  66.014  1.00  0.00    -0.331 N  
HETATM   12  H   UNL     1      -9.099  14.297  66.675  1.00  0.00     0.000 HD 
BRANCH  11  13
HETATM   13  C   UNL     1     -10.385  15.600  65.663  1.00  0.00    -0.385 A  
HETATM   14  C   UNL     1     -10.378  18.034  65.765  1.00  0.00    -0.178 A  
HETATM   15  C   UNL     1     -11.471  18.094  64.904  1.00  0.00     2.519 A  
HETATM   16  C   UNL     1     -11.461  15.675  64.769  1.00  0.00    -0.284 A  
HETATM   17  C   UNL     1      -9.845  16.794  66.149  1.00  0.00    -0.330 A  
HETATM   18  C   UNL     1     -12.019  16.912  64.413  1.00  0.00     1.775 A  
ENDBRANCH  11  13
ENDBRANCH   5   9
BRANCH   7  19
HETATM   19  C   UNL     1      -8.867  12.901  68.465  1.00  0.00    -0.044 A  
HETATM   20  C   UNL     1      -9.982  13.661  68.870  1.00  0.00    -0.014 A  
HETATM   21  C   UNL     1      -7.531  14.223  70.030  1.00  0.00     0.450 A  
HETATM   22  C   UNL     1      -8.657  14.928  70.446  1.00  0.00     1.225 A  
HETATM   23  C   UNL     1      -7.638  13.201  69.071  1.00  0.00     0.133 A  
HETATM   24  C   UNL     1      -9.887  14.639  69.872  1.00  0.00     0.360 A  
ENDBRANCH   7  19
BRANCH   8  25
HETATM   25  C   UNL     1      -7.537   9.991  68.641  1.00  0.00    -0.088 A  
HETATM   26  C   UNL     1      -7.343  10.639  69.873  1.00  0.00    -0.074 A  
HETATM   27  C   UNL     1      -5.983   8.280  69.451  1.00  0.00    -0.037 A  
HETATM   28  C   UNL     1      -6.823   8.797  68.449  1.00  0.00    -0.065 A  
HETATM   29  F   UNL     1      -5.147   8.388  71.658  1.00  0.00    -0.032 F  
HETATM   30  C   UNL     1      -6.589  10.083  70.910  1.00  0.00     0.024 A  
HETATM   31  C   UNL     1      -5.903   8.908  70.686  1.00  0.00    -0.033 A  
ENDBRANCH   8  25
BRANCH   6  32
HETATM   32  C   UNL     1      -8.480   8.426  66.173  1.00  0.00    -0.131 C  
BRANCH  32  33
HETATM   33  C   UNL     1      -9.405   7.309  66.690  1.00  0.00    -0.215 C  
BRANCH  33  34
HETATM   34  C   UNL     1     -10.418   7.773  67.757  1.00  0.00    -0.211 C  
HETATM   35  O   UNL     1     -11.605   8.317  67.181  1.00  0.00     0.765 OA 
HETATM   36  H   UNL     1     -12.229   8.602  67.838  1.00  0.00     0.000 HD 
BRANCH  34  37
HETATM   37  C   UNL     1     -10.852   6.584  68.633  1.00  0.00    -0.357 C  
BRANCH  37  38
HETATM   38  C   UNL     1     -10.691   6.844  70.141  1.00  0.00    -0.237 C  
HETATM   39  H   UNL     1      -9.979   8.279  71.316  1.00  0.00     0.000 HD 
HETATM   40  O   UNL     1     -10.078   8.119  70.385  1.00  0.00    -0.191 OA 
BRANCH  38  41
HETATM   41  C   UNL     1     -12.055   6.860  70.831  1.00  0.00    -0.424 C  
HETATM   42  C   UNL     1     -12.501   8.247  71.232  1.00  0.00    -0.245 C  
HETATM   43  O   UNL     1     -12.226   9.211  70.328  1.00  0.00     0.091 OA 
HETATM   44  O   UNL     1     -13.128   8.472  72.258  1.00  0.00    -0.350 OA 
ENDBRANCH  38  41
ENDBRANCH  37  38
ENDBRANCH  34  37
ENDBRANCH  33  34
ENDBRANCH  32  33
ENDBRANCH   6  32
TORSDOF 10
ENDMDL
MODEL      184
REMARK 921   NORMALIZED FREE ENERGY PREDICTED BY IDOCK:    8.78 KCAL/MOL
REMARK 922        TOTAL FREE ENERGY PREDICTED BY IDOCK:   11.16 KCAL/MOL
REMARK 923 INTER-LIGAND FREE ENERGY PREDICTED BY IDOCK:    8.41 KCAL/MOL
REMARK 924 INTRA-LIGAND FREE ENERGY PREDICTED BY IDOCK:    2.75 KCAL/MOL
REMARK 927      BINDING AFFINITY PREDICTED BY RF-SCORE:    0.00 PKD
ROOT
HETATM    1  C   UNL     1      -9.754  13.257  69.795  1.00  0.00     1.798 C  
HETATM    2  C   UNL     1     -10.547  11.983  70.092  1.00  0.00     1.415 C  
HETATM    3  C   UNL     1     -10.520  10.911  68.994  1.00  0.00    -0.219 A  
HETATM    4  C   UNL     1     -11.942  12.336  70.612  1.00  0.00    -0.218 C  
HETATM    5  C   UNL     1     -10.364  10.981  67.596  1.00  0.00    -0.223 A  
HETATM    6  N   UNL     1     -10.526   9.552  69.335  1.00  0.00    -0.209 NA 
HETATM    7  C   UNL     1     -10.043   9.622  67.139  1.00  0.00    -0.276 A  
HETATM    8  C   UNL     1     -10.230   8.745  68.223  1.00  0.00    -0.201 A  
ENDROOT
BRANCH   5   9
HETATM    9  C   UNL     1     -10.378  12.210  66.742  1.00  0.00    -0.213 C  
HETATM   10  O   UNL     1      -9.347  12.864  66.579  1.00  0.00    -0.246 OA 
HETATM   11  N   UNL     1     -11.602  12.528  66.170  1.00  0.00    -0.375 N  
HETATM   12  H   UNL     1     -12.398  11.942  66.424  1.00  0.00     0.000 HD 
BRANCH  11  13
HETATM   13  C   UNL     1     -11.850  13.593  65.264  1.00  0.00    -0.349 A  
HETATM   14  C   UNL     1     -12.155  15.950  64.726  1.00  0.00     0.324 A  
HETATM   15  C   UNL     1     -12.349  15.641  63.383  1.00  0.00     1.718 A  
HETATM   16  C   UNL     1     -12.010  13.299  63.904  1.00  0.00    -0.541 A  
HETATM   17  C   UNL     1     -11.916  14.932  65.662  1.00  0.00    -0.068 A  
HETATM   18  C   UNL     1     -12.286  14.312  62.973  1.00  0.00     1.209 A  
ENDBRANCH  11  13
ENDBRANCH   5   9
BRANCH   7  19
HETATM   19  C   UNL     1      -9.592   9.171  65.793  1.00  0.00    -0.323 A  
HETATM   20  C   UNL     1     -10.481   9.153  64.701  1.00  0.00     3.255 A  
HETATM   21  C   UNL     1      -7.880   8.306  64.276  1.00  0.00    -0.144 A  
HETATM   22  C   UNL     1      -8.766   8.342  63.203  1.00  0.00     0.206 A  
HETATM   23  C   UNL     1      -8.278   8.742  65.551  1.00  0.00    -0.133 A  
HETATM   24  C   UNL     1     -10.067   8.776  63.415  1.00  0.00     4.401 A  
ENDBRANCH   7  19
BRANCH   8  25
HETATM   25  C   UNL     1     -10.191   7.237  68.276  1.00  0.00    -0.208 A  
HETATM   26  C   UNL     1      -9.635   6.469  67.240  1.00  0.00    -0.148 A  
HETATM   27  C   UNL     1     -10.654   5.118  69.414  1.00  0.00    -0.104 A  
HETATM   28  C   UNL     1     -10.714   6.522  69.367  1.00  0.00    -0.328 A  
HETATM   29  F   UNL     1      -9.899   3.083  68.480  1.00  0.00    -0.215 F  
HETATM   30  C   UNL     1      -9.482   5.083  67.323  1.00  0.00    -0.149 A  
HETATM   31  C   UNL     1     -10.005   4.414  68.409  1.00  0.00     0.000 A  
ENDBRANCH   8  25
BRANCH   6  32
HETATM   32  C   UNL     1     -10.906   9.037  70.660  1.00  0.00    -0.243 C  
BRANCH  32  33
HETATM   33  C   UNL     1     -10.113   7.813  71.154  1.00  0.00    -0.206 C  
BRANCH  33  34
HETATM   34  C   UNL     1      -8.629   7.811  70.732  1.00  0.00    -0.133 C  
HETATM   35  O   UNL     1      -7.829   8.667  71.548  1.00  0.00    -0.119 OA 
HETATM   36  H   UNL     1      -6.916   8.666  71.288  1.00  0.00     0.000 HD 
BRANCH  34  37
HETATM   37  C   UNL     1      -8.039   6.396  70.860  1.00  0.00    -0.124 C  
BRANCH  37  38
HETATM   38  C   UNL     1      -6.748   6.193  70.048  1.00  0.00    -0.056 C  
HETATM   39  H   UNL     1      -4.876   6.858  70.079  1.00  0.00     0.000 HD 
HETATM   40  O   UNL     1      -5.672   6.982  70.580  1.00  0.00    -0.026 OA 
BRANCH  38  41
HETATM   41  C   UNL     1      -6.304   4.733  70.101  1.00  0.00    -0.026 C  
HETATM   42  C   UNL     1      -6.349   4.048  68.754  1.00  0.00    -0.033 C  
HETATM   43  O   UNL     1      -5.931   4.811  67.721  1.00  0.00    -0.021 OA 
HETATM   44  O   UNL     1      -6.666   2.876  68.615  1.00  0.00    -0.036 OA 
ENDBRANCH  38  41
ENDBRANCH  37  38
ENDBRANCH  34  37
ENDBRANCH  33  34
ENDBRANCH  32  33
ENDBRANCH   6  32
TORSDOF 10
ENDMDL
MODEL      185
REMARK 921   NORMALIZED FREE ENERGY PREDICTED BY IDOCK:   10.60 KCAL/MOL
REMARK 922        TOTAL FREE ENERGY PREDICTED BY IDOCK:   14.04 KCAL/MOL
REMARK 923 INTER-LIGAND FREE ENERGY PREDICTED BY IDOCK:   14.66 KCAL/MOL
REMARK 924 INTRA-LIGAND FREE ENERGY PREDICTED BY IDOCK:   -0.62 KCAL/MOL
REMARK 927      BINDING AFFINITY PREDICTED BY RF-SCORE:    0.00 PKD
ROOT
HETATM    1  C   UNL     1     -10.517  11.710  65.150  1.00  0.00    -0.329 C  
HETATM    2  C   UNL     1     -11.241  12.803  65.940  1.00  0.00    -0.334 C  
HETATM    3  C   UNL     1     -10.453  13.414  67.106  1.00  0.00    -0.249 A  
HETATM    4  C   UNL     1     -12.661  12.351  66.289  1.00  0.00     0.845 C  
HETATM    5  C   UNL     1      -9.439  12.909  67.942  1.00  0.00    -0.208 A  
HETATM    6  N   UNL     1     -10.601  14.772  67.421  1.00  0.00    -0.264 NA 
HETATM    7  C   UNL     1      -8.823  14.067  68.605  1.00  0.00    -0.104 A  
HETATM    8  C   UNL     1      -9.614  15.197  68.327  1.00  0.00    -0.211 A  
ENDROOT
BRANCH   5   9
HETATM    9  C   UNL     1      -8.969  11.492  68.043  1.00  0.00    -0.170 C  
HETATM   10  O   UNL     1      -9.739  10.610  68.423  1.00  0.00    -0.155 OA 
HETATM   11  N   UNL     1      -7.648  11.270  67.677  1.00  0.00    -0.102 N  
HETATM   12  H   UNL     1      -7.092  12.090  67.432  1.00  0.00     0.000 HD 
BRANCH  11  13
HETATM   13  C   UNL     1      -6.999  10.009  67.613  1.00  0.00    -0.085 A  
HETATM   14  C   UNL     1      -6.654   7.799  66.648  1.00  0.00    -0.054 A  
HETATM   15  C   UNL     1      -5.645   7.531  67.568  1.00  0.00    -0.034 A  
HETATM   16  C   UNL     1      -5.956   9.741  68.510  1.00  0.00    -0.042 A  
HETATM   17  C   UNL     1      -7.333   9.026  66.676  1.00  0.00    -0.086 A  
HETATM   18  C   UNL     1      -5.302   8.500  68.507  1.00  0.00    -0.033 A  
ENDBRANCH  11  13
ENDBRANCH   5   9
BRANCH   7  19
HETATM   19  C   UNL     1      -7.587  14.120  69.434  1.00  0.00     0.137 A  
HETATM   20  C   UNL     1      -6.437  13.394  69.066  1.00  0.00    -0.105 A  
HETATM   21  C   UNL     1      -6.337  14.902  71.386  1.00  0.00     0.554 A  
HETATM   22  C   UNL     1      -5.200  14.212  70.974  1.00  0.00    -0.136 A  
HETATM   23  C   UNL     1      -7.510  14.879  70.611  1.00  0.00     0.981 A  
HETATM   24  C   UNL     1      -5.248  13.465  69.806  1.00  0.00    -0.088 A  
ENDBRANCH   7  19
BRANCH   8  25
HETATM   25  C   UNL     1      -9.533  16.602  68.872  1.00  0.00    -0.251 A  
HETATM   26  C   UNL     1     -10.561  17.159  69.651  1.00  0.00     0.008 A  
HETATM   27  C   UNL     1      -8.352  18.728  69.152  1.00  0.00    -0.029 A  
HETATM   28  C   UNL     1      -8.425  17.428  68.623  1.00  0.00    -0.257 A  
HETATM   29  F   UNL     1      -9.254  20.411  70.545  1.00  0.00     0.447 F  
HETATM   30  C   UNL     1     -10.453  18.412  70.261  1.00  0.00     1.621 A  
HETATM   31  C   UNL     1      -9.349  19.195  69.997  1.00  0.00     0.977 A  
ENDBRANCH   8  25
BRANCH   6  32
HETATM   32  C   UNL     1     -11.714  15.611  66.950  1.00  0.00     0.327 C  
BRANCH  32  33
HETATM   33  C   UNL     1     -11.643  16.050  65.475  1.00  0.00     0.451 C  
BRANCH  33  34
HETATM   34  C   UNL     1     -10.357  15.606  64.747  1.00  0.00     0.058 C  
HETATM   35  O   UNL     1     -10.633  14.830  63.581  1.00  0.00     0.896 OA 
HETATM   36  H   UNL     1      -9.841  14.557  63.132  1.00  0.00     0.000 HD 
BRANCH  34  37
HETATM   37  C   UNL     1      -9.555  16.835  64.284  1.00  0.00     5.451 C  
BRANCH  37  38
HETATM   38  C   UNL     1      -9.462  17.942  65.349  1.00  0.00     1.195 C  
HETATM   39  H   UNL     1      -8.068  18.736  66.522  1.00  0.00     0.000 HD 
HETATM   40  O   UNL     1      -8.125  18.054  65.865  1.00  0.00    -0.519 OA 
BRANCH  38  41
HETATM   41  C   UNL     1      -9.827  19.298  64.748  1.00  0.00     3.342 C  
HETATM   42  C   UNL     1     -10.713  20.129  65.646  1.00  0.00    -0.137 C  
HETATM   43  O   UNL     1     -10.396  20.071  66.958  1.00  0.00    -0.428 OA 
HETATM   44  O   UNL     1     -11.599  20.855  65.219  1.00  0.00     1.787 OA 
ENDBRANCH  38  41
ENDBRANCH  37  38
ENDBRANCH  34  37
ENDBRANCH  33  34
ENDBRANCH  32  33
ENDBRANCH   6  32
TORSDOF 10
ENDMDL
MODEL      186
REMARK 921   NORMALIZED FREE ENERGY PREDICTED BY IDOCK:   14.58 KCAL/MOL
REMARK 922        TOTAL FREE ENERGY PREDICTED BY IDOCK:   20.35 KCAL/MOL
REMARK 923 INTER-LIGAND FREE ENERGY PREDICTED BY IDOCK:    4.41 KCAL/MOL
REMARK 924 INTRA-LIGAND FREE ENERGY PREDICTED BY IDOCK:   15.94 KCAL/MOL
REMARK 927      BINDING AFFINITY PREDICTED BY RF-SCORE:    0.00 PKD
ROOT
HETATM    1  C   UNL     1     -12.029  17.047  67.261  1.00  0.00     1.903 C  
HETATM    2  C   UNL     1     -10.867  16.065  67.099  1.00  0.00    -0.239 C  
HETATM    3  C   UNL     1     -11.024  14.723  67.825  1.00  0.00    -0.291 A  
HETATM    4  C   UNL     1      -9.534  16.776  67.342  1.00  0.00    -0.236 C  
HETATM    5  C   UNL     1     -11.724  14.342  68.987  1.00  0.00    -0.345 A  
HETATM    6  N   UNL     1     -10.514  13.548  67.255  1.00  0.00    -0.248 NA 
HETATM    7  C   UNL     1     -11.812  12.876  68.965  1.00  0.00    -0.352 A  
HETATM    8  C   UNL     1     -10.986  12.407  67.927  1.00  0.00    -0.228 A  
ENDROOT
BRANCH   5   9
HETATM    9  C   UNL     1     -12.380  15.243  69.986  1.00  0.00    -0.328 C  
HETATM   10  O   UNL     1     -13.448  15.793  69.718  1.00  0.00     0.437 OA 
HETATM   11  N   UNL     1     -11.707  15.391  71.192  1.00  0.00    -0.330 N  
HETATM   12  H   UNL     1     -10.801  14.929  71.276  1.00  0.00     0.000 HD 
BRANCH  11  13
HETATM   13  C   UNL     1     -12.163  16.124  72.319  1.00  0.00    -0.496 A  
HETATM   14  C   UNL     1     -13.742  16.562  74.123  1.00  0.00     1.444 A  
HETATM   15  C   UNL     1     -12.984  17.647  74.552  1.00  0.00     2.317 A  
HETATM   16  C   UNL     1     -11.390  17.196  72.783  1.00  0.00     1.160 A  
HETATM   17  C   UNL     1     -13.339  15.811  73.008  1.00  0.00    -0.679 A  
HETATM   18  C   UNL     1     -11.811  17.971  73.875  1.00  0.00     1.167 A  
ENDBRANCH  11  13
ENDBRANCH   5   9
BRANCH   7  19
HETATM   19  C   UNL     1     -12.609  11.975  69.844  1.00  0.00     0.127 A  
HETATM   20  C   UNL     1     -12.664  10.589  69.597  1.00  0.00     0.201 A  
HETATM   21  C   UNL     1     -14.096  11.588  71.746  1.00  0.00     1.154 A  
HETATM   22  C   UNL     1     -14.096  10.216  71.509  1.00  0.00     0.392 A  
HETATM   23  C   UNL     1     -13.339  12.456  70.941  1.00  0.00     0.486 A  
HETATM   24  C   UNL     1     -13.370   9.715  70.437  1.00  0.00     0.352 A  
ENDBRANCH   7  19
BRANCH   8  25
HETATM   25  C   UNL     1     -10.587  11.000  67.558  1.00  0.00    -0.266 A  
HETATM   26  C   UNL     1     -10.845   9.907  68.402  1.00  0.00    -0.263 A  
HETATM   27  C   UNL     1      -9.585   9.391  66.006  1.00  0.00    -0.328 A  
HETATM   28  C   UNL     1      -9.934  10.710  66.348  1.00  0.00    -0.273 A  
HETATM   29  F   UNL     1      -9.668   7.078  66.480  1.00  0.00    -0.208 F  
HETATM   30  C   UNL     1     -10.591   8.584  68.026  1.00  0.00    -0.197 A  
HETATM   31  C   UNL     1      -9.950   8.337  66.831  1.00  0.00    -0.273 A  
ENDBRANCH   8  25
BRANCH   6  32
HETATM   32  C   UNL     1      -9.525  13.523  66.167  1.00  0.00    -0.141 C  
BRANCH  32  33
HETATM   33  C   UNL     1      -8.674  14.797  66.008  1.00  0.00     0.423 C  
BRANCH  33  34
HETATM   34  C   UNL     1      -8.055  15.311  67.324  1.00  0.00    -0.201 C  
HETATM   35  O   UNL     1      -7.536  14.253  68.131  1.00  0.00    -0.111 OA 
HETATM   36  H   UNL     1      -7.155  14.569  68.941  1.00  0.00     0.000 HD 
BRANCH  34  37
HETATM   37  C   UNL     1      -6.882  16.261  67.027  1.00  0.00    -0.235 C  
BRANCH  37  38
HETATM   38  C   UNL     1      -7.313  17.576  66.355  1.00  0.00    -0.299 C  
HETATM   39  H   UNL     1      -8.846  18.240  65.279  1.00  0.00     0.000 HD 
HETATM   40  O   UNL     1      -8.580  17.429  65.693  1.00  0.00    -0.456 OA 
BRANCH  38  41
HETATM   41  C   UNL     1      -7.475  18.682  67.396  1.00  0.00    -0.226 C  
HETATM   42  C   UNL     1      -7.433  18.173  68.818  1.00  0.00    -0.274 C  
HETATM   43  O   UNL     1      -6.516  17.207  69.042  1.00  0.00    -0.184 OA 
HETATM   44  O   UNL     1      -8.119  18.644  69.714  1.00  0.00     0.551 OA 
ENDBRANCH  38  41
ENDBRANCH  37  38
ENDBRANCH  34  37
ENDBRANCH  33  34
ENDBRANCH  32  33
ENDBRANCH   6  32
TORSDOF 10
ENDMDL
MODEL      187
REMARK 921   NORMALIZED FREE ENERGY PREDICTED BY IDOCK:   18.91 KCAL/MOL
REMARK 922        TOTAL FREE ENERGY PREDICTED BY IDOCK:   27.20 KCAL/MOL
REMARK 923 INTER-LIGAND FREE ENERGY PREDICTED BY IDOCK:   16.06 KCAL/MOL
REMARK 924 INTRA-LIGAND FREE ENERGY PREDICTED BY IDOCK:   11.14 KCAL/MOL
REMARK 927      BINDING AFFINITY PREDICTED BY RF-SCORE:    0.00 PKD
ROOT
HETATM    1  C   UNL     1      -8.934  13.188  65.046  1.00  0.00     1.573 C  
HETATM    2  C   UNL     1      -9.232  14.645  65.403  1.00  0.00     0.634 C  
HETATM    3  C   UNL     1      -8.842  15.076  66.823  1.00  0.00    -0.268 A  
HETATM    4  C   UNL     1     -10.659  15.011  64.989  1.00  0.00    -0.437 C  
HETATM    5  C   UNL     1      -8.729  14.372  68.037  1.00  0.00    -0.170 A  
HETATM    6  N   UNL     1      -8.372  16.376  67.061  1.00  0.00    -0.182 NA 
HETATM    7  C   UNL     1      -7.959  15.227  68.951  1.00  0.00    -0.176 A  
HETATM    8  C   UNL     1      -7.822  16.492  68.349  1.00  0.00    -0.187 A  
ENDROOT
BRANCH   5   9
HETATM    9  C   UNL     1      -9.175  12.972  68.317  1.00  0.00    -0.191 C  
HETATM   10  O   UNL     1     -10.375  12.707  68.396  1.00  0.00    -0.228 OA 
HETATM   11  N   UNL     1      -8.159  12.037  68.467  1.00  0.00    -0.226 N  
HETATM   12  H   UNL     1      -7.201  12.387  68.436  1.00  0.00     0.000 HD 
BRANCH  11  13
HETATM   13  C   UNL     1      -8.329  10.640  68.659  1.00  0.00    -0.137 A  
HETATM   14  C   UNL     1      -8.327   8.332  67.877  1.00  0.00    -0.128 A  
HETATM   15  C   UNL     1      -8.691   7.882  69.143  1.00  0.00    -0.138 A  
HETATM   16  C   UNL     1      -8.659  10.171  69.937  1.00  0.00    -0.100 A  
HETATM   17  C   UNL     1      -8.156   9.704  67.635  1.00  0.00    -0.113 A  
HETATM   18  C   UNL     1      -8.866   8.802  70.172  1.00  0.00    -0.160 A  
ENDBRANCH  11  13
ENDBRANCH   5   9
BRANCH   7  19
HETATM   19  C   UNL     1      -7.388  14.892  70.285  1.00  0.00     0.336 A  
HETATM   20  C   UNL     1      -5.994  14.817  70.477  1.00  0.00    -0.156 A  
HETATM   21  C   UNL     1      -7.637  14.302  72.646  1.00  0.00     5.904 A  
HETATM   22  C   UNL     1      -6.255  14.280  72.819  1.00  0.00     0.844 A  
HETATM   23  C   UNL     1      -8.198  14.631  71.400  1.00  0.00     4.028 A  
HETATM   24  C   UNL     1      -5.433  14.549  71.734  1.00  0.00    -0.118 A  
ENDBRANCH   7  19
BRANCH   8  25
HETATM   25  C   UNL     1      -7.261  17.779  68.902  1.00  0.00    -0.256 A  
HETATM   26  C   UNL     1      -7.200  18.034  70.282  1.00  0.00     1.675 A  
HETATM   27  C   UNL     1      -6.232  19.979  68.588  1.00  0.00    -0.319 A  
HETATM   28  C   UNL     1      -6.771  18.792  68.061  1.00  0.00    -0.237 A  
HETATM   29  F   UNL     1      -5.544  21.243  70.462  1.00  0.00    -0.201 F  
HETATM   30  C   UNL     1      -6.578  19.165  70.816  1.00  0.00     0.631 A  
HETATM   31  C   UNL     1      -6.106  20.139  69.961  1.00  0.00    -0.357 A  
ENDBRANCH   8  25
BRANCH   6  32
HETATM   32  C   UNL     1      -8.540  17.497  66.124  1.00  0.00    -0.133 C  
BRANCH  32  33
HETATM   33  C   UNL     1      -9.918  18.185  66.145  1.00  0.00    -0.301 C  
BRANCH  33  34
HETATM   34  C   UNL     1      -9.961  19.532  65.394  1.00  0.00     0.516 C  
HETATM   35  O   UNL     1     -10.725  20.518  66.088  1.00  0.00    -0.005 OA 
HETATM   36  H   UNL     1     -10.751  21.348  65.626  1.00  0.00     0.000 HD 
BRANCH  34  37
HETATM   37  C   UNL     1      -8.539  20.100  65.236  1.00  0.00     0.852 C  
BRANCH  37  38
HETATM   38  C   UNL     1      -7.487  19.032  64.892  1.00  0.00     1.439 C  
HETATM   39  H   UNL     1      -6.463  18.440  63.294  1.00  0.00     0.000 HD 
HETATM   40  O   UNL     1      -7.112  19.100  63.507  1.00  0.00     2.590 OA 
BRANCH  38  41
HETATM   41  C   UNL     1      -6.216  19.246  65.713  1.00  0.00    -0.237 C  
HETATM   42  C   UNL     1      -5.679  17.971  66.321  1.00  0.00    -0.182 C  
HETATM   43  O   UNL     1      -5.750  16.890  65.515  1.00  0.00     0.508 OA 
HETATM   44  O   UNL     1      -5.153  17.931  67.424  1.00  0.00    -0.127 OA 
ENDBRANCH  38  41
ENDBRANCH  37  38
ENDBRANCH  34  37
ENDBRANCH  33  34
ENDBRANCH  32  33
ENDBRANCH   6  32
TORSDOF 10
ENDMDL
MODEL      188
REMARK 921   NORMALIZED FREE ENERGY PREDICTED BY IDOCK:   30.19 KCAL/MOL
REMARK 922        TOTAL FREE ENERGY PREDICTED BY IDOCK:   45.09 KCAL/MOL
REMARK 923 INTER-LIGAND FREE ENERGY PREDICTED BY IDOCK:   41.36 KCAL/MOL
REMARK 924 INTRA-LIGAND FREE ENERGY PREDICTED BY IDOCK:    3.73 KCAL/MOL
REMARK 927      BINDING AFFINITY PREDICTED BY RF-SCORE:    0.00 PKD
ROOT
HETATM    1  C   UNL     1     -12.159   9.762  70.769  1.00  0.00    -0.364 C  
HETATM    2  C   UNL     1     -11.581  11.160  70.999  1.00  0.00     0.258 C  
HETATM    3  C   UNL     1     -10.556  11.636  69.961  1.00  0.00     0.853 A  
HETATM    4  C   UNL     1     -11.141  11.317  72.457  1.00  0.00     8.320 C  
HETATM    5  C   UNL     1      -9.650  10.950  69.130  1.00  0.00    -0.125 A  
HETATM    6  N   UNL     1     -10.499  12.989  69.597  1.00  0.00     0.546 NA 
HETATM    7  C   UNL     1      -9.219  11.903  68.098  1.00  0.00    -0.187 A  
HETATM    8  C   UNL     1      -9.696  13.177  68.458  1.00  0.00    -0.137 A  
ENDROOT
BRANCH   5   9
HETATM    9  C   UNL     1      -9.291   9.498  69.185  1.00  0.00    -0.163 C  
HETATM   10  O   UNL     1      -8.761   9.028  70.192  1.00  0.00    -0.143 OA 
HETATM   11  N   UNL     1      -9.601   8.761  68.050  1.00  0.00    -0.140 N  
HETATM   12  H   UNL     1      -9.987   9.273  67.256  1.00  0.00     0.000 HD 
BRANCH  11  13
HETATM   13  C   UNL     1      -9.431   7.360  67.891  1.00  0.00    -0.140 A  
HETATM   14  C   UNL     1      -9.316   5.333  66.544  1.00  0.00    -0.146 A  
HETATM   15  C   UNL     1      -9.079   4.566  67.680  1.00  0.00    -0.139 A  
HETATM   16  C   UNL     1      -9.156   6.581  69.022  1.00  0.00    -0.132 A  
HETATM   17  C   UNL     1      -9.499   6.720  66.650  1.00  0.00    -0.205 A  
HETATM   18  C   UNL     1      -9.008   5.189  68.923  1.00  0.00    -0.122 A  
ENDBRANCH  11  13
ENDBRANCH   5   9
BRANCH   7  19
HETATM   19  C   UNL     1      -8.425  11.648  66.864  1.00  0.00    -0.168 A  
HETATM   20  C   UNL     1      -7.731  12.692  66.222  1.00  0.00     1.084 A  
HETATM   21  C   UNL     1      -7.593  10.160  65.109  1.00  0.00    -0.141 A  
HETATM   22  C   UNL     1      -6.878  11.201  64.522  1.00  0.00     1.058 A  
HETATM   23  C   UNL     1      -8.336  10.374  66.283  1.00  0.00    -0.146 A  
HETATM   24  C   UNL     1      -6.940  12.467  65.086  1.00  0.00     5.273 A  
ENDBRANCH   7  19
BRANCH   8  25
HETATM   25  C   UNL     1      -9.424  14.529  67.846  1.00  0.00    -0.212 A  
HETATM   26  C   UNL     1      -8.896  15.593  68.596  1.00  0.00    -0.201 A  
HETATM   27  C   UNL     1      -9.412  16.052  65.928  1.00  0.00    -0.351 A  
HETATM   28  C   UNL     1      -9.688  14.794  66.492  1.00  0.00    -0.295 A  
HETATM   29  F   UNL     1      -8.486  18.216  66.139  1.00  0.00    -0.278 F  
HETATM   30  C   UNL     1      -8.527  16.813  68.022  1.00  0.00    -0.205 A  
HETATM   31  C   UNL     1      -8.800  17.038  66.689  1.00  0.00    -0.254 A  
ENDBRANCH   8  25
BRANCH   6  32
HETATM   32  C   UNL     1     -11.108  14.078  70.374  1.00  0.00     0.336 C  
BRANCH  32  33
HETATM   33  C   UNL     1     -10.948  15.491  69.784  1.00  0.00    -0.299 C  
BRANCH  33  34
HETATM   34  C   UNL     1     -11.442  16.621  70.711  1.00  0.00     0.188 C  
HETATM   35  O   UNL     1     -11.761  16.150  72.021  1.00  0.00    -0.477 OA 
HETATM   36  H   UNL     1     -12.065  16.846  72.592  1.00  0.00     0.000 HD 
BRANCH  34  37
HETATM   37  C   UNL     1     -10.349  17.692  70.877  1.00  0.00     2.428 C  
BRANCH  37  38
HETATM   38  C   UNL     1     -10.895  19.131  70.870  1.00  0.00     3.319 C  
HETATM   39  H   UNL     1     -12.067  20.250  69.721  1.00  0.00     0.000 HD 
HETATM   40  O   UNL     1     -11.731  19.362  69.725  1.00  0.00     4.791 OA 
BRANCH  38  41
HETATM   41  C   UNL     1     -11.749  19.387  72.110  1.00  0.00     9.982 C  
HETATM   42  C   UNL     1     -10.977  19.252  73.402  1.00  0.00     4.074 C  
HETATM   43  O   UNL     1      -9.726  19.759  73.366  1.00  0.00     2.369 OA 
HETATM   44  O   UNL     1     -11.465  18.789  74.423  1.00  0.00     1.643 OA 
ENDBRANCH  38  41
ENDBRANCH  37  38
ENDBRANCH  34  37
ENDBRANCH  33  34
ENDBRANCH  32  33
ENDBRANCH   6  32
TORSDOF 10
ENDMDL
MODEL      189
REMARK 921   NORMALIZED FREE ENERGY PREDICTED BY IDOCK:   32.83 KCAL/MOL
REMARK 922        TOTAL FREE ENERGY PREDICTED BY IDOCK:   49.26 KCAL/MOL
REMARK 923 INTER-LIGAND FREE ENERGY PREDICTED BY IDOCK:   48.60 KCAL/MOL
REMARK 924 INTRA-LIGAND FREE ENERGY PREDICTED BY IDOCK:    0.67 KCAL/MOL
REMARK 927      BINDING AFFINITY PREDICTED BY RF-SCORE:    0.00 PKD
ROOT
HETATM    1  C   UNL     1      -9.058  11.433  64.593  1.00  0.00     0.059 C  
HETATM    2  C   UNL     1      -8.443  10.383  65.520  1.00  0.00    -0.171 C  
HETATM    3  C   UNL     1      -8.509  10.698  67.020  1.00  0.00    -0.129 A  
HETATM    4  C   UNL     1      -7.061   9.970  65.009  1.00  0.00    -0.136 C  
HETATM    5  C   UNL     1      -8.547  11.908  67.741  1.00  0.00    -0.154 A  
HETATM    6  N   UNL     1      -8.686   9.665  67.951  1.00  0.00    -0.119 NA 
HETATM    7  C   UNL     1      -8.986  11.574  69.102  1.00  0.00     0.264 A  
HETATM    8  C   UNL     1      -8.986  10.172  69.227  1.00  0.00    -0.183 A  
ENDROOT
BRANCH   5   9
HETATM    9  C   UNL     1      -8.325  13.288  67.207  1.00  0.00    -0.177 C  
HETATM   10  O   UNL     1      -7.309  13.914  67.509  1.00  0.00    -0.167 OA 
HETATM   11  N   UNL     1      -9.322  13.775  66.370  1.00  0.00    -0.433 N  
HETATM   12  H   UNL     1     -10.144  13.185  66.239  1.00  0.00     0.000 HD 
BRANCH  11  13
HETATM   13  C   UNL     1      -9.303  15.016  65.682  1.00  0.00    -0.020 A  
HETATM   14  C   UNL     1      -8.174  16.997  64.821  1.00  0.00     5.412 A  
HETATM   15  C   UNL     1      -9.370  17.475  64.295  1.00  0.00     7.915 A  
HETATM   16  C   UNL     1     -10.493  15.491  65.115  1.00  0.00    -0.431 A  
HETATM   17  C   UNL     1      -8.143  15.779  65.518  1.00  0.00     2.451 A  
HETATM   18  C   UNL     1     -10.533  16.726  64.450  1.00  0.00     1.736 A  
ENDBRANCH  11  13
ENDBRANCH   5   9
BRANCH   7  19
HETATM   19  C   UNL     1      -9.382  12.491  70.207  1.00  0.00     4.750 A  
HETATM   20  C   UNL     1     -10.738  12.773  70.463  1.00  0.00     2.535 A  
HETATM   21  C   UNL     1      -8.832  13.991  72.060  1.00  0.00     9.511 A  
HETATM   22  C   UNL     1     -10.181  14.215  72.321  1.00  0.00     5.836 A  
HETATM   23  C   UNL     1      -8.436  13.117  71.033  1.00  0.00     9.103 A  
HETATM   24  C   UNL     1     -11.136  13.597  71.526  1.00  0.00     2.931 A  
ENDBRANCH   7  19
BRANCH   8  25
HETATM   25  C   UNL     1      -9.203   9.301  70.439  1.00  0.00    -0.291 A  
HETATM   26  C   UNL     1     -10.191   8.303  70.472  1.00  0.00    -0.213 A  
HETATM   27  C   UNL     1      -8.627   8.615  72.718  1.00  0.00    -0.038 A  
HETATM   28  C   UNL     1      -8.428   9.446  71.602  1.00  0.00     0.584 A  
HETATM   29  F   UNL     1      -9.701   6.754  73.703  1.00  0.00    -0.169 F  
HETATM   30  C   UNL     1     -10.329   7.409  71.537  1.00  0.00    -0.216 A  
HETATM   31  C   UNL     1      -9.550   7.580  72.662  1.00  0.00    -0.170 A  
ENDBRANCH   8  25
BRANCH   6  32
HETATM   32  C   UNL     1      -8.472   8.241  67.651  1.00  0.00    -0.130 C  
BRANCH  32  33
HETATM   33  C   UNL     1      -7.519   7.940  66.479  1.00  0.00    -0.088 C  
BRANCH  33  34
HETATM   34  C   UNL     1      -7.922   6.710  65.639  1.00  0.00    -0.115 C  
HETATM   35  O   UNL     1      -6.946   6.384  64.650  1.00  0.00    -0.048 OA 
HETATM   36  H   UNL     1      -7.194   5.626  64.133  1.00  0.00     0.000 HD 
BRANCH  34  37
HETATM   37  C   UNL     1      -8.071   5.473  66.543  1.00  0.00    -0.105 C  
BRANCH  37  38
HETATM   38  C   UNL     1      -9.024   4.409  65.971  1.00  0.00    -0.122 C  
HETATM   39  H   UNL     1      -9.186   3.322  64.316  1.00  0.00     0.000 HD 
HETATM   40  O   UNL     1      -8.598   3.978  64.668  1.00  0.00    -0.111 OA 
BRANCH  38  41
HETATM   41  C   UNL     1      -9.047   3.172  66.868  1.00  0.00    -0.191 C  
HETATM   42  C   UNL     1      -9.098   3.506  68.341  1.00  0.00    -0.149 C  
HETATM   43  O   UNL     1      -9.903   4.545  68.654  1.00  0.00    -0.156 OA 
HETATM   44  O   UNL     1      -8.519   2.848  69.193  1.00  0.00    -0.058 OA 
ENDBRANCH  38  41
ENDBRANCH  37  38
ENDBRANCH  34  37
ENDBRANCH  33  34
ENDBRANCH  32  33
ENDBRANCH   6  32
TORSDOF 10
ENDMDL
MODEL      190
REMARK 921   NORMALIZED FREE ENERGY PREDICTED BY IDOCK:   56.52 KCAL/MOL
REMARK 922        TOTAL FREE ENERGY PREDICTED BY IDOCK:   86.80 KCAL/MOL
REMARK 923 INTER-LIGAND FREE ENERGY PREDICTED BY IDOCK:   31.12 KCAL/MOL
REMARK 924 INTRA-LIGAND FREE ENERGY PREDICTED BY IDOCK:   55.69 KCAL/MOL
REMARK 927      BINDING AFFINITY PREDICTED BY RF-SCORE:    0.00 PKD
ROOT
HETATM    1  C   UNL     1     -14.229  14.301  69.576  1.00  0.00     5.710 C  
HETATM    2  C   UNL     1     -13.148  15.375  69.709  1.00  0.00     0.392 C  
HETATM    3  C   UNL     1     -11.717  14.923  69.387  1.00  0.00    -0.319 A  
HETATM    4  C   UNL     1     -13.303  16.122  71.036  1.00  0.00     1.194 C  
HETATM    5  C   UNL     1     -11.069  13.676  69.471  1.00  0.00    -0.127 A  
HETATM    6  N   UNL     1     -10.820  15.808  68.773  1.00  0.00    -0.258 NA 
HETATM    7  C   UNL     1      -9.839  13.786  68.675  1.00  0.00    -0.158 A  
HETATM    8  C   UNL     1      -9.670  15.138  68.323  1.00  0.00    -0.219 A  
ENDROOT
BRANCH   5   9
HETATM    9  C   UNL     1     -11.582  12.429  70.119  1.00  0.00    -0.077 C  
HETATM   10  O   UNL     1     -12.563  12.475  70.862  1.00  0.00    -0.334 OA 
HETATM   11  N   UNL     1     -10.888  11.265  69.815  1.00  0.00    -0.465 N  
HETATM   12  H   UNL     1     -10.057  11.362  69.231  1.00  0.00     0.000 HD 
BRANCH  11  13
HETATM   13  C   UNL     1     -11.227   9.954  70.241  1.00  0.00    -0.301 A  
HETATM   14  C   UNL     1     -11.537   7.567  69.862  1.00  0.00     0.112 A  
HETATM   15  C   UNL     1     -11.919   7.384  71.187  1.00  0.00    -0.351 A  
HETATM   16  C   UNL     1     -11.578   9.750  71.582  1.00  0.00    -0.345 A  
HETATM   17  C   UNL     1     -11.201   8.845  69.390  1.00  0.00     0.138 A  
HETATM   18  C   UNL     1     -11.949   8.479  72.047  1.00  0.00    -0.427 A  
ENDBRANCH  11  13
ENDBRANCH   5   9
BRANCH   7  19
HETATM   19  C   UNL     1      -8.891  12.712  68.268  1.00  0.00    -0.172 A  
HETATM   20  C   UNL     1      -7.576  12.678  68.773  1.00  0.00    -0.022 A  
HETATM   21  C   UNL     1      -8.335  10.703  66.988  1.00  0.00    -0.126 A  
HETATM   22  C   UNL     1      -7.056  10.667  67.537  1.00  0.00    -0.089 A  
HETATM   23  C   UNL     1      -9.252  11.697  67.369  1.00  0.00    -0.168 A  
HETATM   24  C   UNL     1      -6.680  11.652  68.440  1.00  0.00    -0.064 A  
ENDBRANCH   7  19
BRANCH   8  25
HETATM   25  C   UNL     1      -8.513  15.832  67.646  1.00  0.00    -0.171 A  
HETATM   26  C   UNL     1      -8.696  16.966  66.837  1.00  0.00    -0.248 A  
HETATM   27  C   UNL     1      -6.121  16.043  67.167  1.00  0.00    -0.044 A  
HETATM   28  C   UNL     1      -7.192  15.376  67.787  1.00  0.00    -0.182 A  
HETATM   29  F   UNL     1      -5.320  17.880  65.916  1.00  0.00    -0.173 F  
HETATM   30  C   UNL     1      -7.629  17.691  66.299  1.00  0.00    -0.334 A  
HETATM   31  C   UNL     1      -6.345  17.215  66.460  1.00  0.00    -0.218 A  
ENDBRANCH   8  25
BRANCH   6  32
HETATM   32  C   UNL     1     -11.011  17.265  68.712  1.00  0.00    -0.040 C  
BRANCH  32  33
HETATM   33  C   UNL     1     -12.468  17.753  68.818  1.00  0.00     5.622 C  
BRANCH  33  34
HETATM   34  C   UNL     1     -13.496  16.625  69.045  1.00  0.00     5.457 C  
HETATM   35  O   UNL     1     -13.193  15.452  68.289  1.00  0.00     1.565 OA 
HETATM   36  H   UNL     1     -13.825  14.757  68.429  1.00  0.00     0.000 HD 
BRANCH  34  37
HETATM   37  C   UNL     1     -13.512  16.208  70.527  1.00  0.00     1.941 C  
BRANCH  37  38
HETATM   38  C   UNL     1     -12.355  16.808  71.345  1.00  0.00     1.673 C  
HETATM   39  H   UNL     1     -12.119  18.176  72.767  1.00  0.00     0.000 HD 
HETATM   40  O   UNL     1     -12.832  17.805  72.262  1.00  0.00     5.798 OA 
BRANCH  38  41
HETATM   41  C   UNL     1     -11.666  15.726  72.174  1.00  0.00    -0.573 C  
HETATM   42  C   UNL     1     -11.245  16.204  73.544  1.00  0.00     1.541 C  
HETATM   43  O   UNL     1     -12.137  17.014  74.156  1.00  0.00    -0.383 OA 
HETATM   44  O   UNL     1     -10.217  15.833  74.092  1.00  0.00     6.361 OA 
ENDBRANCH  38  41
ENDBRANCH  37  38
ENDBRANCH  34  37
ENDBRANCH  33  34
ENDBRANCH  32  33
ENDBRANCH   6  32
TORSDOF 10
ENDMDL
MODEL      191
REMARK 921   NORMALIZED FREE ENERGY PREDICTED BY IDOCK:   61.13 KCAL/MOL
REMARK 922        TOTAL FREE ENERGY PREDICTED BY IDOCK:   94.11 KCAL/MOL
REMARK 923 INTER-LIGAND FREE ENERGY PREDICTED BY IDOCK:   41.75 KCAL/MOL
REMARK 924 INTRA-LIGAND FREE ENERGY PREDICTED BY IDOCK:   52.36 KCAL/MOL
REMARK 927      BINDING AFFINITY PREDICTED BY RF-SCORE:    0.00 PKD
ROOT
HETATM    1  C   UNL     1      -9.396  11.263  65.604  1.00  0.00    -0.245 C  
HETATM    2  C   UNL     1      -9.954  12.681  65.470  1.00  0.00    -0.237 C  
HETATM    3  C   UNL     1     -10.223  13.418  66.788  1.00  0.00    -0.259 A  
HETATM    4  C   UNL     1     -11.116  12.700  64.473  1.00  0.00    -0.365 C  
HETATM    5  C   UNL     1     -10.548  12.971  68.084  1.00  0.00    -0.257 A  
HETATM    6  N   UNL     1     -10.021  14.803  66.875  1.00  0.00    -0.240 NA 
HETATM    7  C   UNL     1     -10.306  14.099  68.993  1.00  0.00    -0.159 A  
HETATM    8  C   UNL     1     -10.060  15.242  68.210  1.00  0.00    -0.225 A  
ENDROOT
BRANCH   5   9
HETATM    9  C   UNL     1     -10.931  11.584  68.493  1.00  0.00    -0.223 C  
HETATM   10  O   UNL     1     -12.016  11.374  69.036  1.00  0.00    -0.329 OA 
HETATM   11  N   UNL     1      -9.996  10.596  68.212  1.00  0.00    -0.154 N  
HETATM   12  H   UNL     1      -9.109  10.900  67.811  1.00  0.00     0.000 HD 
BRANCH  11  13
HETATM   13  C   UNL     1     -10.160   9.202  68.432  1.00  0.00    -0.196 A  
HETATM   14  C   UNL     1      -9.989   6.869  67.750  1.00  0.00    -0.180 A  
HETATM   15  C   UNL     1     -10.525   6.453  68.965  1.00  0.00    -0.267 A  
HETATM   16  C   UNL     1     -10.664   8.769  69.665  1.00  0.00    -0.212 A  
HETATM   17  C   UNL     1      -9.816   8.236  67.482  1.00  0.00    -0.231 A  
HETATM   18  C   UNL     1     -10.872   7.405  69.921  1.00  0.00    -0.259 A  
ENDBRANCH  11  13
ENDBRANCH   5   9
BRANCH   7  19
HETATM   19  C   UNL     1     -10.301  14.113  70.482  1.00  0.00     1.488 A  
HETATM   20  C   UNL     1      -9.109  14.341  71.199  1.00  0.00     4.857 A  
HETATM   21  C   UNL     1     -11.432  13.901  72.641  1.00  0.00     2.389 A  
HETATM   22  C   UNL     1     -10.249  14.174  73.324  1.00  0.00     7.043 A  
HETATM   23  C   UNL     1     -11.464  13.898  71.235  1.00  0.00     0.798 A  
HETATM   24  C   UNL     1      -9.088  14.405  72.600  1.00  0.00     8.675 A  
ENDBRANCH   7  19
BRANCH   8  25
HETATM   25  C   UNL     1      -9.902  16.686  68.616  1.00  0.00    -0.252 A  
HETATM   26  C   UNL     1      -8.940  17.096  69.555  1.00  0.00     0.524 A  
HETATM   27  C   UNL     1     -10.543  19.044  68.447  1.00  0.00    -0.146 A  
HETATM   28  C   UNL     1     -10.712  17.699  68.076  1.00  0.00    -0.333 A  
HETATM   29  F   UNL     1      -9.316  20.692  69.616  1.00  0.00     0.575 F  
HETATM   30  C   UNL     1      -8.699  18.439  69.855  1.00  0.00     1.481 A  
HETATM   31  C   UNL     1      -9.513  19.406  69.305  1.00  0.00    -0.169 A  
ENDBRANCH   8  25
BRANCH   6  32
HETATM   32  C   UNL     1      -9.900  15.692  65.710  1.00  0.00    -0.351 C  
BRANCH  32  33
HETATM   33  C   UNL     1      -9.160  17.020  65.957  1.00  0.00    -0.172 C  
BRANCH  33  34
HETATM   34  C   UNL     1      -9.458  18.112  64.908  1.00  0.00     3.549 C  
HETATM   35  O   UNL     1     -10.396  17.679  63.923  1.00  0.00     3.928 OA 
HETATM   36  H   UNL     1     -10.580  18.351  63.277  1.00  0.00     0.000 HD 
BRANCH  34  37
HETATM   37  C   UNL     1     -10.066  19.352  65.587  1.00  0.00    -0.094 C  
BRANCH  37  38
HETATM   38  C   UNL     1     -11.600  19.304  65.690  1.00  0.00     1.915 C  
HETATM   39  H   UNL     1     -13.053  17.989  65.360  1.00  0.00     0.000 HD 
HETATM   40  O   UNL     1     -12.106  18.018  65.297  1.00  0.00     3.249 OA 
BRANCH  38  41
HETATM   41  C   UNL     1     -12.050  19.544  67.130  1.00  0.00     2.502 C  
HETATM   42  C   UNL     1     -11.423  18.587  68.116  1.00  0.00     1.290 C  
HETATM   43  O   UNL     1     -10.121  18.313  67.885  1.00  0.00    -0.326 OA 
HETATM   44  O   UNL     1     -12.020  18.149  69.090  1.00  0.00     3.368 OA 
ENDBRANCH  38  41
ENDBRANCH  37  38
ENDBRANCH  34  37
ENDBRANCH  33  34
ENDBRANCH  32  33
ENDBRANCH   6  32
TORSDOF 10
ENDMDL
MODEL      192
REMARK 921   NORMALIZED FREE ENERGY PREDICTED BY IDOCK:  103.00 KCAL/MOL
REMARK 922        TOTAL FREE ENERGY PREDICTED BY IDOCK:  160.45 KCAL/MOL
REMARK 923 INTER-LIGAND FREE ENERGY PREDICTED BY IDOCK:   66.14 KCAL/MOL
REMARK 924 INTRA-LIGAND FREE ENERGY PREDICTED BY IDOCK:   94.31 KCAL/MOL
REMARK 927      BINDING AFFINITY PREDICTED BY RF-SCORE:    0.00 PKD
ROOT
HETATM    1  C   UNL     1      -9.332  11.942  66.841  1.00  0.00    -0.198 C  
HETATM    2  C   UNL     1     -10.139  13.197  67.180  1.00  0.00    -0.242 C  
HETATM    3  C   UNL     1     -10.872  13.173  68.527  1.00  0.00    -0.262 A  
HETATM    4  C   UNL     1     -11.001  13.611  65.985  1.00  0.00    -0.288 C  
HETATM    5  C   UNL     1     -11.394  12.126  69.312  1.00  0.00    -0.327 A  
HETATM    6  N   UNL     1     -11.006  14.350  69.278  1.00  0.00    -0.258 NA 
HETATM    7  C   UNL     1     -11.632  12.681  70.651  1.00  0.00     0.455 A  
HETATM    8  C   UNL     1     -11.461  14.076  70.580  1.00  0.00     0.004 A  
ENDROOT
BRANCH   5   9
HETATM    9  C   UNL     1     -11.551  10.691  68.919  1.00  0.00    -0.249 C  
HETATM   10  O   UNL     1     -12.647  10.139  69.012  1.00  0.00     0.361 OA 
HETATM   11  N   UNL     1     -10.400  10.068  68.454  1.00  0.00    -0.181 N  
HETATM   12  H   UNL     1      -9.538  10.613  68.476  1.00  0.00     0.000 HD 
BRANCH  11  13
HETATM   13  C   UNL     1     -10.311   8.743  67.952  1.00  0.00    -0.224 A  
HETATM   14  C   UNL     1      -9.519   7.082  66.354  1.00  0.00    -0.176 A  
HETATM   15  C   UNL     1     -10.198   6.074  67.033  1.00  0.00    -0.253 A  
HETATM   16  C   UNL     1     -10.960   7.713  68.647  1.00  0.00     0.090 A  
HETATM   17  C   UNL     1      -9.583   8.409  66.806  1.00  0.00    -0.283 A  
HETATM   18  C   UNL     1     -10.927   6.391  68.176  1.00  0.00    -0.393 A  
ENDBRANCH  11  13
ENDBRANCH   5   9
BRANCH   7  19
HETATM   19  C   UNL     1     -11.989  11.966  71.908  1.00  0.00     1.666 A  
HETATM   20  C   UNL     1     -11.135  12.002  73.028  1.00  0.00    13.077 A  
HETATM   21  C   UNL     1     -13.483  10.548  73.227  1.00  0.00     3.396 A  
HETATM   22  C   UNL     1     -12.643  10.638  74.335  1.00  0.00    17.419 A  
HETATM   23  C   UNL     1     -13.175  11.227  72.036  1.00  0.00    -0.437 A  
HETATM   24  C   UNL     1     -11.472  11.375  74.237  1.00  0.00    20.436 A  
ENDBRANCH   7  19
BRANCH   8  25
HETATM   25  C   UNL     1     -11.726  15.145  71.611  1.00  0.00    -0.458 A  
HETATM   26  C   UNL     1     -11.074  15.159  72.855  1.00  0.00     0.577 A  
HETATM   27  C   UNL     1     -12.869  17.185  72.340  1.00  0.00     3.422 A  
HETATM   28  C   UNL     1     -12.645  16.183  71.379  1.00  0.00    -0.037 A  
HETATM   29  F   UNL     1     -12.299  18.190  74.402  1.00  0.00     0.466 F  
HETATM   30  C   UNL     1     -11.217  16.203  73.773  1.00  0.00     1.699 A  
HETATM   31  C   UNL     1     -12.126  17.206  73.512  1.00  0.00     0.324 A  
ENDBRANCH   8  25
BRANCH   6  32
HETATM   32  C   UNL     1     -10.806  15.701  68.734  1.00  0.00    -0.262 C  
BRANCH  32  33
HETATM   33  C   UNL     1      -9.712  16.542  69.418  1.00  0.00    -0.128 C  
BRANCH  33  34
HETATM   34  C   UNL     1      -8.462  15.736  69.828  1.00  0.00     0.136 C  
HETATM   35  O   UNL     1      -7.542  16.512  70.595  1.00  0.00     2.192 OA 
HETATM   36  H   UNL     1      -6.772  16.016  70.848  1.00  0.00     0.000 HD 
BRANCH  34  37
HETATM   37  C   UNL     1      -8.865  14.533  70.699  1.00  0.00     2.495 C  
BRANCH  37  38
HETATM   38  C   UNL     1      -9.060  13.234  69.897  1.00  0.00     2.694 C  
HETATM   39  H   UNL     1     -10.555  12.017  69.417  1.00  0.00     0.000 HD 
HETATM   40  O   UNL     1     -10.435  12.818  69.911  1.00  0.00     0.777 OA 
BRANCH  38  41
HETATM   41  C   UNL     1      -8.668  13.442  68.435  1.00  0.00    -0.134 C  
HETATM   42  C   UNL     1      -9.818  13.900  67.569  1.00  0.00    -0.236 C  
HETATM   43  O   UNL     1     -10.634  14.805  68.152  1.00  0.00    -0.235 OA 
HETATM   44  O   UNL     1      -9.962  13.542  66.409  1.00  0.00    -0.280 OA 
ENDBRANCH  38  41
ENDBRANCH  37  38
ENDBRANCH  34  37
ENDBRANCH  33  34
ENDBRANCH  32  33
ENDBRANCH   6  32
TORSDOF 10
ENDMDL
