MODEL        1
REMARK 921   NORMALIZED FREE ENERGY PREDICTED BY IDOCK:   -8.13 KCAL/MOL
REMARK 922        TOTAL FREE ENERGY PREDICTED BY IDOCK:   -9.96 KCAL/MOL
REMARK 923 INTER-LIGAND FREE ENERGY PREDICTED BY IDOCK:   -9.08 KCAL/MOL
REMARK 924 INTRA-LIGAND FREE ENERGY PREDICTED BY IDOCK:   -0.88 KCAL/MOL
REMARK 927      BINDING AFFINITY PREDICTED BY RF-SCORE:    0.00 PKD
ROOT
HETATM    1  O   UNL     1     -11.281  14.328  65.172  1.00  0.00    -0.315 OA 
HETATM    2  C   UNL     1     -10.897  15.288  66.092  1.00  0.00    -0.320 C  
HETATM    3  H   UNL     1     -11.533  14.526  64.278  1.00  0.00     0.000 HD 
HETATM    4  C   UNL     1     -10.539  15.007  67.362  1.00  0.00    -0.271 C  
HETATM    5  C   UNL     1     -10.240  16.161  68.293  1.00  0.00    -0.248 C  
HETATM    6  C   UNL     1     -10.527  17.793  66.456  1.00  0.00    -0.297 A  
HETATM    7  C   UNL     1     -10.435  19.105  65.967  1.00  0.00    -0.546 A  
HETATM    8  C   UNL     1     -10.319  17.543  67.800  1.00  0.00    -0.367 A  
HETATM    9  O   UNL     1      -9.901  15.977  69.459  1.00  0.00    -0.254 OA 
HETATM   10  C   UNL     1     -10.109  18.611  68.686  1.00  0.00    -0.412 A  
HETATM   11  C   UNL     1     -10.867  16.686  65.548  1.00  0.00    -0.163 C  
HETATM   12  C   UNL     1     -10.044  19.920  68.206  1.00  0.00    -0.571 A  
HETATM   13  O   UNL     1     -11.125  16.930  64.372  1.00  0.00    -1.128 OA 
HETATM   14  C   UNL     1     -10.180  20.164  66.841  1.00  0.00    -0.566 A  
ENDROOT
BRANCH   4  15
HETATM   15  C   UNL     1     -10.258  13.635  68.015  1.00  0.00    -0.248 C  
HETATM   16  C   UNL     1      -9.575  11.342  66.877  1.00  0.00    -0.203 C  
HETATM   17  C   UNL     1      -9.147  12.707  67.445  1.00  0.00    -0.191 C  
HETATM   18  C   UNL     1     -11.885  11.651  67.644  1.00  0.00    -0.216 C  
HETATM   19  C   UNL     1     -11.545  12.894  68.448  1.00  0.00    -0.369 C  
HETATM   20  C   UNL     1     -10.720  10.652  67.641  1.00  0.00    -0.315 C  
BRANCH  20  21
HETATM   21  C   UNL     1     -10.408  10.099  69.035  1.00  0.00    -0.230 A  
HETATM   22  C   UNL     1      -9.750   9.007  71.556  1.00  0.00    -0.295 A  
HETATM   23  C   UNL     1      -9.079   9.770  69.369  1.00  0.00    -0.209 A  
HETATM   24  C   UNL     1      -8.752   9.223  70.615  1.00  0.00    -0.282 A  
HETATM   25  C   UNL     1     -11.066   9.345  71.265  1.00  0.00    -0.446 A  
HETATM   26 CL   UNL     1      -9.359   8.335  73.091  1.00  0.00    -0.318 Cl 
HETATM   27  C   UNL     1     -11.386   9.902  70.022  1.00  0.00    -0.303 A  
ENDBRANCH  20  21
ENDBRANCH   4  15
TORSDOF 2
ENDMDL
MODEL        2
REMARK 921   NORMALIZED FREE ENERGY PREDICTED BY IDOCK:   -8.07 KCAL/MOL
REMARK 922        TOTAL FREE ENERGY PREDICTED BY IDOCK:   -9.89 KCAL/MOL
REMARK 923 INTER-LIGAND FREE ENERGY PREDICTED BY IDOCK:   -9.02 KCAL/MOL
REMARK 924 INTRA-LIGAND FREE ENERGY PREDICTED BY IDOCK:   -0.87 KCAL/MOL
REMARK 927      BINDING AFFINITY PREDICTED BY RF-SCORE:    0.00 PKD
ROOT
HETATM    1  O   UNL     1     -11.216  14.418  65.139  1.00  0.00    -0.326 OA 
HETATM    2  C   UNL     1     -10.813  15.344  66.085  1.00  0.00    -0.313 C  
HETATM    3  H   UNL     1     -11.478  14.646  64.255  1.00  0.00     0.000 HD 
HETATM    4  C   UNL     1     -10.441  15.019  67.340  1.00  0.00    -0.257 C  
HETATM    5  C   UNL     1     -10.121  16.140  68.304  1.00  0.00    -0.232 C  
HETATM    6  C   UNL     1     -10.419  17.833  66.526  1.00  0.00    -0.297 A  
HETATM    7  C   UNL     1     -10.323  19.160  66.078  1.00  0.00    -0.538 A  
HETATM    8  C   UNL     1     -10.195  17.537  67.858  1.00  0.00    -0.350 A  
HETATM    9  O   UNL     1      -9.768  15.915  69.459  1.00  0.00    -0.262 OA 
HETATM   10  C   UNL     1      -9.966  18.574  68.775  1.00  0.00    -0.417 A  
HETATM   11  C   UNL     1     -10.780  16.759  65.587  1.00  0.00    -0.192 C  
HETATM   12  C   UNL     1      -9.896  19.898  68.337  1.00  0.00    -0.489 A  
HETATM   13  O   UNL     1     -11.050  17.043  64.423  1.00  0.00    -1.144 OA 
HETATM   14  C   UNL     1     -10.048  20.188  66.983  1.00  0.00    -0.599 A  
ENDROOT
BRANCH   4  15
HETATM   15  C   UNL     1     -10.162  13.624  67.944  1.00  0.00    -0.250 C  
HETATM   16  C   UNL     1      -9.707  11.322  66.715  1.00  0.00    -0.218 C  
HETATM   17  C   UNL     1      -9.159  12.655  67.254  1.00  0.00    -0.191 C  
HETATM   18  C   UNL     1     -11.911  11.724  67.714  1.00  0.00    -0.266 C  
HETATM   19  C   UNL     1     -11.434  12.937  68.495  1.00  0.00    -0.345 C  
HETATM   20  C   UNL     1     -10.801  10.673  67.581  1.00  0.00    -0.346 C  
BRANCH  20  21
HETATM   21  C   UNL     1     -10.378  10.082  68.929  1.00  0.00    -0.217 A  
HETATM   22  C   UNL     1      -9.679   9.062  71.470  1.00  0.00    -0.295 A  
HETATM   23  C   UNL     1     -11.350   9.866  69.927  1.00  0.00    -0.273 A  
HETATM   24  C   UNL     1     -11.004   9.367  71.188  1.00  0.00    -0.430 A  
HETATM   25  C   UNL     1      -8.702   9.241  70.497  1.00  0.00    -0.276 A  
HETATM   26 CL   UNL     1      -9.244   8.448  73.017  1.00  0.00    -0.305 Cl 
HETATM   27  C   UNL     1      -9.054   9.729  69.234  1.00  0.00    -0.189 A  
ENDBRANCH  20  21
ENDBRANCH   4  15
TORSDOF 2
ENDMDL
MODEL        3
REMARK 921   NORMALIZED FREE ENERGY PREDICTED BY IDOCK:   -7.22 KCAL/MOL
REMARK 922        TOTAL FREE ENERGY PREDICTED BY IDOCK:   -8.94 KCAL/MOL
REMARK 923 INTER-LIGAND FREE ENERGY PREDICTED BY IDOCK:   -8.05 KCAL/MOL
REMARK 924 INTRA-LIGAND FREE ENERGY PREDICTED BY IDOCK:   -0.89 KCAL/MOL
REMARK 927      BINDING AFFINITY PREDICTED BY RF-SCORE:    0.00 PKD
ROOT
HETATM    1  O   UNL     1     -10.530  17.505  65.696  1.00  0.00    -0.588 OA 
HETATM    2  C   UNL     1      -9.497  17.767  66.578  1.00  0.00    -0.290 C  
HETATM    3  H   UNL     1     -10.833  18.122  65.040  1.00  0.00     0.000 HD 
HETATM    4  C   UNL     1      -9.067  16.892  67.510  1.00  0.00    -0.222 C  
HETATM    5  C   UNL     1      -7.995  17.345  68.477  1.00  0.00    -0.266 C  
HETATM    6  C   UNL     1      -7.776  19.514  67.309  1.00  0.00    -0.285 A  
HETATM    7  C   UNL     1      -7.111  20.737  67.124  1.00  0.00    -0.404 A  
HETATM    8  C   UNL     1      -7.435  18.698  68.372  1.00  0.00    -0.320 A  
HETATM    9  O   UNL     1      -7.553  16.596  69.344  1.00  0.00    -0.201 OA 
HETATM   10  C   UNL     1      -6.493  19.137  69.315  1.00  0.00    -0.332 A  
HETATM   11  C   UNL     1      -8.850  19.108  66.388  1.00  0.00    -0.338 C  
HETATM   12  C   UNL     1      -5.850  20.365  69.149  1.00  0.00    -0.375 A  
HETATM   13  O   UNL     1      -9.197  19.874  65.493  1.00  0.00    -0.231 OA 
HETATM   14  C   UNL     1      -6.140  21.153  68.038  1.00  0.00    -0.373 A  
ENDROOT
BRANCH   4  15
HETATM   15  C   UNL     1      -9.422  15.398  67.680  1.00  0.00    -0.205 C  
HETATM   16  C   UNL     1     -10.392  13.688  65.905  1.00  0.00    -0.304 C  
HETATM   17  C   UNL     1      -9.170  14.393  66.519  1.00  0.00    -0.269 C  
HETATM   18  C   UNL     1     -11.894  14.622  67.605  1.00  0.00    -0.366 C  
HETATM   19  C   UNL     1     -10.750  15.173  68.439  1.00  0.00    -0.248 C  
HETATM   20  C   UNL     1     -11.497  13.314  66.908  1.00  0.00    -0.376 C  
BRANCH  20  21
HETATM   21  C   UNL     1     -11.202  12.181  67.895  1.00  0.00    -0.329 A  
HETATM   22  C   UNL     1     -10.680  10.166  69.807  1.00  0.00    -0.279 A  
HETATM   23  C   UNL     1     -11.955  12.082  69.083  1.00  0.00    -0.326 A  
HETATM   24  C   UNL     1     -11.693  11.089  70.033  1.00  0.00    -0.437 A  
HETATM   25  C   UNL     1      -9.938  10.223  68.633  1.00  0.00    -0.183 A  
HETATM   26 CL   UNL     1     -10.350   8.941  70.969  1.00  0.00    -0.293 Cl 
HETATM   27  C   UNL     1     -10.211  11.211  67.680  1.00  0.00    -0.208 A  
ENDBRANCH  20  21
ENDBRANCH   4  15
TORSDOF 2
ENDMDL
MODEL        4
REMARK 921   NORMALIZED FREE ENERGY PREDICTED BY IDOCK:   -7.14 KCAL/MOL
REMARK 922        TOTAL FREE ENERGY PREDICTED BY IDOCK:   -8.85 KCAL/MOL
REMARK 923 INTER-LIGAND FREE ENERGY PREDICTED BY IDOCK:   -8.26 KCAL/MOL
REMARK 924 INTRA-LIGAND FREE ENERGY PREDICTED BY IDOCK:   -0.59 KCAL/MOL
REMARK 927      BINDING AFFINITY PREDICTED BY RF-SCORE:    0.00 PKD
ROOT
HETATM    1  O   UNL     1     -11.209  14.259  64.665  1.00  0.00    -0.385 OA 
HETATM    2  C   UNL     1     -10.851  15.157  65.654  1.00  0.00    -0.360 C  
HETATM    3  H   UNL     1     -11.503  14.516  63.799  1.00  0.00     0.000 HD 
HETATM    4  C   UNL     1     -10.436  14.790  66.884  1.00  0.00    -0.277 C  
HETATM    5  C   UNL     1     -10.172  15.876  67.904  1.00  0.00    -0.251 C  
HETATM    6  C   UNL     1     -10.614  17.639  66.226  1.00  0.00    -0.215 A  
HETATM    7  C   UNL     1     -10.614  18.992  65.851  1.00  0.00    -0.466 A  
HETATM    8  C   UNL     1     -10.347  17.288  67.537  1.00  0.00    -0.346 A  
HETATM    9  O   UNL     1      -9.784  15.613  69.039  1.00  0.00    -0.210 OA 
HETATM   10  C   UNL     1     -10.169  18.286  68.506  1.00  0.00    -0.402 A  
HETATM   11  C   UNL     1     -10.920  16.596  65.235  1.00  0.00    -0.120 C  
HETATM   12  C   UNL     1     -10.195  19.633  68.141  1.00  0.00    -0.580 A  
HETATM   13  O   UNL     1     -11.230  16.924  64.092  1.00  0.00    -1.176 OA 
HETATM   14  C   UNL     1     -10.391  19.985  66.808  1.00  0.00    -0.564 A  
ENDROOT
BRANCH   4  15
HETATM   15  C   UNL     1     -10.054  13.387  67.406  1.00  0.00    -0.237 C  
HETATM   16  C   UNL     1      -8.686  11.463  66.204  1.00  0.00    -0.153 C  
HETATM   17  C   UNL     1      -8.680  12.757  67.036  1.00  0.00    -0.197 C  
HETATM   18  C   UNL     1     -11.126  11.268  66.366  1.00  0.00    -0.257 C  
HETATM   19  C   UNL     1     -11.237  12.390  67.384  1.00  0.00    -0.351 C  
HETATM   20  C   UNL     1      -9.821  10.480  66.543  1.00  0.00    -0.255 C  
BRANCH  20  21
HETATM   21  C   UNL     1      -9.746   9.748  67.886  1.00  0.00    -0.168 A  
HETATM   22  C   UNL     1      -9.722   8.366  70.351  1.00  0.00    -0.173 A  
HETATM   23  C   UNL     1     -10.443   8.535  68.055  1.00  0.00    -0.249 A  
HETATM   24  C   UNL     1     -10.438   7.852  69.277  1.00  0.00    -0.221 A  
HETATM   25  C   UNL     1      -9.005   9.547  70.207  1.00  0.00    -0.288 A  
HETATM   26 CL   UNL     1      -9.709   7.534  71.857  1.00  0.00    -0.182 Cl 
HETATM   27  C   UNL     1      -9.004  10.220  68.980  1.00  0.00    -0.175 A  
ENDBRANCH  20  21
ENDBRANCH   4  15
TORSDOF 2
ENDMDL
MODEL        5
REMARK 921   NORMALIZED FREE ENERGY PREDICTED BY IDOCK:   -7.10 KCAL/MOL
REMARK 922        TOTAL FREE ENERGY PREDICTED BY IDOCK:   -8.81 KCAL/MOL
REMARK 923 INTER-LIGAND FREE ENERGY PREDICTED BY IDOCK:   -8.29 KCAL/MOL
REMARK 924 INTRA-LIGAND FREE ENERGY PREDICTED BY IDOCK:   -0.52 KCAL/MOL
REMARK 927      BINDING AFFINITY PREDICTED BY RF-SCORE:    0.00 PKD
ROOT
HETATM    1  O   UNL     1     -10.979  17.917  65.323  1.00  0.00    -0.565 OA 
HETATM    2  C   UNL     1      -9.867  17.924  66.147  1.00  0.00    -0.249 C  
HETATM    3  H   UNL     1     -11.344  18.697  64.923  1.00  0.00     0.000 HD 
HETATM    4  C   UNL     1      -9.349  16.816  66.714  1.00  0.00    -0.263 C  
HETATM    5  C   UNL     1      -8.192  16.979  67.676  1.00  0.00    -0.185 C  
HETATM    6  C   UNL     1      -8.090  19.410  67.233  1.00  0.00    -0.298 A  
HETATM    7  C   UNL     1      -7.449  20.650  67.383  1.00  0.00    -0.384 A  
HETATM    8  C   UNL     1      -7.647  18.315  67.951  1.00  0.00    -0.246 A  
HETATM    9  O   UNL     1      -7.667  16.012  68.221  1.00  0.00    -0.136 OA 
HETATM   10  C   UNL     1      -6.622  18.467  68.897  1.00  0.00    -0.275 A  
HETATM   11  C   UNL     1      -9.245  19.277  66.331  1.00  0.00    -0.352 C  
HETATM   12  C   UNL     1      -6.001  19.706  69.068  1.00  0.00    -0.281 A  
HETATM   13  O   UNL     1      -9.677  20.273  65.756  1.00  0.00    -0.323 OA 
HETATM   14  C   UNL     1      -6.397  20.791  68.291  1.00  0.00    -0.343 A  
ENDROOT
BRANCH   4  15
HETATM   15  C   UNL     1      -9.681  15.333  66.438  1.00  0.00    -0.308 C  
HETATM   16  C   UNL     1     -11.528  14.293  64.849  1.00  0.00    -0.378 C  
HETATM   17  C   UNL     1     -10.114  14.876  65.015  1.00  0.00    -0.300 C  
HETATM   18  C   UNL     1     -11.915  14.315  67.271  1.00  0.00    -0.439 C  
HETATM   19  C   UNL     1     -10.471  14.664  67.588  1.00  0.00    -0.243 C  
HETATM   20  C   UNL     1     -12.014  13.426  66.025  1.00  0.00    -0.460 C  
BRANCH  20  21
HETATM   21  C   UNL     1     -11.353  12.058  66.216  1.00  0.00    -0.415 A  
HETATM   22  C   UNL     1     -10.104   9.566  66.680  1.00  0.00    -0.252 A  
HETATM   23  C   UNL     1     -11.446  11.411  67.464  1.00  0.00    -0.336 A  
HETATM   24  C   UNL     1     -10.823  10.180  67.698  1.00  0.00    -0.346 A  
HETATM   25  C   UNL     1     -10.016  10.168  65.431  1.00  0.00    -0.377 A  
HETATM   26 CL   UNL     1      -9.335   8.053  66.957  1.00  0.00    -0.182 Cl 
HETATM   27  C   UNL     1     -10.651  11.393  65.198  1.00  0.00    -0.352 A  
ENDBRANCH  20  21
ENDBRANCH   4  15
TORSDOF 2
ENDMDL
MODEL        6
REMARK 921   NORMALIZED FREE ENERGY PREDICTED BY IDOCK:   -7.04 KCAL/MOL
REMARK 922        TOTAL FREE ENERGY PREDICTED BY IDOCK:   -8.74 KCAL/MOL
REMARK 923 INTER-LIGAND FREE ENERGY PREDICTED BY IDOCK:   -8.58 KCAL/MOL
REMARK 924 INTRA-LIGAND FREE ENERGY PREDICTED BY IDOCK:   -0.17 KCAL/MOL
REMARK 927      BINDING AFFINITY PREDICTED BY RF-SCORE:    0.00 PKD
ROOT
HETATM    1  O   UNL     1     -13.301  15.610  70.704  1.00  0.00    -0.772 OA 
HETATM    2  C   UNL     1     -12.768  14.351  70.493  1.00  0.00    -0.340 C  
HETATM    3  H   UNL     1     -13.955  15.803  71.365  1.00  0.00     0.000 HD 
HETATM    4  C   UNL     1     -11.839  14.078  69.554  1.00  0.00    -0.378 C  
HETATM    5  C   UNL     1     -11.417  12.638  69.362  1.00  0.00    -0.266 C  
HETATM    6  C   UNL     1     -12.822  11.912  71.263  1.00  0.00    -0.391 A  
HETATM    7  C   UNL     1     -13.237  10.915  72.161  1.00  0.00    -0.333 A  
HETATM    8  C   UNL     1     -11.998  11.583  70.203  1.00  0.00    -0.452 A  
HETATM    9  O   UNL     1     -10.571  12.321  68.530  1.00  0.00    -0.224 OA 
HETATM   10  C   UNL     1     -11.656  10.242  69.973  1.00  0.00    -0.349 A  
HETATM   11  C   UNL     1     -13.280  13.300  71.434  1.00  0.00    -0.223 C  
HETATM   12  C   UNL     1     -12.089   9.245  70.848  1.00  0.00    -0.297 A  
HETATM   13  O   UNL     1     -14.073  13.566  72.334  1.00  0.00    -0.649 OA 
HETATM   14  C   UNL     1     -12.858   9.586  71.958  1.00  0.00    -0.499 A  
ENDROOT
BRANCH   4  15
HETATM   15  C   UNL     1     -11.014  15.055  68.687  1.00  0.00    -0.261 C  
HETATM   16  C   UNL     1     -10.156  14.777  66.197  1.00  0.00    -0.312 C  
HETATM   17  C   UNL     1     -11.287  15.174  67.160  1.00  0.00    -0.291 C  
HETATM   18  C   UNL     1      -8.568  14.488  68.044  1.00  0.00    -0.162 C  
HETATM   19  C   UNL     1      -9.515  15.087  69.069  1.00  0.00    -0.210 C  
HETATM   20  C   UNL     1      -8.740  15.150  66.670  1.00  0.00    -0.308 C  
BRANCH  20  21
HETATM   21  C   UNL     1      -8.364  16.635  66.675  1.00  0.00    -0.296 A  
HETATM   22  C   UNL     1      -7.603  19.354  66.780  1.00  0.00    -0.247 A  
HETATM   23  C   UNL     1      -7.058  17.019  67.039  1.00  0.00    -0.228 A  
HETATM   24  C   UNL     1      -6.681  18.365  67.098  1.00  0.00    -0.206 A  
HETATM   25  C   UNL     1      -8.891  19.005  66.393  1.00  0.00    -0.326 A  
HETATM   26 CL   UNL     1      -7.150  21.012  66.849  1.00  0.00    -0.345 Cl 
HETATM   27  C   UNL     1      -9.260  17.657  66.325  1.00  0.00    -0.212 A  
ENDBRANCH  20  21
ENDBRANCH   4  15
TORSDOF 2
ENDMDL
MODEL        7
REMARK 921   NORMALIZED FREE ENERGY PREDICTED BY IDOCK:   -6.98 KCAL/MOL
REMARK 922        TOTAL FREE ENERGY PREDICTED BY IDOCK:   -8.68 KCAL/MOL
REMARK 923 INTER-LIGAND FREE ENERGY PREDICTED BY IDOCK:   -8.75 KCAL/MOL
REMARK 924 INTRA-LIGAND FREE ENERGY PREDICTED BY IDOCK:    0.08 KCAL/MOL
REMARK 927      BINDING AFFINITY PREDICTED BY RF-SCORE:    0.00 PKD
ROOT
HETATM    1  O   UNL     1     -11.303  17.117  64.311  1.00  0.00    -1.126 OA 
HETATM    2  C   UNL     1     -10.866  15.944  64.899  1.00  0.00    -0.400 C  
HETATM    3  H   UNL     1     -11.972  17.152  63.637  1.00  0.00     0.000 HD 
HETATM    4  C   UNL     1      -9.916  15.894  65.855  1.00  0.00    -0.377 C  
HETATM    5  C   UNL     1      -9.460  14.536  66.340  1.00  0.00    -0.291 C  
HETATM    6  C   UNL     1     -11.148  13.401  64.934  1.00  0.00    -0.348 A  
HETATM    7  C   UNL     1     -11.825  12.234  64.545  1.00  0.00    -0.441 A  
HETATM    8  C   UNL     1     -10.065  13.317  65.790  1.00  0.00    -0.293 A  
HETATM    9  O   UNL     1      -8.604  14.419  67.214  1.00  0.00    -0.192 OA 
HETATM   10  C   UNL     1      -9.589  12.060  66.192  1.00  0.00    -0.252 A  
HETATM   11  C   UNL     1     -11.572  14.711  64.415  1.00  0.00    -0.305 C  
HETATM   12  C   UNL     1     -10.243  10.896  65.785  1.00  0.00    -0.318 A  
HETATM   13  O   UNL     1     -12.486  14.767  63.596  1.00  0.00    -0.726 OA 
HETATM   14  C   UNL     1     -11.378  10.985  64.983  1.00  0.00     0.234 A  
ENDROOT
BRANCH   4  15
HETATM   15  C   UNL     1      -9.276  17.052  66.654  1.00  0.00    -0.277 C  
HETATM   16  C   UNL     1      -9.473  19.666  66.274  1.00  0.00    -0.474 C  
HETATM   17  C   UNL     1     -10.058  18.378  66.879  1.00  0.00    -0.385 C  
HETATM   18  C   UNL     1      -7.421  18.512  65.584  1.00  0.00    -0.013 C  
HETATM   19  C   UNL     1      -7.773  17.244  66.343  1.00  0.00    -0.347 C  
HETATM   20  C   UNL     1      -7.937  19.761  66.311  1.00  0.00    -0.346 C  
BRANCH  20  21
HETATM   21  C   UNL     1      -7.275  19.970  67.677  1.00  0.00    -0.316 A  
HETATM   22  C   UNL     1      -5.947  20.364  70.140  1.00  0.00    -0.321 A  
HETATM   23  C   UNL     1      -6.189  20.862  67.791  1.00  0.00    -0.391 A  
HETATM   24  C   UNL     1      -5.527  21.053  69.009  1.00  0.00    -0.373 A  
HETATM   25  C   UNL     1      -7.030  19.497  70.062  1.00  0.00     0.003 A  
HETATM   26 CL   UNL     1      -5.139  20.593  71.641  1.00  0.00    -0.304 Cl 
HETATM   27  C   UNL     1      -7.697  19.318  68.846  1.00  0.00    -0.376 A  
ENDBRANCH  20  21
ENDBRANCH   4  15
TORSDOF 2
ENDMDL
MODEL        8
REMARK 921   NORMALIZED FREE ENERGY PREDICTED BY IDOCK:   -6.87 KCAL/MOL
REMARK 922        TOTAL FREE ENERGY PREDICTED BY IDOCK:   -8.55 KCAL/MOL
REMARK 923 INTER-LIGAND FREE ENERGY PREDICTED BY IDOCK:   -8.25 KCAL/MOL
REMARK 924 INTRA-LIGAND FREE ENERGY PREDICTED BY IDOCK:   -0.30 KCAL/MOL
REMARK 927      BINDING AFFINITY PREDICTED BY RF-SCORE:    0.00 PKD
ROOT
HETATM    1  O   UNL     1      -6.996  15.843  69.703  1.00  0.00    -0.198 OA 
HETATM    2  C   UNL     1      -7.965  16.387  68.878  1.00  0.00    -0.236 C  
HETATM    3  H   UNL     1      -6.274  16.341  70.068  1.00  0.00     0.000 HD 
HETATM    4  C   UNL     1      -8.990  15.680  68.360  1.00  0.00    -0.185 C  
HETATM    5  C   UNL     1      -9.921  16.375  67.392  1.00  0.00    -0.251 C  
HETATM    6  C   UNL     1      -8.755  18.530  67.726  1.00  0.00    -0.290 A  
HETATM    7  C   UNL     1      -8.674  19.916  67.521  1.00  0.00    -0.401 A  
HETATM    8  C   UNL     1      -9.712  17.789  67.056  1.00  0.00    -0.290 A  
HETATM    9  O   UNL     1     -10.879  15.792  66.889  1.00  0.00    -0.319 OA 
HETATM   10  C   UNL     1     -10.535  18.409  66.104  1.00  0.00    -0.422 A  
HETATM   11  C   UNL     1      -7.811  17.859  68.634  1.00  0.00    -0.290 C  
HETATM   12  C   UNL     1     -10.439  19.783  65.878  1.00  0.00    -0.587 A  
HETATM   13  O   UNL     1      -6.918  18.515  69.165  1.00  0.00    -0.287 OA 
HETATM   14  C   UNL     1      -9.526  20.541  66.606  1.00  0.00    -0.374 A  
ENDROOT
BRANCH   4  15
HETATM   15  C   UNL     1      -9.457  14.247  68.702  1.00  0.00    -0.178 C  
HETATM   16  C   UNL     1     -10.696  12.474  67.173  1.00  0.00    -0.263 C  
HETATM   17  C   UNL     1      -9.377  13.118  67.634  1.00  0.00    -0.205 C  
HETATM   18  C   UNL     1     -11.985  13.698  68.863  1.00  0.00    -0.392 C  
HETATM   19  C   UNL     1     -10.742  14.218  69.563  1.00  0.00    -0.095 C  
HETATM   20  C   UNL     1     -11.753  12.299  68.277  1.00  0.00    -0.392 C  
BRANCH  20  21
HETATM   21  C   UNL     1     -11.484  11.241  69.352  1.00  0.00    -0.370 A  
HETATM   22  C   UNL     1     -11.030   9.368  71.418  1.00  0.00    -0.373 A  
HETATM   23  C   UNL     1     -12.374  11.114  70.438  1.00  0.00    -0.430 A  
HETATM   24  C   UNL     1     -12.147  10.191  71.465  1.00  0.00    -0.442 A  
HETATM   25  C   UNL     1     -10.148   9.453  70.347  1.00  0.00    -0.310 A  
HETATM   26 CL   UNL     1     -10.742   8.230  72.676  1.00  0.00    -0.416 Cl 
HETATM   27  C   UNL     1     -10.385  10.369  69.317  1.00  0.00    -0.250 A  
ENDBRANCH  20  21
ENDBRANCH   4  15
TORSDOF 2
ENDMDL
MODEL        9
REMARK 921   NORMALIZED FREE ENERGY PREDICTED BY IDOCK:   -6.83 KCAL/MOL
REMARK 922        TOTAL FREE ENERGY PREDICTED BY IDOCK:   -8.50 KCAL/MOL
REMARK 923 INTER-LIGAND FREE ENERGY PREDICTED BY IDOCK:   -8.21 KCAL/MOL
REMARK 924 INTRA-LIGAND FREE ENERGY PREDICTED BY IDOCK:   -0.30 KCAL/MOL
REMARK 927      BINDING AFFINITY PREDICTED BY RF-SCORE:    0.00 PKD
ROOT
HETATM    1  O   UNL     1     -11.545  14.037  64.109  1.00  0.00    -0.562 OA 
HETATM    2  C   UNL     1     -11.139  14.725  65.239  1.00  0.00    -0.370 C  
HETATM    3  H   UNL     1     -11.757  14.457  63.284  1.00  0.00     0.000 HD 
HETATM    4  C   UNL     1     -10.837  14.128  66.410  1.00  0.00    -0.304 C  
HETATM    5  C   UNL     1     -10.504  15.008  67.596  1.00  0.00    -0.247 C  
HETATM    6  C   UNL     1     -10.642  17.044  66.199  1.00  0.00    -0.194 A  
HETATM    7  C   UNL     1     -10.462  18.427  66.040  1.00  0.00    -0.400 A  
HETATM    8  C   UNL     1     -10.491  16.469  67.447  1.00  0.00    -0.310 A  
HETATM    9  O   UNL     1     -10.213  14.530  68.690  1.00  0.00    -0.232 OA 
HETATM   10  C   UNL     1     -10.251  17.280  68.567  1.00  0.00    -0.358 A  
HETATM   11  C   UNL     1     -11.014  16.208  65.046  1.00  0.00    -0.344 C  
HETATM   12  C   UNL     1     -10.099  18.659  68.416  1.00  0.00    -0.426 A  
HETATM   13  O   UNL     1     -11.220  16.740  63.959  1.00  0.00    -1.089 OA 
HETATM   14  C   UNL     1     -10.178  19.229  67.147  1.00  0.00    -0.501 A  
ENDROOT
BRANCH   4  15
HETATM   15  C   UNL     1     -10.653  12.626  66.720  1.00  0.00    -0.254 C  
HETATM   16  C   UNL     1     -10.939  11.337  69.017  1.00  0.00    -0.288 C  
HETATM   17  C   UNL     1     -11.584  11.915  67.745  1.00  0.00    -0.393 C  
HETATM   18  C   UNL     1      -8.680  11.826  68.198  1.00  0.00    -0.168 C  
HETATM   19  C   UNL     1      -9.168  12.203  66.810  1.00  0.00    -0.207 C  
HETATM   20  C   UNL     1      -9.545  10.719  68.814  1.00  0.00    -0.194 C  
BRANCH  20  21
HETATM   21  C   UNL     1      -9.462   9.400  68.039  1.00  0.00    -0.148 A  
HETATM   22  C   UNL     1      -9.399   6.926  66.675  1.00  0.00    -0.163 A  
HETATM   23  C   UNL     1     -10.647   8.707  67.720  1.00  0.00    -0.249 A  
HETATM   24  C   UNL     1     -10.617   7.479  67.050  1.00  0.00    -0.409 A  
HETATM   25  C   UNL     1      -8.216   7.599  66.954  1.00  0.00    -0.120 A  
HETATM   26 CL   UNL     1      -9.353   5.417  65.852  1.00  0.00    -0.168 Cl 
HETATM   27  C   UNL     1      -8.250   8.832  67.614  1.00  0.00    -0.110 A  
ENDBRANCH  20  21
ENDBRANCH   4  15
TORSDOF 2
ENDMDL
MODEL       10
REMARK 921   NORMALIZED FREE ENERGY PREDICTED BY IDOCK:   -6.76 KCAL/MOL
REMARK 922        TOTAL FREE ENERGY PREDICTED BY IDOCK:   -8.43 KCAL/MOL
REMARK 923 INTER-LIGAND FREE ENERGY PREDICTED BY IDOCK:   -7.56 KCAL/MOL
REMARK 924 INTRA-LIGAND FREE ENERGY PREDICTED BY IDOCK:   -0.87 KCAL/MOL
REMARK 927      BINDING AFFINITY PREDICTED BY RF-SCORE:    0.00 PKD
ROOT
HETATM    1  O   UNL     1     -11.346  17.289  68.571  1.00  0.00    -0.090 OA 
HETATM    2  C   UNL     1     -10.111  17.492  67.980  1.00  0.00    -0.332 C  
HETATM    3  H   UNL     1     -11.857  17.980  68.976  1.00  0.00     0.000 HD 
HETATM    4  C   UNL     1      -9.386  16.511  67.405  1.00  0.00    -0.223 C  
HETATM    5  C   UNL     1      -8.007  16.851  66.886  1.00  0.00    -0.213 C  
HETATM    6  C   UNL     1      -8.325  19.241  67.437  1.00  0.00    -0.317 A  
HETATM    7  C   UNL     1      -7.887  20.574  67.380  1.00  0.00    -0.355 A  
HETATM    8  C   UNL     1      -7.498  18.225  66.994  1.00  0.00    -0.229 A  
HETATM    9  O   UNL     1      -7.297  16.008  66.344  1.00  0.00    -0.105 OA 
HETATM   10  C   UNL     1      -6.192  18.519  66.575  1.00  0.00    -0.200 A  
HETATM   11  C   UNL     1      -9.650  18.920  67.990  1.00  0.00    -0.322 C  
HETATM   12  C   UNL     1      -5.744  19.841  66.542  1.00  0.00    -0.174 A  
HETATM   13  O   UNL     1     -10.345  19.822  68.451  1.00  0.00    -0.444 OA 
HETATM   14  C   UNL     1      -6.602  20.871  66.919  1.00  0.00    -0.380 A  
ENDROOT
BRANCH   4  15
HETATM   15  C   UNL     1      -9.802  15.061  67.068  1.00  0.00    -0.241 C  
HETATM   16  C   UNL     1     -12.186  14.104  66.425  1.00  0.00    -0.473 C  
HETATM   17  C   UNL     1     -10.880  14.785  65.981  1.00  0.00    -0.318 C  
HETATM   18  C   UNL     1     -11.321  13.725  68.689  1.00  0.00    -0.321 C  
HETATM   19  C   UNL     1      -9.912  14.157  68.318  1.00  0.00    -0.241 C  
HETATM   20  C   UNL     1     -12.020  13.028  67.514  1.00  0.00    -0.360 C  
BRANCH  20  21
HETATM   21  C   UNL     1     -11.341  11.715  67.113  1.00  0.00    -0.373 A  
HETATM   22  C   UNL     1     -10.047   9.283  66.484  1.00  0.00    -0.273 A  
HETATM   23  C   UNL     1     -11.276  10.657  68.041  1.00  0.00    -0.373 A  
HETATM   24  C   UNL     1     -10.630   9.454  67.733  1.00  0.00    -0.317 A  
HETATM   25  C   UNL     1     -10.117  10.300  65.540  1.00  0.00    -0.351 A  
HETATM   26 CL   UNL     1      -9.250   7.809  66.097  1.00  0.00    -0.207 Cl 
HETATM   27  C   UNL     1     -10.774  11.496  65.847  1.00  0.00    -0.325 A  
ENDBRANCH  20  21
ENDBRANCH   4  15
TORSDOF 2
ENDMDL
MODEL       11
REMARK 921   NORMALIZED FREE ENERGY PREDICTED BY IDOCK:   -6.75 KCAL/MOL
REMARK 922        TOTAL FREE ENERGY PREDICTED BY IDOCK:   -8.42 KCAL/MOL
REMARK 923 INTER-LIGAND FREE ENERGY PREDICTED BY IDOCK:   -7.52 KCAL/MOL
REMARK 924 INTRA-LIGAND FREE ENERGY PREDICTED BY IDOCK:   -0.90 KCAL/MOL
REMARK 927      BINDING AFFINITY PREDICTED BY RF-SCORE:    0.00 PKD
ROOT
HETATM    1  O   UNL     1      -9.128  11.113  67.766  1.00  0.00    -0.144 OA 
HETATM    2  C   UNL     1     -10.171  11.282  68.659  1.00  0.00    -0.203 C  
HETATM    3  H   UNL     1      -8.729  10.273  67.573  1.00  0.00     0.000 HD 
HETATM    4  C   UNL     1     -10.737  12.475  68.933  1.00  0.00    -0.202 C  
HETATM    5  C   UNL     1     -11.803  12.533  70.005  1.00  0.00    -0.289 C  
HETATM    6  C   UNL     1     -11.734  10.077  70.287  1.00  0.00    -0.327 A  
HETATM    7  C   UNL     1     -12.257   8.899  70.845  1.00  0.00    -0.177 A  
HETATM    8  C   UNL     1     -12.212  11.306  70.701  1.00  0.00    -0.489 A  
HETATM    9  O   UNL     1     -12.364  13.585  70.299  1.00  0.00    -0.326 OA 
HETATM   10  C   UNL     1     -13.149  11.377  71.743  1.00  0.00    -0.523 A  
HETATM   11  C   UNL     1     -10.664  10.008  69.280  1.00  0.00    -0.224 C  
HETATM   12  C   UNL     1     -13.651  10.208  72.319  1.00  0.00    -0.224 A  
HETATM   13  O   UNL     1     -10.194   8.914  68.975  1.00  0.00    -0.196 OA 
HETATM   14  C   UNL     1     -13.224   8.968  71.851  1.00  0.00    -0.462 A  
ENDROOT
BRANCH   4  15
HETATM   15  C   UNL     1     -10.550  13.830  68.214  1.00  0.00    -0.262 C  
HETATM   16  C   UNL     1     -10.114  14.325  65.649  1.00  0.00    -0.364 C  
HETATM   17  C   UNL     1     -11.117  14.045  66.781  1.00  0.00    -0.311 C  
HETATM   18  C   UNL     1      -8.243  14.481  67.227  1.00  0.00    -0.230 C  
HETATM   19  C   UNL     1      -9.152  14.450  68.444  1.00  0.00    -0.193 C  
HETATM   20  C   UNL     1      -8.912  15.200  66.048  1.00  0.00    -0.091 C  
BRANCH  20  21
HETATM   21  C   UNL     1      -9.178  16.682  66.329  1.00  0.00    -0.328 A  
HETATM   22  C   UNL     1      -9.602  19.407  66.946  1.00  0.00    -0.339 A  
HETATM   23  C   UNL     1      -8.156  17.476  66.887  1.00  0.00    -0.254 A  
HETATM   24  C   UNL     1      -8.367  18.824  67.198  1.00  0.00    -0.281 A  
HETATM   25  C   UNL     1     -10.621  18.655  66.373  1.00  0.00    -0.399 A  
HETATM   26 CL   UNL     1      -9.870  21.063  67.326  1.00  0.00    -0.371 Cl 
HETATM   27  C   UNL     1     -10.402  17.310  66.052  1.00  0.00    -0.312 A  
ENDBRANCH  20  21
ENDBRANCH   4  15
TORSDOF 2
ENDMDL
MODEL       12
REMARK 921   NORMALIZED FREE ENERGY PREDICTED BY IDOCK:   -6.68 KCAL/MOL
REMARK 922        TOTAL FREE ENERGY PREDICTED BY IDOCK:   -8.34 KCAL/MOL
REMARK 923 INTER-LIGAND FREE ENERGY PREDICTED BY IDOCK:   -7.56 KCAL/MOL
REMARK 924 INTRA-LIGAND FREE ENERGY PREDICTED BY IDOCK:   -0.78 KCAL/MOL
REMARK 927      BINDING AFFINITY PREDICTED BY RF-SCORE:    0.00 PKD
ROOT
HETATM    1  O   UNL     1     -10.514  12.922  67.154  1.00  0.00    -0.236 OA 
HETATM    2  C   UNL     1     -11.140  12.841  68.385  1.00  0.00    -0.262 C  
HETATM    3  H   UNL     1     -10.428  13.727  66.657  1.00  0.00     0.000 HD 
HETATM    4  C   UNL     1     -11.263  11.698  69.090  1.00  0.00    -0.325 C  
HETATM    5  C   UNL     1     -12.059  11.732  70.376  1.00  0.00    -0.352 C  
HETATM    6  C   UNL     1     -12.375  14.177  70.184  1.00  0.00    -0.413 A  
HETATM    7  C   UNL     1     -12.810  15.396  70.728  1.00  0.00    -0.524 A  
HETATM    8  C   UNL     1     -12.655  12.992  70.839  1.00  0.00    -0.364 A  
HETATM    9  O   UNL     1     -12.204  10.729  71.070  1.00  0.00    -0.342 OA 
HETATM   10  C   UNL     1     -13.451  13.002  71.994  1.00  0.00    -0.584 A  
HETATM   11  C   UNL     1     -11.644  14.155  68.907  1.00  0.00    -0.310 C  
HETATM   12  C   UNL     1     -13.908  14.210  72.523  1.00  0.00    -0.590 A  
HETATM   13  O   UNL     1     -11.468  15.206  68.296  1.00  0.00    -0.311 OA 
HETATM   14  C   UNL     1     -13.564  15.410  71.904  1.00  0.00    -0.590 A  
ENDROOT
BRANCH   4  15
HETATM   15  C   UNL     1     -10.592  10.327  68.848  1.00  0.00    -0.242 C  
HETATM   16  C   UNL     1      -8.122   9.780  68.065  1.00  0.00    -0.105 C  
HETATM   17  C   UNL     1      -9.095  10.109  69.210  1.00  0.00    -0.208 C  
HETATM   18  C   UNL     1      -9.954   9.588  66.446  1.00  0.00    -0.339 C  
HETATM   19  C   UNL     1     -11.028   9.666  67.518  1.00  0.00    -0.166 C  
HETATM   20  C   UNL     1      -8.699   8.874  66.963  1.00  0.00    -0.130 C  
BRANCH  20  21
HETATM   21  C   UNL     1      -8.953   7.405  67.317  1.00  0.00    -0.128 A  
HETATM   22  C   UNL     1      -9.306   4.684  67.992  1.00  0.00    -0.135 A  
HETATM   23  C   UNL     1      -8.227   6.809  68.367  1.00  0.00    -0.119 A  
HETATM   24  C   UNL     1      -8.396   5.460  68.698  1.00  0.00    -0.093 A  
HETATM   25  C   UNL     1     -10.055   5.251  66.968  1.00  0.00    -0.243 A  
HETATM   26 CL   UNL     1      -9.521   3.025  68.392  1.00  0.00    -0.245 Cl 
HETATM   27  C   UNL     1      -9.891   6.604  66.648  1.00  0.00    -0.208 A  
ENDBRANCH  20  21
ENDBRANCH   4  15
TORSDOF 2
ENDMDL
MODEL       13
REMARK 921   NORMALIZED FREE ENERGY PREDICTED BY IDOCK:   -6.64 KCAL/MOL
REMARK 922        TOTAL FREE ENERGY PREDICTED BY IDOCK:   -8.29 KCAL/MOL
REMARK 923 INTER-LIGAND FREE ENERGY PREDICTED BY IDOCK:   -7.41 KCAL/MOL
REMARK 924 INTRA-LIGAND FREE ENERGY PREDICTED BY IDOCK:   -0.88 KCAL/MOL
REMARK 927      BINDING AFFINITY PREDICTED BY RF-SCORE:    0.00 PKD
ROOT
HETATM    1  O   UNL     1     -11.538   6.850  69.700  1.00  0.00    -0.553 OA 
HETATM    2  C   UNL     1     -10.568   6.822  70.687  1.00  0.00    -0.224 C  
HETATM    3  H   UNL     1     -11.770   6.099  69.167  1.00  0.00     0.000 HD 
HETATM    4  C   UNL     1     -10.239   7.889  71.444  1.00  0.00    -0.226 C  
HETATM    5  C   UNL     1      -9.090   7.747  72.418  1.00  0.00    -0.155 C  
HETATM    6  C   UNL     1      -8.845   5.347  71.871  1.00  0.00    -0.140 A  
HETATM    7  C   UNL     1      -8.265   4.094  72.121  1.00  0.00    -0.101 A  
HETATM    8  C   UNL     1      -8.381   6.466  72.538  1.00  0.00    -0.116 A  
HETATM    9  O   UNL     1      -8.742   8.676  73.143  1.00  0.00    -0.371 OA 
HETATM   10  C   UNL     1      -7.272   6.361  73.391  1.00  0.00    -0.082 A  
HETATM   11  C   UNL     1      -9.929   5.479  70.885  1.00  0.00    -0.199 C  
HETATM   12  C   UNL     1      -6.676   5.120  73.621  1.00  0.00    -0.077 A  
HETATM   13  O   UNL     1     -10.282   4.492  70.243  1.00  0.00    -0.219 OA 
HETATM   14  C   UNL     1      -7.191   3.981  73.006  1.00  0.00    -0.067 A  
ENDROOT
BRANCH   4  15
HETATM   15  C   UNL     1     -10.952   9.254  71.567  1.00  0.00    -0.446 C  
HETATM   16  C   UNL     1     -13.489   9.870  71.122  1.00  0.00    -0.308 C  
HETATM   17  C   UNL     1     -12.417   9.331  72.085  1.00  0.00    -0.421 C  
HETATM   18  C   UNL     1     -11.803  10.482  69.450  1.00  0.00    -0.271 C  
HETATM   19  C   UNL     1     -10.642  10.208  70.390  1.00  0.00    -0.287 C  
HETATM   20  C   UNL     1     -13.024  11.018  70.210  1.00  0.00    -0.067 C  
BRANCH  20  21
HETATM   21  C   UNL     1     -12.767  12.380  70.862  1.00  0.00    -0.273 A  
HETATM   22  C   UNL     1     -12.407  14.894  72.100  1.00  0.00    -0.351 A  
HETATM   23  C   UNL     1     -13.400  12.696  72.080  1.00  0.00    -0.570 A  
HETATM   24  C   UNL     1     -13.228  13.943  72.692  1.00  0.00    -0.592 A  
HETATM   25  C   UNL     1     -11.749  14.602  70.911  1.00  0.00    -0.335 A  
HETATM   26 CL   UNL     1     -12.189  16.430  72.844  1.00  0.00    -0.577 Cl 
HETATM   27  C   UNL     1     -11.915  13.350  70.310  1.00  0.00    -0.378 A  
ENDBRANCH  20  21
ENDBRANCH   4  15
TORSDOF 2
ENDMDL
MODEL       14
REMARK 921   NORMALIZED FREE ENERGY PREDICTED BY IDOCK:   -6.61 KCAL/MOL
REMARK 922        TOTAL FREE ENERGY PREDICTED BY IDOCK:   -8.25 KCAL/MOL
REMARK 923 INTER-LIGAND FREE ENERGY PREDICTED BY IDOCK:   -7.98 KCAL/MOL
REMARK 924 INTRA-LIGAND FREE ENERGY PREDICTED BY IDOCK:   -0.27 KCAL/MOL
REMARK 927      BINDING AFFINITY PREDICTED BY RF-SCORE:    0.00 PKD
ROOT
HETATM    1  O   UNL     1     -13.257  13.863  70.938  1.00  0.00    -0.249 OA 
HETATM    2  C   UNL     1     -12.497  12.825  70.428  1.00  0.00    -0.156 C  
HETATM    3  H   UNL     1     -13.810  13.784  71.706  1.00  0.00     0.000 HD 
HETATM    4  C   UNL     1     -11.712  12.937  69.336  1.00  0.00    -0.382 C  
HETATM    5  C   UNL     1     -11.014  11.696  68.827  1.00  0.00    -0.226 C  
HETATM    6  C   UNL     1     -11.855  10.368  70.737  1.00  0.00    -0.466 A  
HETATM    7  C   UNL     1     -11.865   9.179  71.484  1.00  0.00    -0.428 A  
HETATM    8  C   UNL     1     -11.179  10.417  69.531  1.00  0.00    -0.325 A  
HETATM    9  O   UNL     1     -10.279  11.729  67.843  1.00  0.00    -0.183 OA 
HETATM   10  C   UNL     1     -10.586   9.256  69.014  1.00  0.00    -0.225 A  
HETATM   11  C   UNL     1     -12.580  11.553  71.220  1.00  0.00    -0.347 C  
HETATM   12  C   UNL     1     -10.618   8.066  69.742  1.00  0.00    -0.238 A  
HETATM   13  O   UNL     1     -13.239  11.475  72.254  1.00  0.00    -0.425 OA 
HETATM   14  C   UNL     1     -11.234   8.035  70.990  1.00  0.00    -0.287 A  
ENDROOT
BRANCH   4  15
HETATM   15  C   UNL     1     -11.300  14.207  68.559  1.00  0.00    -0.312 C  
HETATM   16  C   UNL     1     -10.690  14.484  65.997  1.00  0.00    -0.306 C  
HETATM   17  C   UNL     1     -11.769  14.417  67.091  1.00  0.00    -0.424 C  
HETATM   18  C   UNL     1      -8.883  14.462  67.656  1.00  0.00    -0.193 C  
HETATM   19  C   UNL     1      -9.836  14.632  68.826  1.00  0.00    -0.227 C  
HETATM   20  C   UNL     1      -9.391  15.199  66.409  1.00  0.00    -0.332 C  
BRANCH  20  21
HETATM   21  C   UNL     1      -9.449  16.717  66.600  1.00  0.00    -0.275 A  
HETATM   22  C   UNL     1      -9.511  19.505  67.061  1.00  0.00    -0.337 A  
HETATM   23  C   UNL     1      -8.427  17.365  67.323  1.00  0.00    -0.220 A  
HETATM   24  C   UNL     1      -8.459  18.744  67.557  1.00  0.00    -0.288 A  
HETATM   25  C   UNL     1     -10.520  18.897  66.323  1.00  0.00    -0.510 A  
HETATM   26 CL   UNL     1      -9.560  21.201  67.344  1.00  0.00    -0.337 Cl 
HETATM   27  C   UNL     1     -10.477  17.520  66.081  1.00  0.00    -0.288 A  
ENDBRANCH  20  21
ENDBRANCH   4  15
TORSDOF 2
ENDMDL
MODEL       15
REMARK 921   NORMALIZED FREE ENERGY PREDICTED BY IDOCK:   -6.58 KCAL/MOL
REMARK 922        TOTAL FREE ENERGY PREDICTED BY IDOCK:   -8.23 KCAL/MOL
REMARK 923 INTER-LIGAND FREE ENERGY PREDICTED BY IDOCK:   -7.58 KCAL/MOL
REMARK 924 INTRA-LIGAND FREE ENERGY PREDICTED BY IDOCK:   -0.65 KCAL/MOL
REMARK 927      BINDING AFFINITY PREDICTED BY RF-SCORE:    0.00 PKD
ROOT
HETATM    1  O   UNL     1      -9.990  13.042  63.943  1.00  0.00    -0.713 OA 
HETATM    2  C   UNL     1      -9.673  11.823  64.515  1.00  0.00    -0.142 C  
HETATM    3  H   UNL     1      -9.889  13.233  63.018  1.00  0.00     0.000 HD 
HETATM    4  C   UNL     1      -9.816  11.552  65.829  1.00  0.00    -0.266 C  
HETATM    5  C   UNL     1      -9.336  10.211  66.339  1.00  0.00    -0.169 C  
HETATM    6  C   UNL     1      -8.771   9.475  64.046  1.00  0.00    -0.239 A  
HETATM    7  C   UNL     1      -8.368   8.469  63.154  1.00  0.00    -0.116 A  
HETATM    8  C   UNL     1      -8.754   9.235  65.408  1.00  0.00    -0.208 A  
HETATM    9  O   UNL     1      -9.442   9.897  67.522  1.00  0.00    -0.148 OA 
HETATM   10  C   UNL     1      -8.246   8.022  65.898  1.00  0.00    -0.127 A  
HETATM   11  C   UNL     1      -9.190  10.791  63.539  1.00  0.00    -0.257 C  
HETATM   12  C   UNL     1      -7.819   7.030  65.014  1.00  0.00    -0.125 A  
HETATM   13  O   UNL     1      -9.128  11.018  62.333  1.00  0.00    -0.313 OA 
HETATM   14  C   UNL     1      -7.906   7.244  63.641  1.00  0.00    -0.108 A  
ENDROOT
BRANCH   4  15
HETATM   15  C   UNL     1     -10.530  12.378  66.922  1.00  0.00    -0.243 C  
HETATM   16  C   UNL     1     -12.279  14.350  66.664  1.00  0.00    -0.340 C  
HETATM   17  C   UNL     1     -12.003  12.838  66.724  1.00  0.00    -0.389 C  
HETATM   18  C   UNL     1      -9.958  14.884  67.252  1.00  0.00    -0.230 C  
HETATM   19  C   UNL     1      -9.614  13.440  67.574  1.00  0.00    -0.221 C  
HETATM   20  C   UNL     1     -11.416  15.205  67.609  1.00  0.00    -0.319 C  
BRANCH  20  21
HETATM   21  C   UNL     1     -11.696  15.100  69.112  1.00  0.00    -0.349 A  
HETATM   22  C   UNL     1     -12.112  14.967  71.903  1.00  0.00    -0.362 A  
HETATM   23  C   UNL     1     -11.350  16.173  69.958  1.00  0.00    -0.332 A  
HETATM   24  C   UNL     1     -11.550  16.106  71.341  1.00  0.00    -0.495 A  
HETATM   25  C   UNL     1     -12.486  13.903  71.091  1.00  0.00    -0.450 A  
HETATM   26 CL   UNL     1     -12.361  14.875  73.603  1.00  0.00    -0.574 Cl 
HETATM   27  C   UNL     1     -12.296  13.979  69.707  1.00  0.00    -0.344 A  
ENDBRANCH  20  21
ENDBRANCH   4  15
TORSDOF 2
ENDMDL
MODEL       16
REMARK 921   NORMALIZED FREE ENERGY PREDICTED BY IDOCK:   -6.55 KCAL/MOL
REMARK 922        TOTAL FREE ENERGY PREDICTED BY IDOCK:   -8.19 KCAL/MOL
REMARK 923 INTER-LIGAND FREE ENERGY PREDICTED BY IDOCK:   -7.50 KCAL/MOL
REMARK 924 INTRA-LIGAND FREE ENERGY PREDICTED BY IDOCK:   -0.69 KCAL/MOL
REMARK 927      BINDING AFFINITY PREDICTED BY RF-SCORE:    0.00 PKD
ROOT
HETATM    1  O   UNL     1     -11.355  12.359  70.152  1.00  0.00    -0.504 OA 
HETATM    2  C   UNL     1     -11.286  12.005  68.817  1.00  0.00    -0.278 C  
HETATM    3  H   UNL     1     -11.648  13.209  70.459  1.00  0.00     0.000 HD 
HETATM    4  C   UNL     1     -10.870  10.798  68.382  1.00  0.00    -0.276 C  
HETATM    5  C   UNL     1     -10.747  10.578  66.890  1.00  0.00    -0.219 C  
HETATM    6  C   UNL     1     -11.677  12.822  66.424  1.00  0.00    -0.464 A  
HETATM    7  C   UNL     1     -12.163  13.775  65.514  1.00  0.00    -0.470 A  
HETATM    8  C   UNL     1     -11.099  11.656  65.957  1.00  0.00    -0.325 A  
HETATM    9  O   UNL     1     -10.382   9.501  66.426  1.00  0.00    -0.240 OA 
HETATM   10  C   UNL     1     -10.916  11.470  64.578  1.00  0.00    -0.367 A  
HETATM   11  C   UNL     1     -11.759  13.071  67.872  1.00  0.00    -0.357 C  
HETATM   12  C   UNL     1     -11.374  12.428  63.672  1.00  0.00    -0.556 A  
HETATM   13  O   UNL     1     -12.204  14.143  68.274  1.00  0.00    -0.317 OA 
HETATM   14  C   UNL     1     -12.022  13.569  64.140  1.00  0.00    -0.498 A  
ENDROOT
BRANCH   4  15
HETATM   15  C   UNL     1     -10.601   9.510  69.192  1.00  0.00    -0.237 C  
HETATM   16  C   UNL     1     -10.916   9.059  71.783  1.00  0.00    -0.443 C  
HETATM   17  C   UNL     1     -11.533   9.117  70.375  1.00  0.00    -0.228 C  
HETATM   18  C   UNL     1      -8.655   9.421  70.902  1.00  0.00    -0.135 C  
HETATM   19  C   UNL     1      -9.098   9.263  69.457  1.00  0.00    -0.163 C  
HETATM   20  C   UNL     1      -9.474   8.522  71.838  1.00  0.00    -0.350 C  
BRANCH  20  21
HETATM   21  C   UNL     1      -9.264   7.030  71.564  1.00  0.00    -0.153 A  
HETATM   22  C   UNL     1      -8.777   4.305  70.999  1.00  0.00    -0.093 A  
HETATM   23  C   UNL     1      -7.956   6.505  71.553  1.00  0.00    -0.104 A  
HETATM   24  C   UNL     1      -7.713   5.157  71.266  1.00  0.00    -0.101 A  
HETATM   25  C   UNL     1     -10.079   4.789  71.028  1.00  0.00    -0.269 A  
HETATM   26 CL   UNL     1      -8.489   2.646  70.645  1.00  0.00    -0.084 Cl 
HETATM   27  C   UNL     1     -10.319   6.135  71.326  1.00  0.00    -0.264 A  
ENDBRANCH  20  21
ENDBRANCH   4  15
TORSDOF 2
ENDMDL
MODEL       17
REMARK 921   NORMALIZED FREE ENERGY PREDICTED BY IDOCK:   -6.52 KCAL/MOL
REMARK 922        TOTAL FREE ENERGY PREDICTED BY IDOCK:   -8.15 KCAL/MOL
REMARK 923 INTER-LIGAND FREE ENERGY PREDICTED BY IDOCK:   -7.49 KCAL/MOL
REMARK 924 INTRA-LIGAND FREE ENERGY PREDICTED BY IDOCK:   -0.67 KCAL/MOL
REMARK 927      BINDING AFFINITY PREDICTED BY RF-SCORE:    0.00 PKD
ROOT
HETATM    1  O   UNL     1     -11.392  12.353  70.212  1.00  0.00    -0.479 OA 
HETATM    2  C   UNL     1     -11.302  12.031  68.870  1.00  0.00    -0.278 C  
HETATM    3  H   UNL     1     -11.701  13.191  70.534  1.00  0.00     0.000 HD 
HETATM    4  C   UNL     1     -10.862  10.841  68.412  1.00  0.00    -0.276 C  
HETATM    5  C   UNL     1     -10.719  10.657  66.917  1.00  0.00    -0.237 C  
HETATM    6  C   UNL     1     -11.678  12.897  66.492  1.00  0.00    -0.453 A  
HETATM    7  C   UNL     1     -12.169  13.862  65.598  1.00  0.00    -0.477 A  
HETATM    8  C   UNL     1     -11.077  11.750  66.004  1.00  0.00    -0.363 A  
HETATM    9  O   UNL     1     -10.332   9.597  66.433  1.00  0.00    -0.237 OA 
HETATM   10  C   UNL     1     -10.875  11.599  64.624  1.00  0.00    -0.373 A  
HETATM   11  C   UNL     1     -11.780  13.111  67.944  1.00  0.00    -0.357 C  
HETATM   12  C   UNL     1     -11.338  12.571  63.735  1.00  0.00    -0.534 A  
HETATM   13  O   UNL     1     -12.247  14.166  68.365  1.00  0.00    -0.314 OA 
HETATM   14  C   UNL     1     -12.009  13.690  64.221  1.00  0.00    -0.488 A  
ENDROOT
BRANCH   4  15
HETATM   15  C   UNL     1     -10.583   9.538  69.196  1.00  0.00    -0.237 C  
HETATM   16  C   UNL     1     -10.924   9.022  71.771  1.00  0.00    -0.443 C  
HETATM   17  C   UNL     1     -11.523   9.103  70.356  1.00  0.00    -0.228 C  
HETATM   18  C   UNL     1      -8.659   9.441  70.930  1.00  0.00    -0.135 C  
HETATM   19  C   UNL     1      -9.079   9.310  69.476  1.00  0.00    -0.163 C  
HETATM   20  C   UNL     1      -9.475   8.508  71.834  1.00  0.00    -0.350 C  
BRANCH  20  21
HETATM   21  C   UNL     1      -9.236   7.026  71.528  1.00  0.00    -0.153 A  
HETATM   22  C   UNL     1      -8.881   4.265  71.042  1.00  0.00    -0.106 A  
HETATM   23  C   UNL     1     -10.331   6.140  71.495  1.00  0.00    -0.253 A  
HETATM   24  C   UNL     1     -10.156   4.771  71.261  1.00  0.00    -0.258 A  
HETATM   25  C   UNL     1      -7.785   5.119  71.044  1.00  0.00    -0.095 A  
HETATM   26 CL   UNL     1      -8.656   2.584  70.754  1.00  0.00    -0.093 Cl 
HETATM   27  C   UNL     1      -7.965   6.489  71.267  1.00  0.00    -0.108 A  
ENDBRANCH  20  21
ENDBRANCH   4  15
TORSDOF 2
ENDMDL
MODEL       18
REMARK 921   NORMALIZED FREE ENERGY PREDICTED BY IDOCK:   -6.48 KCAL/MOL
REMARK 922        TOTAL FREE ENERGY PREDICTED BY IDOCK:   -8.12 KCAL/MOL
REMARK 923 INTER-LIGAND FREE ENERGY PREDICTED BY IDOCK:   -7.24 KCAL/MOL
REMARK 924 INTRA-LIGAND FREE ENERGY PREDICTED BY IDOCK:   -0.88 KCAL/MOL
REMARK 927      BINDING AFFINITY PREDICTED BY RF-SCORE:    0.00 PKD
ROOT
HETATM    1  O   UNL     1     -11.098  13.057  65.549  1.00  0.00    -0.274 OA 
HETATM    2  C   UNL     1     -10.763  14.106  66.386  1.00  0.00    -0.288 C  
HETATM    3  H   UNL     1     -11.374  13.170  64.647  1.00  0.00     0.000 HD 
HETATM    4  C   UNL     1     -10.371  13.946  67.667  1.00  0.00    -0.242 C  
HETATM    5  C   UNL     1     -10.132  15.185  68.502  1.00  0.00    -0.228 C  
HETATM    6  C   UNL     1     -10.545  16.650  66.552  1.00  0.00    -0.203 A  
HETATM    7  C   UNL     1     -10.542  17.924  65.964  1.00  0.00    -0.235 A  
HETATM    8  C   UNL     1     -10.304  16.517  67.908  1.00  0.00    -0.294 A  
HETATM    9  O   UNL     1      -9.767  15.112  69.672  1.00  0.00    -0.213 OA 
HETATM   10  C   UNL     1     -10.149  17.661  68.706  1.00  0.00    -0.377 A  
HETATM   11  C   UNL     1     -10.828  15.458  65.738  1.00  0.00    -0.343 C  
HETATM   12  C   UNL     1     -10.172  18.931  68.127  1.00  0.00    -0.454 A  
HETATM   13  O   UNL     1     -11.116  15.595  64.551  1.00  0.00    -0.399 OA 
HETATM   14  C   UNL     1     -10.342  19.061  66.751  1.00  0.00    -0.486 A  
ENDROOT
BRANCH   4  15
HETATM   15  C   UNL     1      -9.996  12.649  68.417  1.00  0.00    -0.210 C  
HETATM   16  C   UNL     1      -9.476  10.239  67.447  1.00  0.00    -0.174 C  
HETATM   17  C   UNL     1      -8.975  11.651  67.798  1.00  0.00    -0.170 C  
HETATM   18  C   UNL     1     -11.653  10.657  68.495  1.00  0.00    -0.279 C  
HETATM   19  C   UNL     1     -11.207  11.975  69.105  1.00  0.00    -0.305 C  
HETATM   20  C   UNL     1     -10.498   9.649  68.434  1.00  0.00    -0.258 C  
BRANCH  20  21
HETATM   21  C   UNL     1      -9.989   9.244  69.821  1.00  0.00    -0.213 A  
HETATM   22  C   UNL     1      -9.148   8.545  72.427  1.00  0.00    -0.238 A  
HETATM   23  C   UNL     1     -10.909   8.821  70.801  1.00  0.00    -0.282 A  
HETATM   24  C   UNL     1     -10.496   8.481  72.094  1.00  0.00    -0.412 A  
HETATM   25  C   UNL     1      -8.215   8.933  71.474  1.00  0.00    -0.143 A  
HETATM   26 CL   UNL     1      -8.630   8.128  74.013  1.00  0.00    -0.307 Cl 
HETATM   27  C   UNL     1      -8.632   9.261  70.179  1.00  0.00    -0.215 A  
ENDBRANCH  20  21
ENDBRANCH   4  15
TORSDOF 2
ENDMDL
MODEL       19
REMARK 921   NORMALIZED FREE ENERGY PREDICTED BY IDOCK:   -6.46 KCAL/MOL
REMARK 922        TOTAL FREE ENERGY PREDICTED BY IDOCK:   -8.09 KCAL/MOL
REMARK 923 INTER-LIGAND FREE ENERGY PREDICTED BY IDOCK:   -7.28 KCAL/MOL
REMARK 924 INTRA-LIGAND FREE ENERGY PREDICTED BY IDOCK:   -0.81 KCAL/MOL
REMARK 927      BINDING AFFINITY PREDICTED BY RF-SCORE:    0.00 PKD
ROOT
HETATM    1  O   UNL     1     -10.156   9.130  65.694  1.00  0.00    -0.416 OA 
HETATM    2  C   UNL     1     -10.270   8.904  67.054  1.00  0.00    -0.275 C  
HETATM    3  H   UNL     1     -10.125   8.438  65.045  1.00  0.00     0.000 HD 
HETATM    4  C   UNL     1     -10.313   9.887  67.976  1.00  0.00    -0.244 C  
HETATM    5  C   UNL     1     -10.338   9.497  69.438  1.00  0.00    -0.214 C  
HETATM    6  C   UNL     1     -10.460   7.097  68.855  1.00  0.00    -0.218 A  
HETATM    7  C   UNL     1     -10.628   5.757  69.239  1.00  0.00    -0.376 A  
HETATM    8  C   UNL     1     -10.339   8.079  69.821  1.00  0.00    -0.219 A  
HETATM    9  O   UNL     1     -10.385  10.342  70.329  1.00  0.00    -0.245 OA 
HETATM   10  C   UNL     1     -10.290   7.724  71.177  1.00  0.00    -0.218 A  
HETATM   11  C   UNL     1     -10.389   7.456  67.430  1.00  0.00    -0.270 C  
HETATM   12  C   UNL     1     -10.430   6.390  71.561  1.00  0.00    -0.256 A  
HETATM   13  O   UNL     1     -10.421   6.567  66.583  1.00  0.00    -0.212 OA 
HETATM   14  C   UNL     1     -10.626   5.409  70.592  1.00  0.00    -0.302 A  
ENDROOT
BRANCH   4  15
HETATM   15  C   UNL     1     -10.468  11.411  67.770  1.00  0.00    -0.215 C  
HETATM   16  C   UNL     1     -11.954  12.725  66.015  1.00  0.00    -0.491 C  
HETATM   17  C   UNL     1     -11.847  12.014  67.375  1.00  0.00    -0.268 C  
HETATM   18  C   UNL     1      -9.539  12.544  65.632  1.00  0.00    -0.099 C  
HETATM   19  C   UNL     1      -9.263  12.050  67.041  1.00  0.00    -0.195 C  
HETATM   20  C   UNL     1     -10.710  13.534  65.606  1.00  0.00    -0.284 C  
BRANCH  20  21
HETATM   21  C   UNL     1     -10.417  14.822  66.381  1.00  0.00    -0.294 A  
HETATM   22  C   UNL     1      -9.760  17.179  67.794  1.00  0.00    -0.271 A  
HETATM   23  C   UNL     1      -9.349  15.647  65.976  1.00  0.00    -0.384 A  
HETATM   24  C   UNL     1      -9.019  16.811  66.678  1.00  0.00    -0.278 A  
HETATM   25  C   UNL     1     -10.835  16.398  68.202  1.00  0.00    -0.346 A  
HETATM   26 CL   UNL     1      -9.362  18.608  68.664  1.00  0.00    -0.371 Cl 
HETATM   27  C   UNL     1     -11.169  15.241  67.490  1.00  0.00    -0.317 A  
ENDBRANCH  20  21
ENDBRANCH   4  15
TORSDOF 2
ENDMDL
MODEL       20
REMARK 921   NORMALIZED FREE ENERGY PREDICTED BY IDOCK:   -6.46 KCAL/MOL
REMARK 922        TOTAL FREE ENERGY PREDICTED BY IDOCK:   -8.09 KCAL/MOL
REMARK 923 INTER-LIGAND FREE ENERGY PREDICTED BY IDOCK:   -7.16 KCAL/MOL
REMARK 924 INTRA-LIGAND FREE ENERGY PREDICTED BY IDOCK:   -0.92 KCAL/MOL
REMARK 927      BINDING AFFINITY PREDICTED BY RF-SCORE:    0.00 PKD
ROOT
HETATM    1  O   UNL     1     -11.193  17.824  67.458  1.00  0.00    -0.059 OA 
HETATM    2  C   UNL     1      -9.885  17.678  67.031  1.00  0.00    -0.307 C  
HETATM    3  H   UNL     1     -11.656  18.654  67.468  1.00  0.00     0.000 HD 
HETATM    4  C   UNL     1      -9.228  16.501  67.017  1.00  0.00    -0.233 C  
HETATM    5  C   UNL     1      -7.768  16.500  66.622  1.00  0.00    -0.283 C  
HETATM    6  C   UNL     1      -7.846  18.918  66.109  1.00  0.00    -0.272 A  
HETATM    7  C   UNL     1      -7.242  20.073  65.587  1.00  0.00    -0.330 A  
HETATM    8  C   UNL     1      -7.108  17.757  66.243  1.00  0.00    -0.329 A  
HETATM    9  O   UNL     1      -7.113  15.462  66.580  1.00  0.00    -0.030 OA 
HETATM   10  C   UNL     1      -5.737  17.761  65.946  1.00  0.00    -0.217 A  
HETATM   11  C   UNL     1      -9.254  18.946  66.535  1.00  0.00    -0.331 C  
HETATM   12  C   UNL     1      -5.128  18.915  65.452  1.00  0.00    -0.190 A  
HETATM   13  O   UNL     1      -9.878  20.003  66.482  1.00  0.00    -0.400 OA 
HETATM   14  C   UNL     1      -5.887  20.065  65.247  1.00  0.00    -0.225 A  
ENDROOT
BRANCH   4  15
HETATM   15  C   UNL     1      -9.781  15.074  67.234  1.00  0.00    -0.220 C  
HETATM   16  C   UNL     1     -12.199  14.116  66.734  1.00  0.00    -0.429 C  
HETATM   17  C   UNL     1     -10.790  14.460  66.221  1.00  0.00    -0.313 C  
HETATM   18  C   UNL     1     -11.575  14.627  69.050  1.00  0.00    -0.328 C  
HETATM   19  C   UNL     1     -10.100  14.766  68.716  1.00  0.00    -0.237 C  
HETATM   20  C   UNL     1     -12.250  13.566  68.170  1.00  0.00    -0.141 C  
BRANCH  20  21
HETATM   21  C   UNL     1     -11.699  12.158  68.409  1.00  0.00    -0.388 A  
HETATM   22  C   UNL     1     -10.636   9.596  68.953  1.00  0.00    -0.217 A  
HETATM   23  C   UNL     1     -11.689  11.629  69.716  1.00  0.00    -0.425 A  
HETATM   24  C   UNL     1     -11.158  10.363  69.988  1.00  0.00    -0.379 A  
HETATM   25  C   UNL     1     -10.655  10.081  67.651  1.00  0.00    -0.323 A  
HETATM   26 CL   UNL     1      -9.980   8.040  69.278  1.00  0.00    -0.186 Cl 
HETATM   27  C   UNL     1     -11.198  11.342  67.382  1.00  0.00    -0.370 A  
ENDBRANCH  20  21
ENDBRANCH   4  15
TORSDOF 2
ENDMDL
MODEL       21
REMARK 921   NORMALIZED FREE ENERGY PREDICTED BY IDOCK:   -6.45 KCAL/MOL
REMARK 922        TOTAL FREE ENERGY PREDICTED BY IDOCK:   -8.08 KCAL/MOL
REMARK 923 INTER-LIGAND FREE ENERGY PREDICTED BY IDOCK:   -7.90 KCAL/MOL
REMARK 924 INTRA-LIGAND FREE ENERGY PREDICTED BY IDOCK:   -0.17 KCAL/MOL
REMARK 927      BINDING AFFINITY PREDICTED BY RF-SCORE:    0.00 PKD
ROOT
HETATM    1  O   UNL     1     -11.247  14.312  64.503  1.00  0.00    -0.479 OA 
HETATM    2  C   UNL     1     -10.770  15.092  65.541  1.00  0.00    -0.365 C  
HETATM    3  H   UNL     1     -11.610  14.668  63.700  1.00  0.00     0.000 HD 
HETATM    4  C   UNL     1     -10.256  14.588  66.681  1.00  0.00    -0.276 C  
HETATM    5  C   UNL     1      -9.864  15.553  67.778  1.00  0.00    -0.213 C  
HETATM    6  C   UNL     1     -10.401  17.494  66.342  1.00  0.00    -0.334 A  
HETATM    7  C   UNL     1     -10.391  18.878  66.111  1.00  0.00    -0.517 A  
HETATM    8  C   UNL     1     -10.026  16.999  67.577  1.00  0.00    -0.274 A  
HETATM    9  O   UNL     1      -9.382  15.162  68.838  1.00  0.00    -0.190 OA 
HETATM   10  C   UNL     1      -9.727  17.885  68.624  1.00  0.00    -0.355 A  
HETATM   11  C   UNL     1     -10.831  16.569  65.281  1.00  0.00    -0.221 C  
HETATM   12  C   UNL     1      -9.743  19.263  68.405  1.00  0.00    -0.474 A  
HETATM   13  O   UNL     1     -11.234  17.023  64.214  1.00  0.00    -1.186 OA 
HETATM   14  C   UNL     1     -10.049  19.759  67.140  1.00  0.00    -0.553 A  
ENDROOT
BRANCH   4  15
HETATM   15  C   UNL     1      -9.874  13.128  67.016  1.00  0.00    -0.244 C  
HETATM   16  C   UNL     1     -10.589  10.885  65.804  1.00  0.00    -0.230 C  
HETATM   17  C   UNL     1      -9.642  12.095  65.876  1.00  0.00    -0.226 C  
HETATM   18  C   UNL     1     -11.659  11.485  67.928  1.00  0.00    -0.352 C  
HETATM   19  C   UNL     1     -10.639  12.567  68.238  1.00  0.00    -0.245 C  
HETATM   20  C   UNL     1     -11.020  10.315  67.167  1.00  0.00    -0.233 C  
BRANCH  20  21
HETATM   21  C   UNL     1      -9.961   9.578  67.993  1.00  0.00    -0.198 A  
HETATM   22  C   UNL     1      -7.977   8.157  69.417  1.00  0.00    -0.114 A  
HETATM   23  C   UNL     1      -8.727   9.246  67.399  1.00  0.00    -0.121 A  
HETATM   24  C   UNL     1      -7.745   8.536  68.101  1.00  0.00    -0.102 A  
HETATM   25  C   UNL     1      -9.174   8.492  70.037  1.00  0.00    -0.155 A  
HETATM   26 CL   UNL     1      -6.777   7.284  70.288  1.00  0.00    -0.050 Cl 
HETATM   27  C   UNL     1     -10.147   9.212  69.335  1.00  0.00    -0.198 A  
ENDBRANCH  20  21
ENDBRANCH   4  15
TORSDOF 2
ENDMDL
MODEL       22
REMARK 921   NORMALIZED FREE ENERGY PREDICTED BY IDOCK:   -6.44 KCAL/MOL
REMARK 922        TOTAL FREE ENERGY PREDICTED BY IDOCK:   -8.07 KCAL/MOL
REMARK 923 INTER-LIGAND FREE ENERGY PREDICTED BY IDOCK:   -7.81 KCAL/MOL
REMARK 924 INTRA-LIGAND FREE ENERGY PREDICTED BY IDOCK:   -0.26 KCAL/MOL
REMARK 927      BINDING AFFINITY PREDICTED BY RF-SCORE:    0.00 PKD
ROOT
HETATM    1  O   UNL     1     -10.448  11.363  67.966  1.00  0.00    -0.178 OA 
HETATM    2  C   UNL     1     -11.165  11.718  69.094  1.00  0.00    -0.264 C  
HETATM    3  H   UNL     1     -10.175  11.980  67.298  1.00  0.00     0.000 HD 
HETATM    4  C   UNL     1     -11.553  10.841  70.042  1.00  0.00    -0.417 C  
HETATM    5  C   UNL     1     -12.420  11.348  71.174  1.00  0.00    -0.360 C  
HETATM    6  C   UNL     1     -12.252  13.670  70.341  1.00  0.00    -0.434 A  
HETATM    7  C   UNL     1     -12.486  15.044  70.507  1.00  0.00    -0.425 A  
HETATM    8  C   UNL     1     -12.798  12.766  71.233  1.00  0.00    -0.355 A  
HETATM    9  O   UNL     1     -12.802  10.605  72.075  1.00  0.00    -0.422 OA 
HETATM   10  C   UNL     1     -13.659  13.216  72.245  1.00  0.00    -0.677 A  
HETATM   11  C   UNL     1     -11.447  13.188  69.207  1.00  0.00    -0.291 C  
HETATM   12  C   UNL     1     -13.916  14.579  72.397  1.00  0.00    -0.580 A  
HETATM   13  O   UNL     1     -11.031  13.993  68.379  1.00  0.00    -0.237 OA 
HETATM   14  C   UNL     1     -13.307  15.496  71.543  1.00  0.00    -0.593 A  
ENDROOT
BRANCH   4  15
HETATM   15  C   UNL     1     -11.139   9.365  70.232  1.00  0.00    -0.299 C  
HETATM   16  C   UNL     1     -12.187   7.517  71.815  1.00  0.00    -0.345 C  
HETATM   17  C   UNL     1     -12.219   8.271  70.474  1.00  0.00     0.231 C  
HETATM   18  C   UNL     1     -10.073   8.580  72.461  1.00  0.00    -0.320 C  
HETATM   19  C   UNL     1      -9.863   9.198  71.090  1.00  0.00    -0.371 C  
HETATM   20  C   UNL     1     -10.778   7.221  72.359  1.00  0.00    -0.283 C  
BRANCH  20  21
HETATM   21  C   UNL     1      -9.941   6.171  71.622  1.00  0.00    -0.203 A  
HETATM   22  C   UNL     1      -8.496   4.170  70.248  1.00  0.00    -0.068 A  
HETATM   23  C   UNL     1     -10.498   5.487  70.523  1.00  0.00    -0.347 A  
HETATM   24  C   UNL     1      -9.786   4.491  69.845  1.00  0.00    -0.288 A  
HETATM   25  C   UNL     1      -7.911   4.844  71.313  1.00  0.00    -0.101 A  
HETATM   26 CL   UNL     1      -7.612   2.946  69.421  1.00  0.00    -0.044 Cl 
HETATM   27  C   UNL     1      -8.623   5.848  71.980  1.00  0.00    -0.137 A  
ENDBRANCH  20  21
ENDBRANCH   4  15
TORSDOF 2
ENDMDL
MODEL       23
REMARK 921   NORMALIZED FREE ENERGY PREDICTED BY IDOCK:   -6.42 KCAL/MOL
REMARK 922        TOTAL FREE ENERGY PREDICTED BY IDOCK:   -8.05 KCAL/MOL
REMARK 923 INTER-LIGAND FREE ENERGY PREDICTED BY IDOCK:   -7.95 KCAL/MOL
REMARK 924 INTRA-LIGAND FREE ENERGY PREDICTED BY IDOCK:   -0.10 KCAL/MOL
REMARK 927      BINDING AFFINITY PREDICTED BY RF-SCORE:    0.00 PKD
ROOT
HETATM    1  O   UNL     1     -13.159  13.578  71.016  1.00  0.00    -0.250 OA 
HETATM    2  C   UNL     1     -12.397  12.583  70.430  1.00  0.00    -0.232 C  
HETATM    3  H   UNL     1     -13.694  13.447  71.790  1.00  0.00     0.000 HD 
HETATM    4  C   UNL     1     -11.638  12.769  69.332  1.00  0.00    -0.361 C  
HETATM    5  C   UNL     1     -10.934  11.570  68.736  1.00  0.00    -0.222 C  
HETATM    6  C   UNL     1     -11.718  10.121  70.581  1.00  0.00    -0.425 A  
HETATM    7  C   UNL     1     -11.697   8.890  71.256  1.00  0.00    -0.370 A  
HETATM    8  C   UNL     1     -11.069  10.250  69.366  1.00  0.00    -0.299 A  
HETATM    9  O   UNL     1     -10.221  11.671  67.741  1.00  0.00    -0.181 OA 
HETATM   10  C   UNL     1     -10.472   9.129  68.769  1.00  0.00    -0.236 A  
HETATM   11  C   UNL     1     -12.447  11.266  71.148  1.00  0.00    -0.373 C  
HETATM   12  C   UNL     1     -10.474   7.898  69.427  1.00  0.00    -0.222 A  
HETATM   13  O   UNL     1     -13.083  11.118  72.189  1.00  0.00    -0.463 OA 
HETATM   14  C   UNL     1     -11.063   7.785  70.684  1.00  0.00    -0.264 A  
ENDROOT
BRANCH   4  15
HETATM   15  C   UNL     1     -11.258  14.088  68.622  1.00  0.00    -0.294 C  
HETATM   16  C   UNL     1     -10.831  14.549  66.049  1.00  0.00    -0.310 C  
HETATM   17  C   UNL     1     -11.829  14.415  67.213  1.00  0.00    -0.434 C  
HETATM   18  C   UNL     1      -8.909  14.375  67.563  1.00  0.00    -0.197 C  
HETATM   19  C   UNL     1      -9.771  14.471  68.810  1.00  0.00    -0.210 C  
HETATM   20  C   UNL     1      -9.492  15.212  66.416  1.00  0.00    -0.325 C  
BRANCH  20  21
HETATM   21  C   UNL     1      -9.505  16.712  66.723  1.00  0.00    -0.260 A  
HETATM   22  C   UNL     1      -9.549  19.502  67.172  1.00  0.00    -0.331 A  
HETATM   23  C   UNL     1     -10.385  17.557  66.016  1.00  0.00    -0.309 A  
HETATM   24  C   UNL     1     -10.403  18.939  66.232  1.00  0.00    -0.512 A  
HETATM   25  C   UNL     1      -8.688  18.691  67.902  1.00  0.00    -0.309 A  
HETATM   26 CL   UNL     1      -9.564  21.200  67.446  1.00  0.00    -0.337 Cl 
HETATM   27  C   UNL     1      -8.682  17.308  67.691  1.00  0.00    -0.219 A  
ENDBRANCH  20  21
ENDBRANCH   4  15
TORSDOF 2
ENDMDL
MODEL       24
REMARK 921   NORMALIZED FREE ENERGY PREDICTED BY IDOCK:   -6.39 KCAL/MOL
REMARK 922        TOTAL FREE ENERGY PREDICTED BY IDOCK:   -8.01 KCAL/MOL
REMARK 923 INTER-LIGAND FREE ENERGY PREDICTED BY IDOCK:   -7.36 KCAL/MOL
REMARK 924 INTRA-LIGAND FREE ENERGY PREDICTED BY IDOCK:   -0.65 KCAL/MOL
REMARK 927      BINDING AFFINITY PREDICTED BY RF-SCORE:    0.00 PKD
ROOT
HETATM    1  O   UNL     1     -11.700  11.597  70.662  1.00  0.00    -0.463 OA 
HETATM    2  C   UNL     1     -11.426  11.162  69.378  1.00  0.00    -0.298 C  
HETATM    3  H   UNL     1     -12.001  12.474  70.870  1.00  0.00     0.000 HD 
HETATM    4  C   UNL     1     -10.999   9.917  69.084  1.00  0.00    -0.233 C  
HETATM    5  C   UNL     1     -10.639   9.604  67.648  1.00  0.00    -0.275 C  
HETATM    6  C   UNL     1     -11.373  11.849  66.914  1.00  0.00    -0.392 A  
HETATM    7  C   UNL     1     -11.656  12.763  65.887  1.00  0.00    -0.428 A  
HETATM    8  C   UNL     1     -10.780  10.637  66.613  1.00  0.00    -0.246 A  
HETATM    9  O   UNL     1     -10.251   8.489  67.310  1.00  0.00    -0.226 OA 
HETATM   10  C   UNL     1     -10.378  10.363  65.297  1.00  0.00    -0.267 A  
HETATM   11  C   UNL     1     -11.684  12.186  68.312  1.00  0.00    -0.342 C  
HETATM   12  C   UNL     1     -10.633  11.281  64.278  1.00  0.00    -0.422 A  
HETATM   13  O   UNL     1     -12.141  13.296  68.576  1.00  0.00    -0.341 OA 
HETATM   14  C   UNL     1     -11.297  12.471  64.569  1.00  0.00    -0.379 A  
ENDROOT
BRANCH   4  15
HETATM   15  C   UNL     1     -10.929   8.670  69.994  1.00  0.00    -0.208 C  
HETATM   16  C   UNL     1     -11.925   8.305  72.421  1.00  0.00    -0.447 C  
HETATM   17  C   UNL     1     -12.137   8.288  70.897  1.00  0.00    -0.149 C  
HETATM   18  C   UNL     1      -9.520   8.715  72.169  1.00  0.00    -0.373 C  
HETATM   19  C   UNL     1      -9.548   8.488  70.667  1.00  0.00    -0.203 C  
HETATM   20  C   UNL     1     -10.540   7.823  72.889  1.00  0.00    -0.428 C  
BRANCH  20  21
HETATM   21  C   UNL     1     -10.226   6.330  72.750  1.00  0.00    -0.202 A  
HETATM   22  C   UNL     1      -9.576   3.602  72.403  1.00  0.00    -0.140 A  
HETATM   23  C   UNL     1      -8.924   5.925  72.395  1.00  0.00    -0.137 A  
HETATM   24  C   UNL     1      -8.602   4.575  72.217  1.00  0.00    -0.118 A  
HETATM   25  C   UNL     1     -10.862   3.970  72.777  1.00  0.00    -0.135 A  
HETATM   26 CL   UNL     1      -9.189   1.940  72.185  1.00  0.00    -0.120 Cl 
HETATM   27  C   UNL     1     -11.177   5.320  72.966  1.00  0.00    -0.387 A  
ENDBRANCH  20  21
ENDBRANCH   4  15
TORSDOF 2
ENDMDL
MODEL       25
REMARK 921   NORMALIZED FREE ENERGY PREDICTED BY IDOCK:   -6.33 KCAL/MOL
REMARK 922        TOTAL FREE ENERGY PREDICTED BY IDOCK:   -7.95 KCAL/MOL
REMARK 923 INTER-LIGAND FREE ENERGY PREDICTED BY IDOCK:   -7.35 KCAL/MOL
REMARK 924 INTRA-LIGAND FREE ENERGY PREDICTED BY IDOCK:   -0.60 KCAL/MOL
REMARK 927      BINDING AFFINITY PREDICTED BY RF-SCORE:    0.00 PKD
ROOT
HETATM    1  O   UNL     1      -9.695   9.347  66.815  1.00  0.00    -0.170 OA 
HETATM    2  C   UNL     1     -10.290   9.325  68.064  1.00  0.00    -0.221 C  
HETATM    3  H   UNL     1      -9.430   8.566  66.343  1.00  0.00     0.000 HD 
HETATM    4  C   UNL     1     -10.665  10.434  68.735  1.00  0.00    -0.255 C  
HETATM    5  C   UNL     1     -11.212  10.271  70.136  1.00  0.00    -0.318 C  
HETATM    6  C   UNL     1     -11.106   7.807  69.955  1.00  0.00    -0.142 A  
HETATM    7  C   UNL     1     -11.396   6.534  70.471  1.00  0.00    -0.426 A  
HETATM    8  C   UNL     1     -11.344   8.932  70.723  1.00  0.00    -0.325 A  
HETATM    9  O   UNL     1     -11.579  11.238  70.799  1.00  0.00    -0.190 OA 
HETATM   10  C   UNL     1     -11.785   8.793  72.048  1.00  0.00    -0.442 A  
HETATM   11  C   UNL     1     -10.529   7.947  68.608  1.00  0.00    -0.167 C  
HETATM   12  C   UNL     1     -12.048   7.527  72.573  1.00  0.00    -0.158 A  
HETATM   13  O   UNL     1     -10.252   6.939  67.965  1.00  0.00    -0.158 OA 
HETATM   14  C   UNL     1     -11.879   6.398  71.774  1.00  0.00    -0.374 A  
ENDROOT
BRANCH   4  15
HETATM   15  C   UNL     1     -10.742  11.894  68.237  1.00  0.00    -0.253 C  
HETATM   16  C   UNL     1     -11.255  12.816  65.807  1.00  0.00    -0.341 C  
HETATM   17  C   UNL     1     -11.785  12.303  67.158  1.00  0.00    -0.396 C  
HETATM   18  C   UNL     1      -8.941  12.823  66.620  1.00  0.00    -0.152 C  
HETATM   19  C   UNL     1      -9.351  12.547  68.057  1.00  0.00    -0.205 C  
HETATM   20  C   UNL     1      -9.986  13.682  65.896  1.00  0.00    -0.304 C  
BRANCH  20  21
HETATM   21  C   UNL     1     -10.125  15.083  66.499  1.00  0.00    -0.286 A  
HETATM   22  C   UNL     1     -10.264  17.677  67.610  1.00  0.00    -0.351 A  
HETATM   23  C   UNL     1      -9.249  16.106  66.086  1.00  0.00    -0.382 A  
HETATM   24  C   UNL     1      -9.313  17.390  66.639  1.00  0.00    -0.279 A  
HETATM   25  C   UNL     1     -11.157  16.695  68.019  1.00  0.00    -0.255 A  
HETATM   26 CL   UNL     1     -10.349  19.252  68.297  1.00  0.00    -0.491 Cl 
HETATM   27  C   UNL     1     -11.098  15.416  67.455  1.00  0.00    -0.311 A  
ENDBRANCH  20  21
ENDBRANCH   4  15
TORSDOF 2
ENDMDL
MODEL       26
REMARK 921   NORMALIZED FREE ENERGY PREDICTED BY IDOCK:   -6.32 KCAL/MOL
REMARK 922        TOTAL FREE ENERGY PREDICTED BY IDOCK:   -7.93 KCAL/MOL
REMARK 923 INTER-LIGAND FREE ENERGY PREDICTED BY IDOCK:   -7.22 KCAL/MOL
REMARK 924 INTRA-LIGAND FREE ENERGY PREDICTED BY IDOCK:   -0.71 KCAL/MOL
REMARK 927      BINDING AFFINITY PREDICTED BY RF-SCORE:    0.00 PKD
ROOT
HETATM    1  O   UNL     1     -11.170  17.027  70.628  1.00  0.00    -0.326 OA 
HETATM    2  C   UNL     1     -11.090  15.740  70.128  1.00  0.00    -0.352 C  
HETATM    3  H   UNL     1     -11.723  17.276  71.360  1.00  0.00     0.000 HD 
HETATM    4  C   UNL     1     -10.307  15.388  69.088  1.00  0.00    -0.240 C  
HETATM    5  C   UNL     1     -10.391  13.966  68.578  1.00  0.00    -0.244 C  
HETATM    6  C   UNL     1     -11.958  13.347  70.389  1.00  0.00    -0.358 A  
HETATM    7  C   UNL     1     -12.682  12.373  71.093  1.00  0.00    -0.336 A  
HETATM    8  C   UNL     1     -11.291  13.004  69.227  1.00  0.00    -0.310 A  
HETATM    9  O   UNL     1      -9.700  13.577  67.640  1.00  0.00    -0.218 OA 
HETATM   10  C   UNL     1     -11.418  11.708  68.705  1.00  0.00    -0.346 A  
HETATM   11  C   UNL     1     -11.924  14.737  70.870  1.00  0.00    -0.324 C  
HETATM   12  C   UNL     1     -12.160  10.744  69.389  1.00  0.00    -0.315 A  
HETATM   13  O   UNL     1     -12.582  15.047  71.861  1.00  0.00    -0.303 OA 
HETATM   14  C   UNL     1     -12.771  11.069  70.598  1.00  0.00    -0.375 A  
ENDROOT
BRANCH   4  15
HETATM   15  C   UNL     1      -9.202  16.204  68.380  1.00  0.00    -0.203 C  
HETATM   16  C   UNL     1      -7.238  17.637  69.431  1.00  0.00     0.021 C  
HETATM   17  C   UNL     1      -7.766  16.265  68.976  1.00  0.00    -0.224 C  
HETATM   18  C   UNL     1      -9.197  18.792  68.514  1.00  0.00    -0.386 C  
HETATM   19  C   UNL     1      -9.712  17.549  67.811  1.00  0.00    -0.274 C  
HETATM   20  C   UNL     1      -7.663  18.822  68.546  1.00  0.00    -0.357 C  
BRANCH  20  21
HETATM   21  C   UNL     1      -7.042  18.921  67.150  1.00  0.00    -0.212 A  
HETATM   22  C   UNL     1      -5.998  19.150  64.534  1.00  0.00    -0.263 A  
HETATM   23  C   UNL     1      -7.367  20.015  66.322  1.00  0.00    -0.312 A  
HETATM   24  C   UNL     1      -6.856  20.126  65.025  1.00  0.00    -0.270 A  
HETATM   25  C   UNL     1      -5.639  18.074  65.336  1.00  0.00    -0.142 A  
HETATM   26 CL   UNL     1      -5.364  19.279  62.940  1.00  0.00    -0.352 Cl 
HETATM   27  C   UNL     1      -6.143  17.972  66.638  1.00  0.00    -0.201 A  
ENDBRANCH  20  21
ENDBRANCH   4  15
TORSDOF 2
ENDMDL
MODEL       27
REMARK 921   NORMALIZED FREE ENERGY PREDICTED BY IDOCK:   -6.31 KCAL/MOL
REMARK 922        TOTAL FREE ENERGY PREDICTED BY IDOCK:   -7.93 KCAL/MOL
REMARK 923 INTER-LIGAND FREE ENERGY PREDICTED BY IDOCK:   -7.21 KCAL/MOL
REMARK 924 INTRA-LIGAND FREE ENERGY PREDICTED BY IDOCK:   -0.72 KCAL/MOL
REMARK 927      BINDING AFFINITY PREDICTED BY RF-SCORE:    0.00 PKD
ROOT
HETATM    1  O   UNL     1     -10.581  14.498  69.713  1.00  0.00    -0.429 OA 
HETATM    2  C   UNL     1     -10.275  15.443  68.750  1.00  0.00    -0.217 C  
HETATM    3  H   UNL     1     -10.839  14.714  70.602  1.00  0.00     0.000 HD 
HETATM    4  C   UNL     1      -9.909  15.136  67.489  1.00  0.00    -0.220 C  
HETATM    5  C   UNL     1      -9.504  16.265  66.567  1.00  0.00    -0.264 C  
HETATM    6  C   UNL     1     -10.072  17.951  68.285  1.00  0.00    -0.376 A  
HETATM    7  C   UNL     1     -10.254  19.290  68.664  1.00  0.00    -0.438 A  
HETATM    8  C   UNL     1      -9.538  17.653  67.045  1.00  0.00    -0.276 A  
HETATM    9  O   UNL     1      -9.167  16.056  65.404  1.00  0.00    -0.292 OA 
HETATM   10  C   UNL     1      -9.093  18.688  66.208  1.00  0.00    -0.236 A  
HETATM   11  C   UNL     1     -10.425  16.863  69.211  1.00  0.00    -0.319 C  
HETATM   12  C   UNL     1      -9.248  20.020  66.594  1.00  0.00    -0.484 A  
HETATM   13  O   UNL     1     -10.827  17.140  70.338  1.00  0.00     0.140 OA 
HETATM   14  C   UNL     1      -9.854  20.322  67.812  1.00  0.00    -0.534 A  
ENDROOT
BRANCH   4  15
HETATM   15  C   UNL     1      -9.953  13.771  66.767  1.00  0.00    -0.270 C  
HETATM   16  C   UNL     1     -11.658  11.766  67.067  1.00  0.00    -0.321 C  
HETATM   17  C   UNL     1     -11.318  13.115  66.409  1.00  0.00    -0.349 C  
HETATM   18  C   UNL     1      -9.422  11.588  68.059  1.00  0.00    -0.181 C  
HETATM   19  C   UNL     1      -8.886  12.777  67.282  1.00  0.00    -0.198 C  
HETATM   20  C   UNL     1     -10.464  10.811  67.244  1.00  0.00    -0.282 C  
BRANCH  20  21
HETATM   21  C   UNL     1      -9.876  10.173  65.981  1.00  0.00    -0.308 A  
HETATM   22  C   UNL     1      -8.692   8.969  63.715  1.00  0.00    -0.075 A  
HETATM   23  C   UNL     1      -9.088   9.010  66.095  1.00  0.00    -0.246 A  
HETATM   24  C   UNL     1      -8.496   8.416  64.974  1.00  0.00    -0.160 A  
HETATM   25  C   UNL     1      -9.484  10.102  63.570  1.00  0.00    -0.310 A  
HETATM   26 CL   UNL     1      -7.969   8.247  62.332  1.00  0.00    -0.148 Cl 
HETATM   27  C   UNL     1     -10.084  10.685  64.691  1.00  0.00    -0.417 A  
ENDBRANCH  20  21
ENDBRANCH   4  15
TORSDOF 2
ENDMDL
MODEL       28
REMARK 921   NORMALIZED FREE ENERGY PREDICTED BY IDOCK:   -6.31 KCAL/MOL
REMARK 922        TOTAL FREE ENERGY PREDICTED BY IDOCK:   -7.93 KCAL/MOL
REMARK 923 INTER-LIGAND FREE ENERGY PREDICTED BY IDOCK:   -7.02 KCAL/MOL
REMARK 924 INTRA-LIGAND FREE ENERGY PREDICTED BY IDOCK:   -0.91 KCAL/MOL
REMARK 927      BINDING AFFINITY PREDICTED BY RF-SCORE:    0.00 PKD
ROOT
HETATM    1  O   UNL     1     -12.102  13.956  67.799  1.00  0.00    -0.405 OA 
HETATM    2  C   UNL     1     -10.935  13.226  67.663  1.00  0.00    -0.262 C  
HETATM    3  H   UNL     1     -12.965  13.564  67.871  1.00  0.00     0.000 HD 
HETATM    4  C   UNL     1      -9.711  13.783  67.560  1.00  0.00    -0.230 C  
HETATM    5  C   UNL     1      -8.529  12.871  67.314  1.00  0.00    -0.197 C  
HETATM    6  C   UNL     1      -9.964  10.865  67.491  1.00  0.00    -0.201 A  
HETATM    7  C   UNL     1     -10.104   9.470  67.561  1.00  0.00    -0.257 A  
HETATM    8  C   UNL     1      -8.727  11.419  67.218  1.00  0.00    -0.148 A  
HETATM    9  O   UNL     1      -7.386  13.312  67.217  1.00  0.00    -0.140 OA 
HETATM   10  C   UNL     1      -7.638  10.586  66.920  1.00  0.00    -0.110 A  
HETATM   11  C   UNL     1     -11.132  11.738  67.684  1.00  0.00    -0.252 C  
HETATM   12  C   UNL     1      -7.781   9.199  66.963  1.00  0.00    -0.098 A  
HETATM   13  O   UNL     1     -12.240  11.233  67.850  1.00  0.00    -0.570 OA 
HETATM   14  C   UNL     1      -9.009   8.640  67.310  1.00  0.00    -0.145 A  
ENDROOT
BRANCH   4  15
HETATM   15  C   UNL     1      -9.287  15.252  67.779  1.00  0.00    -0.196 C  
HETATM   16  C   UNL     1     -10.592  17.213  68.991  1.00  0.00    -0.282 C  
HETATM   17  C   UNL     1      -9.664  15.990  69.096  1.00  0.00    -0.251 C  
HETATM   18  C   UNL     1     -10.517  17.169  66.540  1.00  0.00    -0.255 C  
HETATM   19  C   UNL     1      -9.420  16.119  66.504  1.00  0.00    -0.289 C  
HETATM   20  C   UNL     1     -10.363  18.097  67.752  1.00  0.00    -0.413 C  
BRANCH  20  21
HETATM   21  C   UNL     1      -9.078  18.929  67.704  1.00  0.00    -0.312 A  
HETATM   22  C   UNL     1      -6.690  20.426  67.504  1.00  0.00    -0.278 A  
HETATM   23  C   UNL     1      -8.713  19.573  66.505  1.00  0.00    -0.388 A  
HETATM   24  C   UNL     1      -7.528  20.309  66.402  1.00  0.00    -0.284 A  
HETATM   25  C   UNL     1      -7.035  19.822  68.707  1.00  0.00    -0.366 A  
HETATM   26 CL   UNL     1      -5.230  21.329  67.387  1.00  0.00    -0.312 Cl 
HETATM   27  C   UNL     1      -8.228  19.097  68.808  1.00  0.00    -0.382 A  
ENDBRANCH  20  21
ENDBRANCH   4  15
TORSDOF 2
ENDMDL
MODEL       29
REMARK 921   NORMALIZED FREE ENERGY PREDICTED BY IDOCK:   -6.25 KCAL/MOL
REMARK 922        TOTAL FREE ENERGY PREDICTED BY IDOCK:   -7.85 KCAL/MOL
REMARK 923 INTER-LIGAND FREE ENERGY PREDICTED BY IDOCK:   -7.00 KCAL/MOL
REMARK 924 INTRA-LIGAND FREE ENERGY PREDICTED BY IDOCK:   -0.86 KCAL/MOL
REMARK 927      BINDING AFFINITY PREDICTED BY RF-SCORE:    0.00 PKD
ROOT
HETATM    1  O   UNL     1     -10.357  14.331  67.184  1.00  0.00    -0.259 OA 
HETATM    2  C   UNL     1     -10.990  13.958  68.356  1.00  0.00    -0.253 C  
HETATM    3  H   UNL     1     -10.370  15.215  66.835  1.00  0.00     0.000 HD 
HETATM    4  C   UNL     1     -10.971  12.704  68.851  1.00  0.00    -0.273 C  
HETATM    5  C   UNL     1     -11.790  12.410  70.089  1.00  0.00    -0.262 C  
HETATM    6  C   UNL     1     -12.428  14.790  70.302  1.00  0.00    -0.393 A  
HETATM    7  C   UNL     1     -13.034  15.829  71.026  1.00  0.00    -0.377 A  
HETATM    8  C   UNL     1     -12.558  13.483  70.734  1.00  0.00    -0.382 A  
HETATM    9  O   UNL     1     -11.811  11.292  70.596  1.00  0.00    -0.340 OA 
HETATM   10  C   UNL     1     -13.371  13.190  71.839  1.00  0.00    -0.546 A  
HETATM   11  C   UNL     1     -11.676  15.085  69.072  1.00  0.00    -0.325 C  
HETATM   12  C   UNL     1     -13.997  14.218  72.545  1.00  0.00    -0.519 A  
HETATM   13  O   UNL     1     -11.631  16.240  68.656  1.00  0.00    -0.355 OA 
HETATM   14  C   UNL     1     -13.806  15.541  72.154  1.00  0.00    -0.621 A  
ENDROOT
BRANCH   4  15
HETATM   15  C   UNL     1     -10.118  11.494  68.408  1.00  0.00    -0.207 C  
HETATM   16  C   UNL     1      -7.847  11.449  67.045  1.00  0.00    -0.158 C  
HETATM   17  C   UNL     1      -8.565  11.589  68.399  1.00  0.00    -0.159 C  
HETATM   18  C   UNL     1      -9.936  10.868  65.899  1.00  0.00    -0.294 C  
HETATM   19  C   UNL     1     -10.716  10.741  67.197  1.00  0.00    -0.324 C  
HETATM   20  C   UNL     1      -8.477  10.430  66.079  1.00  0.00    -0.149 C  
BRANCH  20  21
HETATM   21  C   UNL     1      -8.341   8.946  66.430  1.00  0.00    -0.117 A  
HETATM   22  C   UNL     1      -8.191   6.186  67.017  1.00  0.00    -0.106 A  
HETATM   23  C   UNL     1      -8.734   7.972  65.490  1.00  0.00    -0.134 A  
HETATM   24  C   UNL     1      -8.667   6.605  65.782  1.00  0.00    -0.126 A  
HETATM   25  C   UNL     1      -7.773   7.122  67.955  1.00  0.00    -0.113 A  
HETATM   26 CL   UNL     1      -8.105   4.507  67.386  1.00  0.00    -0.100 Cl 
HETATM   27  C   UNL     1      -7.831   8.487  67.655  1.00  0.00    -0.103 A  
ENDBRANCH  20  21
ENDBRANCH   4  15
TORSDOF 2
ENDMDL
MODEL       30
REMARK 921   NORMALIZED FREE ENERGY PREDICTED BY IDOCK:   -6.18 KCAL/MOL
REMARK 922        TOTAL FREE ENERGY PREDICTED BY IDOCK:   -7.78 KCAL/MOL
REMARK 923 INTER-LIGAND FREE ENERGY PREDICTED BY IDOCK:   -7.46 KCAL/MOL
REMARK 924 INTRA-LIGAND FREE ENERGY PREDICTED BY IDOCK:   -0.32 KCAL/MOL
REMARK 927      BINDING AFFINITY PREDICTED BY RF-SCORE:    0.00 PKD
ROOT
HETATM    1  O   UNL     1      -6.388  15.270  69.879  1.00  0.00    -0.150 OA 
HETATM    2  C   UNL     1      -7.093  16.292  69.269  1.00  0.00    -0.222 C  
HETATM    3  H   UNL     1      -5.488  15.351  70.172  1.00  0.00     0.000 HD 
HETATM    4  C   UNL     1      -8.371  16.176  68.854  1.00  0.00    -0.233 C  
HETATM    5  C   UNL     1      -8.990  17.340  68.110  1.00  0.00    -0.254 C  
HETATM    6  C   UNL     1      -6.964  18.715  68.458  1.00  0.00    -0.285 A  
HETATM    7  C   UNL     1      -6.299  19.948  68.371  1.00  0.00    -0.308 A  
HETATM    8  C   UNL     1      -8.210  18.563  67.879  1.00  0.00    -0.277 A  
HETATM    9  O   UNL     1     -10.151  17.304  67.711  1.00  0.00    -0.286 OA 
HETATM   10  C   UNL     1      -8.765  19.611  67.128  1.00  0.00    -0.367 A  
HETATM   11  C   UNL     1      -6.329  17.577  69.142  1.00  0.00    -0.235 C  
HETATM   12  C   UNL     1      -8.094  20.829  67.018  1.00  0.00    -0.209 A  
HETATM   13  O   UNL     1      -5.190  17.701  69.585  1.00  0.00    -0.170 OA 
HETATM   14  C   UNL     1      -6.872  21.007  67.663  1.00  0.00    -0.370 A  
ENDROOT
BRANCH   4  15
HETATM   15  C   UNL     1      -9.387  15.046  69.130  1.00  0.00    -0.189 C  
HETATM   16  C   UNL     1     -11.605  14.424  67.822  1.00  0.00    -0.384 C  
HETATM   17  C   UNL     1     -10.076  14.303  67.949  1.00  0.00    -0.233 C  
HETATM   18  C   UNL     1     -11.776  15.607  69.964  1.00  0.00    -0.369 C  
HETATM   19  C   UNL     1     -10.323  15.350  70.323  1.00  0.00    -0.205 C  
HETATM   20  C   UNL     1     -12.368  14.443  69.159  1.00  0.00    -0.156 C  
BRANCH  20  21
HETATM   21  C   UNL     1     -12.427  13.137  69.958  1.00  0.00    -0.143 A  
HETATM   22  C   UNL     1     -12.560  10.671  71.330  1.00  0.00    -0.421 A  
HETATM   23  C   UNL     1     -11.944  11.947  69.378  1.00  0.00    -0.350 A  
HETATM   24  C   UNL     1     -12.015  10.724  70.054  1.00  0.00    -0.427 A  
HETATM   25  C   UNL     1     -13.021  11.833  71.937  1.00  0.00    -0.435 A  
HETATM   26 CL   UNL     1     -12.652   9.172  72.169  1.00  0.00    -0.451 Cl 
HETATM   27  C   UNL     1     -12.937  13.056  71.263  1.00  0.00    -0.330 A  
ENDBRANCH  20  21
ENDBRANCH   4  15
TORSDOF 2
ENDMDL
MODEL       31
REMARK 921   NORMALIZED FREE ENERGY PREDICTED BY IDOCK:   -6.12 KCAL/MOL
REMARK 922        TOTAL FREE ENERGY PREDICTED BY IDOCK:   -7.71 KCAL/MOL
REMARK 923 INTER-LIGAND FREE ENERGY PREDICTED BY IDOCK:   -7.04 KCAL/MOL
REMARK 924 INTRA-LIGAND FREE ENERGY PREDICTED BY IDOCK:   -0.67 KCAL/MOL
REMARK 927      BINDING AFFINITY PREDICTED BY RF-SCORE:    0.00 PKD
ROOT
HETATM    1  O   UNL     1      -9.503  12.099  64.711  1.00  0.00    -0.449 OA 
HETATM    2  C   UNL     1      -9.286  10.946  65.443  1.00  0.00    -0.208 C  
HETATM    3  H   UNL     1      -9.323  12.176  63.781  1.00  0.00     0.000 HD 
HETATM    4  C   UNL     1      -9.541  10.838  66.763  1.00  0.00    -0.201 C  
HETATM    5  C   UNL     1      -9.163   9.550  67.461  1.00  0.00    -0.126 C  
HETATM    6  C   UNL     1      -8.459   8.528  65.322  1.00  0.00    -0.192 A  
HETATM    7  C   UNL     1      -8.035   7.409  64.588  1.00  0.00    -0.127 A  
HETATM    8  C   UNL     1      -8.557   8.450  66.699  1.00  0.00    -0.127 A  
HETATM    9  O   UNL     1      -9.374   9.382  68.660  1.00  0.00    -0.140 OA 
HETATM   10  C   UNL     1      -8.144   7.287  67.365  1.00  0.00    -0.113 A  
HETATM   11  C   UNL     1      -8.777   9.789  64.634  1.00  0.00    -0.194 C  
HETATM   12  C   UNL     1      -7.696   6.182  66.639  1.00  0.00    -0.103 A  
HETATM   13  O   UNL     1      -8.613   9.869  63.419  1.00  0.00    -0.169 OA 
HETATM   14  C   UNL     1      -7.667   6.234  65.248  1.00  0.00    -0.096 A  
ENDROOT
BRANCH   4  15
HETATM   15  C   UNL     1     -10.299  11.812  67.692  1.00  0.00    -0.219 C  
HETATM   16  C   UNL     1     -12.102  13.654  67.084  1.00  0.00    -0.404 C  
HETATM   17  C   UNL     1     -11.781  12.183  67.402  1.00  0.00    -0.374 C  
HETATM   18  C   UNL     1      -9.810  14.356  67.600  1.00  0.00    -0.224 C  
HETATM   19  C   UNL     1      -9.427  12.999  68.165  1.00  0.00    -0.218 C  
HETATM   20  C   UNL     1     -11.282  14.684  67.880  1.00  0.00    -0.318 C  
BRANCH  20  21
HETATM   21  C   UNL     1     -11.585  14.825  69.375  1.00  0.00    -0.342 A  
HETATM   22  C   UNL     1     -12.250  15.038  72.113  1.00  0.00    -0.368 A  
HETATM   23  C   UNL     1     -12.328  13.823  70.030  1.00  0.00    -0.364 A  
HETATM   24  C   UNL     1     -12.664  13.930  71.385  1.00  0.00    -0.445 A  
HETATM   25  C   UNL     1     -11.495  16.030  71.500  1.00  0.00    -0.459 A  
HETATM   26 CL   UNL     1     -12.658  15.178  73.779  1.00  0.00    -0.689 Cl 
HETATM   27  C   UNL     1     -11.151  15.913  70.149  1.00  0.00    -0.369 A  
ENDBRANCH  20  21
ENDBRANCH   4  15
TORSDOF 2
ENDMDL
MODEL       32
REMARK 921   NORMALIZED FREE ENERGY PREDICTED BY IDOCK:   -6.06 KCAL/MOL
REMARK 922        TOTAL FREE ENERGY PREDICTED BY IDOCK:   -7.64 KCAL/MOL
REMARK 923 INTER-LIGAND FREE ENERGY PREDICTED BY IDOCK:   -7.34 KCAL/MOL
REMARK 924 INTRA-LIGAND FREE ENERGY PREDICTED BY IDOCK:   -0.31 KCAL/MOL
REMARK 927      BINDING AFFINITY PREDICTED BY RF-SCORE:    0.00 PKD
ROOT
HETATM    1  O   UNL     1     -12.995  12.371  64.515  1.00  0.00    -0.770 OA 
HETATM    2  C   UNL     1     -12.080  13.129  65.224  1.00  0.00    -0.429 C  
HETATM    3  H   UNL     1     -13.572  12.726  63.849  1.00  0.00     0.000 HD 
HETATM    4  C   UNL     1     -11.262  12.625  66.170  1.00  0.00    -0.350 C  
HETATM    5  C   UNL     1     -10.381  13.585  66.940  1.00  0.00    -0.265 C  
HETATM    6  C   UNL     1     -11.139  15.486  65.551  1.00  0.00    -0.265 A  
HETATM    7  C   UNL     1     -11.033  16.831  65.165  1.00  0.00    -0.109 A  
HETATM    8  C   UNL     1     -10.414  15.021  66.633  1.00  0.00    -0.284 A  
HETATM    9  O   UNL     1      -9.607  13.192  67.808  1.00  0.00    -0.195 OA 
HETATM   10  C   UNL     1      -9.648  15.914  67.398  1.00  0.00    -0.221 A  
HETATM   11  C   UNL     1     -12.037  14.575  64.824  1.00  0.00    -0.445 C  
HETATM   12  C   UNL     1      -9.562  17.258  67.032  1.00  0.00    -0.262 A  
HETATM   13  O   UNL     1     -12.733  15.017  63.913  1.00  0.00    -0.775 OA 
HETATM   14  C   UNL     1     -10.234  17.711  65.899  1.00  0.00    -0.240 A  
ENDROOT
BRANCH   4  15
HETATM   15  C   UNL     1     -10.979  11.149  66.527  1.00  0.00    -0.270 C  
HETATM   16  C   UNL     1     -10.127  10.107  68.809  1.00  0.00    -0.198 C  
HETATM   17  C   UNL     1     -11.301  10.609  67.951  1.00  0.00    -0.342 C  
HETATM   18  C   UNL     1      -8.550  10.346  66.946  1.00  0.00    -0.127 C  
HETATM   19  C   UNL     1      -9.649  10.626  65.935  1.00  0.00    -0.253 C  
HETATM   20  C   UNL     1      -9.023   9.369  68.030  1.00  0.00    -0.128 C  
BRANCH  20  21
HETATM   21  C   UNL     1      -9.356   7.981  67.475  1.00  0.00    -0.171 A  
HETATM   22  C   UNL     1      -9.898   5.442  66.359  1.00  0.00    -0.176 A  
HETATM   23  C   UNL     1      -8.352   7.233  66.828  1.00  0.00    -0.119 A  
HETATM   24  C   UNL     1      -8.620   5.979  66.269  1.00  0.00    -0.137 A  
HETATM   25  C   UNL     1     -10.903   6.145  67.013  1.00  0.00    -0.435 A  
HETATM   26 CL   UNL     1     -10.238   3.900  65.675  1.00  0.00    -0.062 Cl 
HETATM   27  C   UNL     1     -10.627   7.394  67.581  1.00  0.00    -0.309 A  
ENDBRANCH  20  21
ENDBRANCH   4  15
TORSDOF 2
ENDMDL
MODEL       33
REMARK 921   NORMALIZED FREE ENERGY PREDICTED BY IDOCK:   -6.05 KCAL/MOL
REMARK 922        TOTAL FREE ENERGY PREDICTED BY IDOCK:   -7.64 KCAL/MOL
REMARK 923 INTER-LIGAND FREE ENERGY PREDICTED BY IDOCK:   -6.72 KCAL/MOL
REMARK 924 INTRA-LIGAND FREE ENERGY PREDICTED BY IDOCK:   -0.91 KCAL/MOL
REMARK 927      BINDING AFFINITY PREDICTED BY RF-SCORE:    0.00 PKD
ROOT
HETATM    1  O   UNL     1     -10.237  12.008  67.447  1.00  0.00    -0.199 OA 
HETATM    2  C   UNL     1     -10.937  12.095  68.638  1.00  0.00    -0.245 C  
HETATM    3  H   UNL     1     -10.126  12.735  66.846  1.00  0.00     0.000 HD 
HETATM    4  C   UNL     1     -11.094  11.063  69.491  1.00  0.00    -0.322 C  
HETATM    5  C   UNL     1     -11.968  11.268  70.709  1.00  0.00    -0.279 C  
HETATM    6  C   UNL     1     -12.288  13.656  70.149  1.00  0.00    -0.372 A  
HETATM    7  C   UNL     1     -12.764  14.933  70.485  1.00  0.00    -0.399 A  
HETATM    8  C   UNL     1     -12.599  12.572  70.950  1.00  0.00    -0.331 A  
HETATM    9  O   UNL     1     -12.148  10.373  71.531  1.00  0.00    -0.353 OA 
HETATM   10  C   UNL     1     -13.465  12.736  72.042  1.00  0.00    -0.540 A  
HETATM   11  C   UNL     1     -11.480  13.462  68.935  1.00  0.00    -0.304 C  
HETATM   12  C   UNL     1     -13.961  14.001  72.363  1.00  0.00    -0.622 A  
HETATM   13  O   UNL     1     -11.274  14.417  68.190  1.00  0.00    -0.260 OA 
HETATM   14  C   UNL     1     -13.588  15.104  71.600  1.00  0.00    -0.560 A  
ENDROOT
BRANCH   4  15
HETATM   15  C   UNL     1     -10.401   9.682  69.489  1.00  0.00    -0.235 C  
HETATM   16  C   UNL     1      -7.966   9.026  68.681  1.00  0.00    -0.102 C  
HETATM   17  C   UNL     1      -8.880   9.565  69.795  1.00  0.00    -0.211 C  
HETATM   18  C   UNL     1      -9.883   8.481  67.251  1.00  0.00    -0.259 C  
HETATM   19  C   UNL     1     -10.894   8.758  68.350  1.00  0.00    -0.019 C  
HETATM   20  C   UNL     1      -8.580   7.906  67.823  1.00  0.00    -0.128 C  
BRANCH  20  21
HETATM   21  C   UNL     1      -8.773   6.536  68.480  1.00  0.00    -0.122 A  
HETATM   22  C   UNL     1      -9.240   4.006  69.649  1.00  0.00    -0.147 A  
HETATM   23  C   UNL     1      -9.535   5.551  67.820  1.00  0.00    -0.125 A  
HETATM   24  C   UNL     1      -9.772   4.300  68.400  1.00  0.00    -0.165 A  
HETATM   25  C   UNL     1      -8.464   4.948  70.313  1.00  0.00    -0.099 A  
HETATM   26 CL   UNL     1      -9.527   2.471  70.371  1.00  0.00    -0.203 Cl 
HETATM   27  C   UNL     1      -8.219   6.194  69.724  1.00  0.00    -0.123 A  
ENDBRANCH  20  21
ENDBRANCH   4  15
TORSDOF 2
ENDMDL
MODEL       34
REMARK 921   NORMALIZED FREE ENERGY PREDICTED BY IDOCK:   -6.01 KCAL/MOL
REMARK 922        TOTAL FREE ENERGY PREDICTED BY IDOCK:   -7.59 KCAL/MOL
REMARK 923 INTER-LIGAND FREE ENERGY PREDICTED BY IDOCK:   -7.72 KCAL/MOL
REMARK 924 INTRA-LIGAND FREE ENERGY PREDICTED BY IDOCK:    0.12 KCAL/MOL
REMARK 927      BINDING AFFINITY PREDICTED BY RF-SCORE:    0.00 PKD
ROOT
HETATM    1  O   UNL     1     -12.056  12.579  70.823  1.00  0.00    -0.465 OA 
HETATM    2  C   UNL     1     -11.593  11.691  69.868  1.00  0.00    -0.288 C  
HETATM    3  H   UNL     1     -12.290  12.326  71.709  1.00  0.00     0.000 HD 
HETATM    4  C   UNL     1     -11.263  12.050  68.610  1.00  0.00    -0.309 C  
HETATM    5  C   UNL     1     -10.866  10.961  67.637  1.00  0.00    -0.266 C  
HETATM    6  C   UNL     1     -11.009   9.243  69.410  1.00  0.00    -0.138 A  
HETATM    7  C   UNL     1     -10.803   7.926  69.850  1.00  0.00    -0.221 A  
HETATM    8  C   UNL     1     -10.825   9.560  68.077  1.00  0.00    -0.225 A  
HETATM    9  O   UNL     1     -10.546  11.218  66.479  1.00  0.00    -0.247 OA 
HETATM   10  C   UNL     1     -10.525   8.549  67.152  1.00  0.00    -0.370 A  
HETATM   11  C   UNL     1     -11.442  10.281  70.359  1.00  0.00    -0.335 C  
HETATM   12  C   UNL     1     -10.347   7.233  67.582  1.00  0.00    -0.290 A  
HETATM   13  O   UNL     1     -11.676   9.972  71.524  1.00  0.00    -0.365 OA 
HETATM   14  C   UNL     1     -10.460   6.926  68.936  1.00  0.00    -0.225 A  
ENDROOT
BRANCH   4  15
HETATM   15  C   UNL     1     -11.101  13.464  68.010  1.00  0.00    -0.281 C  
HETATM   16  C   UNL     1     -11.175  14.233  65.477  1.00  0.00    -0.320 C  
HETATM   17  C   UNL     1     -11.937  13.891  66.769  1.00  0.00    -0.472 C  
HETATM   18  C   UNL     1      -9.005  14.060  66.607  1.00  0.00    -0.177 C  
HETATM   19  C   UNL     1      -9.633  13.949  67.986  1.00  0.00    -0.219 C  
HETATM   20  C   UNL     1      -9.837  14.963  65.686  1.00  0.00    -0.372 C  
BRANCH  20  21
HETATM   21  C   UNL     1      -9.891  16.415  66.169  1.00  0.00    -0.362 A  
HETATM   22  C   UNL     1     -10.001  19.055  67.171  1.00  0.00    -0.338 A  
HETATM   23  C   UNL     1      -9.264  16.767  67.381  1.00  0.00    -0.220 A  
HETATM   24  C   UNL     1      -9.323  18.072  67.882  1.00  0.00    -0.264 A  
HETATM   25  C   UNL     1     -10.607  18.743  65.961  1.00  0.00    -0.442 A  
HETATM   26 CL   UNL     1     -10.079  20.662  67.779  1.00  0.00    -0.395 Cl 
HETATM   27  C   UNL     1     -10.536  17.440  65.457  1.00  0.00    -0.112 A  
ENDBRANCH  20  21
ENDBRANCH   4  15
TORSDOF 2
ENDMDL
MODEL       35
REMARK 921   NORMALIZED FREE ENERGY PREDICTED BY IDOCK:   -5.96 KCAL/MOL
REMARK 922        TOTAL FREE ENERGY PREDICTED BY IDOCK:   -7.53 KCAL/MOL
REMARK 923 INTER-LIGAND FREE ENERGY PREDICTED BY IDOCK:   -6.65 KCAL/MOL
REMARK 924 INTRA-LIGAND FREE ENERGY PREDICTED BY IDOCK:   -0.88 KCAL/MOL
REMARK 927      BINDING AFFINITY PREDICTED BY RF-SCORE:    0.00 PKD
ROOT
HETATM    1  O   UNL     1     -11.709  12.471  70.090  1.00  0.00    -0.494 OA 
HETATM    2  C   UNL     1     -11.042  11.818  69.069  1.00  0.00    -0.246 C  
HETATM    3  H   UNL     1     -12.203  12.025  70.768  1.00  0.00     0.000 HD 
HETATM    4  C   UNL     1     -10.341  12.451  68.106  1.00  0.00    -0.231 C  
HETATM    5  C   UNL     1      -9.745  11.621  66.991  1.00  0.00    -0.186 C  
HETATM    6  C   UNL     1     -10.497   9.526  68.070  1.00  0.00    -0.279 A  
HETATM    7  C   UNL     1     -10.506   8.124  68.134  1.00  0.00    -0.225 A  
HETATM    8  C   UNL     1      -9.916  10.162  66.988  1.00  0.00    -0.249 A  
HETATM    9  O   UNL     1      -9.089  12.133  66.088  1.00  0.00    -0.193 OA 
HETATM   10  C   UNL     1      -9.422   9.405  65.915  1.00  0.00    -0.315 A  
HETATM   11  C   UNL     1     -11.124  10.321  69.138  1.00  0.00    -0.235 C  
HETATM   12  C   UNL     1      -9.454   8.011  65.964  1.00  0.00    -0.123 A  
HETATM   13  O   UNL     1     -11.703   9.745  70.056  1.00  0.00    -0.189 OA 
HETATM   14  C   UNL     1      -9.972   7.370  67.087  1.00  0.00    -0.281 A  
ENDROOT
BRANCH   4  15
HETATM   15  C   UNL     1      -9.930  13.938  68.019  1.00  0.00    -0.241 C  
HETATM   16  C   UNL     1      -9.800  15.760  69.937  1.00  0.00    -0.151 C  
HETATM   17  C   UNL     1      -9.131  14.602  69.177  1.00  0.00    -0.030 C  
HETATM   18  C   UNL     1     -11.691  15.807  68.375  1.00  0.00    -0.279 C  
HETATM   19  C   UNL     1     -11.031  14.837  67.409  1.00  0.00    -0.313 C  
HETATM   20  C   UNL     1     -10.652  16.700  69.066  1.00  0.00    -0.340 C  
BRANCH  20  21
HETATM   21  C   UNL     1      -9.915  17.620  68.088  1.00  0.00    -0.330 A  
HETATM   22  C   UNL     1      -8.484  19.351  66.373  1.00  0.00    -0.346 A  
HETATM   23  C   UNL     1      -8.519  17.774  68.198  1.00  0.00    -0.262 A  
HETATM   24  C   UNL     1      -7.809  18.635  67.354  1.00  0.00    -0.242 A  
HETATM   25  C   UNL     1      -9.857  19.201  66.224  1.00  0.00    -0.437 A  
HETATM   26 CL   UNL     1      -7.620  20.412  65.330  1.00  0.00    -0.054 Cl 
HETATM   27  C   UNL     1     -10.561  18.330  67.062  1.00  0.00    -0.375 A  
ENDBRANCH  20  21
ENDBRANCH   4  15
TORSDOF 2
ENDMDL
MODEL       36
REMARK 921   NORMALIZED FREE ENERGY PREDICTED BY IDOCK:   -5.94 KCAL/MOL
REMARK 922        TOTAL FREE ENERGY PREDICTED BY IDOCK:   -7.51 KCAL/MOL
REMARK 923 INTER-LIGAND FREE ENERGY PREDICTED BY IDOCK:   -7.33 KCAL/MOL
REMARK 924 INTRA-LIGAND FREE ENERGY PREDICTED BY IDOCK:   -0.18 KCAL/MOL
REMARK 927      BINDING AFFINITY PREDICTED BY RF-SCORE:    0.00 PKD
ROOT
HETATM    1  O   UNL     1     -10.933   9.048  68.358  1.00  0.00    -0.451 OA 
HETATM    2  C   UNL     1     -10.458   9.597  67.181  1.00  0.00    -0.249 C  
HETATM    3  H   UNL     1     -10.800   8.141  68.609  1.00  0.00     0.000 HD 
HETATM    4  C   UNL     1     -10.647  10.884  66.824  1.00  0.00    -0.313 C  
HETATM    5  C   UNL     1     -10.161  11.328  65.462  1.00  0.00    -0.260 C  
HETATM    6  C   UNL     1      -9.157   9.109  65.032  1.00  0.00    -0.215 A  
HETATM    7  C   UNL     1      -8.364   8.263  64.241  1.00  0.00    -0.068 A  
HETATM    8  C   UNL     1      -9.482  10.373  64.576  1.00  0.00    -0.342 A  
HETATM    9  O   UNL     1     -10.294  12.487  65.078  1.00  0.00    -0.288 OA 
HETATM   10  C   UNL     1      -9.098  10.772  63.287  1.00  0.00    -0.260 A  
HETATM   11  C   UNL     1      -9.664   8.646  66.334  1.00  0.00    -0.263 C  
HETATM   12  C   UNL     1      -8.331   9.923  62.487  1.00  0.00    -0.155 A  
HETATM   13  O   UNL     1      -9.433   7.495  66.694  1.00  0.00    -0.174 OA 
HETATM   14  C   UNL     1      -7.941   8.678  62.976  1.00  0.00    -0.161 A  
ENDROOT
BRANCH   4  15
HETATM   15  C   UNL     1     -11.197  12.057  67.666  1.00  0.00    -0.343 C  
HETATM   16  C   UNL     1     -11.845  14.510  66.905  1.00  0.00    -0.399 C  
HETATM   17  C   UNL     1     -12.247  13.033  67.062  1.00  0.00    -0.217 C  
HETATM   18  C   UNL     1      -9.734  14.153  68.102  1.00  0.00    -0.225 C  
HETATM   19  C   UNL     1     -10.112  12.745  68.528  1.00  0.00    -0.189 C  
HETATM   20  C   UNL     1     -10.965  15.067  68.039  1.00  0.00    -0.285 C  
BRANCH  20  21
HETATM   21  C   UNL     1     -11.622  15.275  69.407  1.00  0.00    -0.347 A  
HETATM   22  C   UNL     1     -12.726  15.647  71.981  1.00  0.00    -0.433 A  
HETATM   23  C   UNL     1     -10.930  15.988  70.406  1.00  0.00    -0.347 A  
HETATM   24  C   UNL     1     -11.472  16.168  71.684  1.00  0.00    -0.396 A  
HETATM   25  C   UNL     1     -13.442  14.962  71.008  1.00  0.00    -0.428 A  
HETATM   26 CL   UNL     1     -13.401  15.863  73.549  1.00  0.00    -0.599 Cl 
HETATM   27  C   UNL     1     -12.901  14.794  69.728  1.00  0.00     0.077 A  
ENDBRANCH  20  21
ENDBRANCH   4  15
TORSDOF 2
ENDMDL
MODEL       37
REMARK 921   NORMALIZED FREE ENERGY PREDICTED BY IDOCK:   -5.87 KCAL/MOL
REMARK 922        TOTAL FREE ENERGY PREDICTED BY IDOCK:   -7.44 KCAL/MOL
REMARK 923 INTER-LIGAND FREE ENERGY PREDICTED BY IDOCK:   -7.48 KCAL/MOL
REMARK 924 INTRA-LIGAND FREE ENERGY PREDICTED BY IDOCK:    0.04 KCAL/MOL
REMARK 927      BINDING AFFINITY PREDICTED BY RF-SCORE:    0.00 PKD
ROOT
HETATM    1  O   UNL     1      -7.020  19.372  69.970  1.00  0.00    -0.085 OA 
HETATM    2  C   UNL     1      -6.939  19.238  68.595  1.00  0.00    -0.308 C  
HETATM    3  H   UNL     1      -6.636  20.095  70.453  1.00  0.00     0.000 HD 
HETATM    4  C   UNL     1      -7.483  18.212  67.909  1.00  0.00    -0.228 C  
HETATM    5  C   UNL     1      -7.233  18.135  66.419  1.00  0.00    -0.247 C  
HETATM    6  C   UNL     1      -6.029  20.296  66.450  1.00  0.00    -0.201 A  
HETATM    7  C   UNL     1      -5.415  21.358  65.769  1.00  0.00    -0.191 A  
HETATM    8  C   UNL     1      -6.435  19.173  65.753  1.00  0.00    -0.271 A  
HETATM    9  O   UNL     1      -7.705  17.232  65.733  1.00  0.00    -0.470 OA 
HETATM   10  C   UNL     1      -6.147  19.058  64.384  1.00  0.00    -0.115 A  
HETATM   11  C   UNL     1      -6.223  20.364  67.908  1.00  0.00    -0.257 C  
HETATM   12  C   UNL     1      -5.511  20.101  63.709  1.00  0.00    -0.266 A  
HETATM   13  O   UNL     1      -5.790  21.332  68.528  1.00  0.00    -0.314 OA 
HETATM   14  C   UNL     1      -5.169  21.263  64.397  1.00  0.00    -0.196 A  
ENDROOT
BRANCH   4  15
HETATM   15  C   UNL     1      -8.462  17.122  68.400  1.00  0.00    -0.241 C  
HETATM   16  C   UNL     1      -9.067  14.790  67.300  1.00  0.00    -0.214 C  
HETATM   17  C   UNL     1      -8.128  15.617  68.196  1.00  0.00    -0.136 C  
HETATM   18  C   UNL     1     -10.654  16.649  67.099  1.00  0.00    -0.264 C  
HETATM   19  C   UNL     1      -9.946  17.484  68.152  1.00  0.00    -0.321 C  
HETATM   20  C   UNL     1     -10.558  15.151  67.416  1.00  0.00    -0.271 C  
BRANCH  20  21
HETATM   21  C   UNL     1     -11.280  14.771  68.713  1.00  0.00    -0.286 A  
HETATM   22  C   UNL     1     -12.650  13.971  71.051  1.00  0.00    -0.366 A  
HETATM   23  C   UNL     1     -11.341  13.418  69.101  1.00  0.00    -0.333 A  
HETATM   24  C   UNL     1     -12.024  13.019  70.255  1.00  0.00    -0.360 A  
HETATM   25  C   UNL     1     -12.585  15.315  70.706  1.00  0.00    -0.474 A  
HETATM   26 CL   UNL     1     -13.492  13.490  72.472  1.00  0.00    -0.671 Cl 
HETATM   27  C   UNL     1     -11.891  15.711  69.558  1.00  0.00    -0.387 A  
ENDBRANCH  20  21
ENDBRANCH   4  15
TORSDOF 2
ENDMDL
MODEL       38
REMARK 921   NORMALIZED FREE ENERGY PREDICTED BY IDOCK:   -5.78 KCAL/MOL
REMARK 922        TOTAL FREE ENERGY PREDICTED BY IDOCK:   -7.34 KCAL/MOL
REMARK 923 INTER-LIGAND FREE ENERGY PREDICTED BY IDOCK:   -7.04 KCAL/MOL
REMARK 924 INTRA-LIGAND FREE ENERGY PREDICTED BY IDOCK:   -0.30 KCAL/MOL
REMARK 927      BINDING AFFINITY PREDICTED BY RF-SCORE:    0.00 PKD
ROOT
HETATM    1  O   UNL     1     -12.435  11.616  71.164  1.00  0.00    -0.364 OA 
HETATM    2  C   UNL     1     -11.890  10.533  70.496  1.00  0.00    -0.347 C  
HETATM    3  H   UNL     1     -12.800  11.566  72.040  1.00  0.00     0.000 HD 
HETATM    4  C   UNL     1     -11.372  10.604  69.253  1.00  0.00    -0.346 C  
HETATM    5  C   UNL     1     -10.901   9.323  68.601  1.00  0.00    -0.078 C  
HETATM    6  C   UNL     1     -11.374   8.033  70.657  1.00  0.00    -0.256 A  
HETATM    7  C   UNL     1     -11.297   6.838  71.391  1.00  0.00    -0.322 A  
HETATM    8  C   UNL     1     -10.992   8.050  69.328  1.00  0.00     0.023 A  
HETATM    9  O   UNL     1     -10.413   9.317  67.474  1.00  0.00    -0.245 OA 
HETATM   10  C   UNL     1     -10.620   6.856  68.692  1.00  0.00    -0.254 A  
HETATM   11  C   UNL     1     -11.880   9.260  71.291  1.00  0.00    -0.343 C  
HETATM   12  C   UNL     1     -10.569   5.662  69.412  1.00  0.00    -0.374 A  
HETATM   13  O   UNL     1     -12.287   9.216  72.449  1.00  0.00    -0.329 OA 
HETATM   14  C   UNL     1     -10.882   5.658  70.769  1.00  0.00    -0.294 A  
ENDROOT
BRANCH   4  15
HETATM   15  C   UNL     1     -11.059  11.852  68.397  1.00  0.00    -0.292 C  
HETATM   16  C   UNL     1     -10.854  12.075  65.766  1.00  0.00    -0.329 C  
HETATM   17  C   UNL     1     -11.749  12.052  67.017  1.00  0.00    -0.341 C  
HETATM   18  C   UNL     1      -8.810  12.032  67.121  1.00  0.00    -0.188 C  
HETATM   19  C   UNL     1      -9.563  12.244  68.423  1.00  0.00    -0.183 C  
HETATM   20  C   UNL     1      -9.491  12.763  65.956  1.00  0.00    -0.127 C  
BRANCH  20  21
HETATM   21  C   UNL     1      -9.484  14.286  66.125  1.00  0.00    -0.250 A  
HETATM   22  C   UNL     1      -9.525  17.103  66.331  1.00  0.00    -0.269 A  
HETATM   23  C   UNL     1     -10.574  15.041  65.648  1.00  0.00    -0.360 A  
HETATM   24  C   UNL     1     -10.593  16.437  65.743  1.00  0.00    -0.327 A  
HETATM   25  C   UNL     1      -8.448  16.383  66.833  1.00  0.00    -0.254 A  
HETATM   26 CL   UNL     1      -9.539  18.819  66.452  1.00  0.00    -0.348 Cl 
HETATM   27  C   UNL     1      -8.439  14.987  66.746  1.00  0.00    -0.239 A  
ENDBRANCH  20  21
ENDBRANCH   4  15
TORSDOF 2
ENDMDL
MODEL       39
REMARK 921   NORMALIZED FREE ENERGY PREDICTED BY IDOCK:   -5.76 KCAL/MOL
REMARK 922        TOTAL FREE ENERGY PREDICTED BY IDOCK:   -7.31 KCAL/MOL
REMARK 923 INTER-LIGAND FREE ENERGY PREDICTED BY IDOCK:   -7.16 KCAL/MOL
REMARK 924 INTRA-LIGAND FREE ENERGY PREDICTED BY IDOCK:   -0.15 KCAL/MOL
REMARK 927      BINDING AFFINITY PREDICTED BY RF-SCORE:    0.00 PKD
ROOT
HETATM    1  O   UNL     1     -11.346  10.553  71.124  1.00  0.00    -0.270 OA 
HETATM    2  C   UNL     1     -11.031   9.822  69.993  1.00  0.00    -0.277 C  
HETATM    3  H   UNL     1     -11.459  10.170  71.986  1.00  0.00     0.000 HD 
HETATM    4  C   UNL     1     -10.871  10.366  68.769  1.00  0.00    -0.269 C  
HETATM    5  C   UNL     1     -10.627   9.439  67.600  1.00  0.00    -0.271 C  
HETATM    6  C   UNL     1     -10.551   7.473  69.099  1.00  0.00    -0.204 A  
HETATM    7  C   UNL     1     -10.306   6.106  69.305  1.00  0.00    -0.276 A  
HETATM    8  C   UNL     1     -10.547   7.988  67.816  1.00  0.00    -0.239 A  
HETATM    9  O   UNL     1     -10.465   9.868  66.460  1.00  0.00    -0.209 OA 
HETATM   10  C   UNL     1     -10.391   7.128  66.718  1.00  0.00    -0.297 A  
HETATM   11  C   UNL     1     -10.835   8.355  70.242  1.00  0.00    -0.239 C  
HETATM   12  C   UNL     1     -10.175   5.764  66.918  1.00  0.00    -0.265 A  
HETATM   13  O   UNL     1     -10.911   7.873  71.370  1.00  0.00    -0.228 OA 
HETATM   14  C   UNL     1     -10.105   5.257  68.214  1.00  0.00    -0.219 A  
ENDROOT
BRANCH   4  15
HETATM   15  C   UNL     1     -10.773  11.856  68.371  1.00  0.00    -0.248 C  
HETATM   16  C   UNL     1     -11.454  13.035  66.099  1.00  0.00    -0.381 C  
HETATM   17  C   UNL     1     -11.872  12.505  67.482  1.00  0.00    -0.389 C  
HETATM   18  C   UNL     1      -9.081  12.619  66.561  1.00  0.00    -0.163 C  
HETATM   19  C   UNL     1      -9.331  12.297  68.024  1.00  0.00    -0.195 C  
HETATM   20  C   UNL     1     -10.059  13.684  66.047  1.00  0.00    -0.320 C  
BRANCH  20  21
HETATM   21  C   UNL     1      -9.882  15.037  66.742  1.00  0.00    -0.252 A  
HETATM   22  C   UNL     1      -9.670  17.558  68.000  1.00  0.00    -0.287 A  
HETATM   23  C   UNL     1     -10.940  15.568  67.506  1.00  0.00    -0.316 A  
HETATM   24  C   UNL     1     -10.839  16.819  68.124  1.00  0.00    -0.353 A  
HETATM   25  C   UNL     1      -8.600  17.049  67.274  1.00  0.00    -0.209 A  
HETATM   26 CL   UNL     1      -9.536  19.098  68.756  1.00  0.00    -0.457 Cl 
HETATM   27  C   UNL     1      -8.701  15.793  66.667  1.00  0.00    -0.323 A  
ENDBRANCH  20  21
ENDBRANCH   4  15
TORSDOF 2
ENDMDL
MODEL       40
REMARK 921   NORMALIZED FREE ENERGY PREDICTED BY IDOCK:   -5.65 KCAL/MOL
REMARK 922        TOTAL FREE ENERGY PREDICTED BY IDOCK:   -7.19 KCAL/MOL
REMARK 923 INTER-LIGAND FREE ENERGY PREDICTED BY IDOCK:   -6.83 KCAL/MOL
REMARK 924 INTRA-LIGAND FREE ENERGY PREDICTED BY IDOCK:   -0.36 KCAL/MOL
REMARK 927      BINDING AFFINITY PREDICTED BY RF-SCORE:    0.00 PKD
ROOT
HETATM    1  O   UNL     1     -10.729  11.818  69.787  1.00  0.00    -0.439 OA 
HETATM    2  C   UNL     1     -10.815  11.671  68.414  1.00  0.00    -0.219 C  
HETATM    3  H   UNL     1     -11.095  12.555  70.262  1.00  0.00     0.000 HD 
HETATM    4  C   UNL     1     -10.294  10.625  67.739  1.00  0.00    -0.239 C  
HETATM    5  C   UNL     1     -10.372  10.639  66.228  1.00  0.00    -0.234 C  
HETATM    6  C   UNL     1     -11.689  12.732  66.256  1.00  0.00    -0.460 A  
HETATM    7  C   UNL     1     -12.447  13.704  65.584  1.00  0.00    -0.540 A  
HETATM    8  C   UNL     1     -11.022  11.759  65.535  1.00  0.00    -0.344 A  
HETATM    9  O   UNL     1      -9.925   9.716  65.552  1.00  0.00    -0.311 OA 
HETATM   10  C   UNL     1     -11.028  11.801  64.133  1.00  0.00    -0.437 A  
HETATM   11  C   UNL     1     -11.582  12.760  67.724  1.00  0.00    -0.353 C  
HETATM   12  C   UNL     1     -11.759  12.782  63.461  1.00  0.00    -0.597 A  
HETATM   13  O   UNL     1     -12.116  13.673  68.349  1.00  0.00    -0.361 OA 
HETATM   14  C   UNL     1     -12.491  13.718  64.188  1.00  0.00    -0.293 A  
ENDROOT
BRANCH   4  15
HETATM   15  C   UNL     1      -9.713   9.303  68.287  1.00  0.00    -0.167 C  
HETATM   16  C   UNL     1      -8.104   7.559  67.110  1.00  0.00    -0.118 C  
HETATM   17  C   UNL     1      -8.269   8.863  67.911  1.00  0.00    -0.110 C  
HETATM   18  C   UNL     1     -10.489   7.029  67.315  1.00  0.00    -0.363 C  
HETATM   19  C   UNL     1     -10.745   8.150  68.307  1.00  0.00    -0.073 C  
HETATM   20  C   UNL     1      -9.085   6.436  67.489  1.00  0.00    -0.114 C  
BRANCH  20  21
HETATM   21  C   UNL     1      -8.892   5.756  68.848  1.00  0.00    -0.110 A  
HETATM   22  C   UNL     1      -8.652   4.517  71.376  1.00  0.00    -0.113 A  
HETATM   23  C   UNL     1      -9.898   4.906  69.348  1.00  0.00    -0.281 A  
HETATM   24  C   UNL     1      -9.784   4.296  70.602  1.00  0.00    -0.274 A  
HETATM   25  C   UNL     1      -7.631   5.330  70.899  1.00  0.00    -0.088 A  
HETATM   26 CL   UNL     1      -8.502   3.772  72.920  1.00  0.00    -0.093 Cl 
HETATM   27  C   UNL     1      -7.745   5.928  69.639  1.00  0.00    -0.096 A  
ENDBRANCH  20  21
ENDBRANCH   4  15
TORSDOF 2
ENDMDL
MODEL       41
REMARK 921   NORMALIZED FREE ENERGY PREDICTED BY IDOCK:   -5.64 KCAL/MOL
REMARK 922        TOTAL FREE ENERGY PREDICTED BY IDOCK:   -7.18 KCAL/MOL
REMARK 923 INTER-LIGAND FREE ENERGY PREDICTED BY IDOCK:   -6.27 KCAL/MOL
REMARK 924 INTRA-LIGAND FREE ENERGY PREDICTED BY IDOCK:   -0.91 KCAL/MOL
REMARK 927      BINDING AFFINITY PREDICTED BY RF-SCORE:    0.00 PKD
ROOT
HETATM    1  O   UNL     1     -11.272   9.463  69.443  1.00  0.00    -0.418 OA 
HETATM    2  C   UNL     1     -11.033   9.981  68.183  1.00  0.00    -0.235 C  
HETATM    3  H   UNL     1     -11.726   9.936  70.131  1.00  0.00     0.000 HD 
HETATM    4  C   UNL     1     -10.387   9.310  67.208  1.00  0.00    -0.332 C  
HETATM    5  C   UNL     1     -10.103  10.032  65.909  1.00  0.00    -0.249 C  
HETATM    6  C   UNL     1     -11.350  12.026  66.678  1.00  0.00    -0.399 A  
HETATM    7  C   UNL     1     -11.908  13.287  66.420  1.00  0.00    -0.446 A  
HETATM    8  C   UNL     1     -10.549  11.420  65.727  1.00  0.00    -0.315 A  
HETATM    9  O   UNL     1      -9.526   9.478  64.977  1.00  0.00    -0.267 OA 
HETATM   10  C   UNL     1     -10.221  12.107  64.548  1.00  0.00    -0.321 A  
HETATM   11  C   UNL     1     -11.594  11.356  67.965  1.00  0.00    -0.286 C  
HETATM   12  C   UNL     1     -10.754  13.374  64.301  1.00  0.00    -0.374 A  
HETATM   13  O   UNL     1     -12.243  11.936  68.831  1.00  0.00    -0.273 OA 
HETATM   14  C   UNL     1     -11.619  13.953  65.227  1.00  0.00    -0.332 A  
ENDROOT
BRANCH   4  15
HETATM   15  C   UNL     1      -9.978   7.821  67.155  1.00  0.00    -0.298 C  
HETATM   16  C   UNL     1     -10.857   5.786  68.605  1.00  0.00    -0.270 C  
HETATM   17  C   UNL     1     -11.038   6.706  67.385  1.00  0.00    -0.398 C  
HETATM   18  C   UNL     1      -8.663   6.755  69.119  1.00  0.00    -0.131 C  
HETATM   19  C   UNL     1      -8.609   7.544  67.822  1.00  0.00    -0.120 C  
HETATM   20  C   UNL     1      -9.397   5.421  68.931  1.00  0.00    -0.161 C  
BRANCH  20  21
HETATM   21  C   UNL     1      -8.673   4.474  67.969  1.00  0.00    -0.115 A  
HETATM   22  C   UNL     1      -7.245   2.803  66.194  1.00  0.00    -0.066 A  
HETATM   23  C   UNL     1      -7.278   4.308  68.079  1.00  0.00    -0.064 A  
HETATM   24  C   UNL     1      -6.569   3.486  67.197  1.00  0.00    -0.038 A  
HETATM   25  C   UNL     1      -8.624   2.927  66.077  1.00  0.00    -0.119 A  
HETATM   26 CL   UNL     1      -6.382   1.789  65.105  1.00  0.00    -0.022 Cl 
HETATM   27  C   UNL     1      -9.331   3.741  66.969  1.00  0.00    -0.219 A  
ENDBRANCH  20  21
ENDBRANCH   4  15
TORSDOF 2
ENDMDL
MODEL       42
REMARK 921   NORMALIZED FREE ENERGY PREDICTED BY IDOCK:   -5.58 KCAL/MOL
REMARK 922        TOTAL FREE ENERGY PREDICTED BY IDOCK:   -7.11 KCAL/MOL
REMARK 923 INTER-LIGAND FREE ENERGY PREDICTED BY IDOCK:   -7.57 KCAL/MOL
REMARK 924 INTRA-LIGAND FREE ENERGY PREDICTED BY IDOCK:    0.46 KCAL/MOL
REMARK 927      BINDING AFFINITY PREDICTED BY RF-SCORE:    0.00 PKD
ROOT
HETATM    1  O   UNL     1     -11.119   9.886  67.205  1.00  0.00    -0.289 OA 
HETATM    2  C   UNL     1     -11.395  10.768  68.235  1.00  0.00    -0.309 C  
HETATM    3  H   UNL     1     -10.939  10.157  66.312  1.00  0.00     0.000 HD 
HETATM    4  C   UNL     1     -11.650  10.383  69.502  1.00  0.00    -0.288 C  
HETATM    5  C   UNL     1     -12.036  11.445  70.508  1.00  0.00    -0.394 C  
HETATM    6  C   UNL     1     -11.678  13.237  68.841  1.00  0.00    -0.369 A  
HETATM    7  C   UNL     1     -11.587  14.600  68.519  1.00  0.00    -0.346 A  
HETATM    8  C   UNL     1     -12.103  12.855  70.101  1.00  0.00    -0.373 A  
HETATM    9  O   UNL     1     -12.274  11.165  71.680  1.00  0.00    -0.140 OA 
HETATM   10  C   UNL     1     -12.530  13.826  71.019  1.00  0.00    -0.458 A  
HETATM   11  C   UNL     1     -11.346  12.214  67.837  1.00  0.00    -0.300 C  
HETATM   12  C   UNL     1     -12.467  15.181  70.691  1.00  0.00    -0.442 A  
HETATM   13  O   UNL     1     -11.043  12.564  66.699  1.00  0.00    -0.260 OA 
HETATM   14  C   UNL     1     -11.969  15.569  69.449  1.00  0.00    -0.358 A  
ENDROOT
BRANCH   4  15
HETATM   15  C   UNL     1     -11.488   8.990  70.149  1.00  0.00    -0.078 C  
HETATM   16  C   UNL     1     -12.183   8.171  72.570  1.00  0.00    -0.335 C  
HETATM   17  C   UNL     1     -12.581   8.437  71.108  1.00  0.00    -0.156 C  
HETATM   18  C   UNL     1      -9.821   8.638  72.103  1.00  0.00    -0.387 C  
HETATM   19  C   UNL     1     -10.038   8.695  70.600  1.00  0.00    -0.237 C  
HETATM   20  C   UNL     1     -10.759   7.620  72.765  1.00  0.00    -0.401 C  
BRANCH  20  21
HETATM   21  C   UNL     1     -10.489   6.182  72.313  1.00  0.00    -0.229 A  
HETATM   22  C   UNL     1      -9.937   3.508  71.585  1.00  0.00    -0.119 A  
HETATM   23  C   UNL     1     -10.572   5.133  73.251  1.00  0.00    -0.288 A  
HETATM   24  C   UNL     1     -10.293   3.809  72.894  1.00  0.00    -0.241 A  
HETATM   25  C   UNL     1      -9.871   4.517  70.633  1.00  0.00    -0.292 A  
HETATM   26 CL   UNL     1      -9.592   1.883  71.137  1.00  0.00    -0.207 Cl 
HETATM   27  C   UNL     1     -10.162   5.838  70.992  1.00  0.00    -0.275 A  
ENDBRANCH  20  21
ENDBRANCH   4  15
TORSDOF 2
ENDMDL
MODEL       43
REMARK 921   NORMALIZED FREE ENERGY PREDICTED BY IDOCK:   -5.57 KCAL/MOL
REMARK 922        TOTAL FREE ENERGY PREDICTED BY IDOCK:   -7.10 KCAL/MOL
REMARK 923 INTER-LIGAND FREE ENERGY PREDICTED BY IDOCK:   -6.76 KCAL/MOL
REMARK 924 INTRA-LIGAND FREE ENERGY PREDICTED BY IDOCK:   -0.34 KCAL/MOL
REMARK 927      BINDING AFFINITY PREDICTED BY RF-SCORE:    0.00 PKD
ROOT
HETATM    1  O   UNL     1     -10.371  14.894  67.159  1.00  0.00    -0.255 OA 
HETATM    2  C   UNL     1     -10.926  14.253  68.253  1.00  0.00    -0.247 C  
HETATM    3  H   UNL     1     -10.350  15.838  67.056  1.00  0.00     0.000 HD 
HETATM    4  C   UNL     1     -10.956  12.912  68.399  1.00  0.00    -0.285 C  
HETATM    5  C   UNL     1     -11.683  12.339  69.596  1.00  0.00    -0.316 C  
HETATM    6  C   UNL     1     -12.126  14.604  70.484  1.00  0.00    -0.388 A  
HETATM    7  C   UNL     1     -12.590  15.441  71.512  1.00  0.00    -0.462 A  
HETATM    8  C   UNL     1     -12.313  13.237  70.572  1.00  0.00    -0.389 A  
HETATM    9  O   UNL     1     -11.742  11.129  69.794  1.00  0.00    -0.281 OA 
HETATM   10  C   UNL     1     -13.047  12.699  71.641  1.00  0.00    -0.421 A  
HETATM   11  C   UNL     1     -11.464  15.180  69.303  1.00  0.00    -0.311 C  
HETATM   12  C   UNL     1     -13.532  13.531  72.651  1.00  0.00    -0.572 A  
HETATM   13  O   UNL     1     -11.371  16.400  69.200  1.00  0.00    -0.308 OA 
HETATM   14  C   UNL     1     -13.280  14.900  72.600  1.00  0.00    -0.535 A  
ENDROOT
BRANCH   4  15
HETATM   15  C   UNL     1     -10.234  11.825  67.572  1.00  0.00    -0.214 C  
HETATM   16  C   UNL     1     -10.654   9.211  67.504  1.00  0.00    -0.317 C  
HETATM   17  C   UNL     1     -11.028  10.616  67.000  1.00  0.00    -0.274 C  
HETATM   18  C   UNL     1      -8.723  10.075  68.744  1.00  0.00    -0.136 C  
HETATM   19  C   UNL     1      -8.839  11.462  68.134  1.00  0.00    -0.162 C  
HETATM   20  C   UNL     1      -9.151   8.989  67.749  1.00  0.00    -0.143 C  
BRANCH  20  21
HETATM   21  C   UNL     1      -8.238   8.913  66.522  1.00  0.00    -0.114 A  
HETATM   22  C   UNL     1      -6.482   8.857  64.308  1.00  0.00    -0.071 A  
HETATM   23  C   UNL     1      -6.843   9.029  66.687  1.00  0.00    -0.080 A  
HETATM   24  C   UNL     1      -5.973   9.008  65.592  1.00  0.00    -0.051 A  
HETATM   25  C   UNL     1      -7.851   8.715  64.116  1.00  0.00    -0.141 A  
HETATM   26 CL   UNL     1      -5.420   8.829  62.955  1.00  0.00    -0.069 Cl 
HETATM   27  C   UNL     1      -8.716   8.725  65.216  1.00  0.00    -0.216 A  
ENDBRANCH  20  21
ENDBRANCH   4  15
TORSDOF 2
ENDMDL
MODEL       44
REMARK 921   NORMALIZED FREE ENERGY PREDICTED BY IDOCK:   -5.54 KCAL/MOL
REMARK 922        TOTAL FREE ENERGY PREDICTED BY IDOCK:   -7.07 KCAL/MOL
REMARK 923 INTER-LIGAND FREE ENERGY PREDICTED BY IDOCK:   -6.64 KCAL/MOL
REMARK 924 INTRA-LIGAND FREE ENERGY PREDICTED BY IDOCK:   -0.42 KCAL/MOL
REMARK 927      BINDING AFFINITY PREDICTED BY RF-SCORE:    0.00 PKD
ROOT
HETATM    1  O   UNL     1     -11.761   9.841  71.887  1.00  0.00    -0.314 OA 
HETATM    2  C   UNL     1     -11.273   8.675  71.324  1.00  0.00    -0.276 C  
HETATM    3  H   UNL     1     -11.976   9.932  72.808  1.00  0.00     0.000 HD 
HETATM    4  C   UNL     1     -10.968   8.544  70.017  1.00  0.00    -0.197 C  
HETATM    5  C   UNL     1     -10.539   7.183  69.514  1.00  0.00    -0.234 C  
HETATM    6  C   UNL     1     -10.601   6.253  71.805  1.00  0.00    -0.266 A  
HETATM    7  C   UNL     1     -10.341   5.205  72.702  1.00  0.00    -0.248 A  
HETATM    8  C   UNL     1     -10.441   6.052  70.446  1.00  0.00    -0.307 A  
HETATM    9  O   UNL     1     -10.240   6.997  68.337  1.00  0.00    -0.165 OA 
HETATM   10  C   UNL     1     -10.112   4.777  69.962  1.00  0.00    -0.308 A  
HETATM   11  C   UNL     1     -11.064   7.558  72.304  1.00  0.00    -0.273 C  
HETATM   12  C   UNL     1      -9.880   3.726  70.850  1.00  0.00    -0.192 A  
HETATM   13  O   UNL     1     -11.275   7.701  73.506  1.00  0.00    -0.283 OA 
HETATM   14  C   UNL     1      -9.968   3.947  72.222  1.00  0.00    -0.236 A  
ENDROOT
BRANCH   4  15
HETATM   15  C   UNL     1     -10.866   9.635  68.926  1.00  0.00    -0.201 C  
HETATM   16  C   UNL     1      -9.251  11.729  68.791  1.00  0.00    -0.009 C  
HETATM   17  C   UNL     1      -9.483  10.230  68.537  1.00  0.00    -0.158 C  
HETATM   18  C   UNL     1     -11.592  12.070  69.438  1.00  0.00    -0.393 C  
HETATM   19  C   UNL     1     -12.008  10.675  69.002  1.00  0.00    -0.186 C  
HETATM   20  C   UNL     1     -10.477  12.626  68.544  1.00  0.00    -0.249 C  
BRANCH  20  21
HETATM   21  C   UNL     1     -10.924  12.828  67.093  1.00  0.00    -0.295 A  
HETATM   22  C   UNL     1     -11.861  13.180  64.450  1.00  0.00    -0.388 A  
HETATM   23  C   UNL     1     -12.152  13.467  66.828  1.00  0.00    -0.425 A  
HETATM   24  C   UNL     1     -12.620  13.637  65.520  1.00  0.00    -0.541 A  
HETATM   25  C   UNL     1     -10.635  12.569  64.679  1.00  0.00    -0.343 A  
HETATM   26 CL   UNL     1     -12.429  13.384  62.839  1.00  0.00     0.111 Cl 
HETATM   27  C   UNL     1     -10.164  12.412  65.988  1.00  0.00    -0.267 A  
ENDBRANCH  20  21
ENDBRANCH   4  15
TORSDOF 2
ENDMDL
MODEL       45
REMARK 921   NORMALIZED FREE ENERGY PREDICTED BY IDOCK:   -5.54 KCAL/MOL
REMARK 922        TOTAL FREE ENERGY PREDICTED BY IDOCK:   -7.06 KCAL/MOL
REMARK 923 INTER-LIGAND FREE ENERGY PREDICTED BY IDOCK:   -6.20 KCAL/MOL
REMARK 924 INTRA-LIGAND FREE ENERGY PREDICTED BY IDOCK:   -0.86 KCAL/MOL
REMARK 927      BINDING AFFINITY PREDICTED BY RF-SCORE:    0.00 PKD
ROOT
HETATM    1  O   UNL     1     -12.606  10.468  69.014  1.00  0.00    -0.722 OA 
HETATM    2  C   UNL     1     -11.312  10.920  68.829  1.00  0.00    -0.292 C  
HETATM    3  H   UNL     1     -13.374  10.911  68.673  1.00  0.00     0.000 HD 
HETATM    4  C   UNL     1     -10.222  10.290  69.315  1.00  0.00    -0.244 C  
HETATM    5  C   UNL     1      -8.873  10.948  69.126  1.00  0.00    -0.037 C  
HETATM    6  C   UNL     1      -9.880  12.763  67.782  1.00  0.00    -0.220 A  
HETATM    7  C   UNL     1      -9.740  13.893  66.961  1.00  0.00    -0.250 A  
HETATM    8  C   UNL     1      -8.771  12.226  68.409  1.00  0.00    -0.139 A  
HETATM    9  O   UNL     1      -7.839  10.426  69.536  1.00  0.00    -0.151 OA 
HETATM   10  C   UNL     1      -7.527  12.865  68.298  1.00  0.00    -0.125 A  
HETATM   11  C   UNL     1     -11.207  12.163  67.996  1.00  0.00    -0.264 C  
HETATM   12  C   UNL     1      -7.390  14.005  67.504  1.00  0.00    -0.187 A  
HETATM   13  O   UNL     1     -12.195  12.694  67.496  1.00  0.00    -0.389 OA 
HETATM   14  C   UNL     1      -8.492  14.503  66.813  1.00  0.00    -0.108 A  
ENDROOT
BRANCH   4  15
HETATM   15  C   UNL     1     -10.111   8.889  69.956  1.00  0.00    -0.207 C  
HETATM   16  C   UNL     1     -11.551   6.714  69.498  1.00  0.00    -0.257 C  
HETATM   17  C   UNL     1     -10.367   7.613  69.103  1.00  0.00    -0.217 C  
HETATM   18  C   UNL     1     -11.975   8.018  71.532  1.00  0.00    -0.331 C  
HETATM   19  C   UNL     1     -10.698   8.827  71.385  1.00  0.00    -0.356 C  
HETATM   20  C   UNL     1     -11.791   6.585  71.013  1.00  0.00    -0.390 C  
BRANCH  20  21
HETATM   21  C   UNL     1     -10.770   5.785  71.826  1.00  0.00    -0.305 A  
HETATM   22  C   UNL     1      -8.911   4.213  73.261  1.00  0.00    -0.104 A  
HETATM   23  C   UNL     1      -9.991   4.801  71.185  1.00  0.00    -0.273 A  
HETATM   24  C   UNL     1      -9.075   4.017  71.895  1.00  0.00    -0.167 A  
HETATM   25  C   UNL     1      -9.647   5.193  73.915  1.00  0.00    -0.137 A  
HETATM   26 CL   UNL     1      -7.787   3.254  74.142  1.00  0.00    -0.065 Cl 
HETATM   27  C   UNL     1     -10.553   5.983  73.199  1.00  0.00    -0.268 A  
ENDBRANCH  20  21
ENDBRANCH   4  15
TORSDOF 2
ENDMDL
MODEL       46
REMARK 921   NORMALIZED FREE ENERGY PREDICTED BY IDOCK:   -5.53 KCAL/MOL
REMARK 922        TOTAL FREE ENERGY PREDICTED BY IDOCK:   -7.05 KCAL/MOL
REMARK 923 INTER-LIGAND FREE ENERGY PREDICTED BY IDOCK:   -6.70 KCAL/MOL
REMARK 924 INTRA-LIGAND FREE ENERGY PREDICTED BY IDOCK:   -0.35 KCAL/MOL
REMARK 927      BINDING AFFINITY PREDICTED BY RF-SCORE:    0.00 PKD
ROOT
HETATM    1  O   UNL     1     -13.370   9.895  70.604  1.00  0.00    -0.617 OA 
HETATM    2  C   UNL     1     -12.126   9.318  70.788  1.00  0.00    -0.171 C  
HETATM    3  H   UNL     1     -14.075   9.843  71.239  1.00  0.00     0.000 HD 
HETATM    4  C   UNL     1     -11.126   9.390  69.886  1.00  0.00    -0.223 C  
HETATM    5  C   UNL     1      -9.850   8.628  70.170  1.00  0.00    -0.180 C  
HETATM    6  C   UNL     1     -10.690   7.932  72.390  1.00  0.00    -0.367 A  
HETATM    7  C   UNL     1     -10.478   7.326  73.638  1.00  0.00    -0.391 A  
HETATM    8  C   UNL     1      -9.716   7.855  71.412  1.00  0.00    -0.199 A  
HETATM    9  O   UNL     1      -8.897   8.656  69.395  1.00  0.00    -0.140 OA 
HETATM   10  C   UNL     1      -8.559   7.093  71.636  1.00  0.00    -0.114 A  
HETATM   11  C   UNL     1     -11.956   8.629  72.110  1.00  0.00    -0.379 C  
HETATM   12  C   UNL     1      -8.357   6.467  72.867  1.00  0.00    -0.115 A  
HETATM   13  O   UNL     1     -12.845   8.625  72.959  1.00  0.00    -0.249 OA 
HETATM   14  C   UNL     1      -9.305   6.607  73.878  1.00  0.00    -0.203 A  
ENDROOT
BRANCH   4  15
HETATM   15  C   UNL     1     -11.023  10.259  68.613  1.00  0.00    -0.289 C  
HETATM   16  C   UNL     1      -9.433   9.979  66.513  1.00  0.00    -0.222 C  
HETATM   17  C   UNL     1     -10.739   9.599  67.233  1.00  0.00    -0.284 C  
HETATM   18  C   UNL     1      -8.913  11.702  68.179  1.00  0.00    -0.182 C  
HETATM   19  C   UNL     1     -10.273  11.591  68.847  1.00  0.00    -0.166 C  
HETATM   20  C   UNL     1      -9.010  11.450  66.669  1.00  0.00    -0.183 C  
BRANCH  20  21
HETATM   21  C   UNL     1      -9.848  12.508  65.943  1.00  0.00    -0.257 A  
HETATM   22  C   UNL     1     -11.408  14.514  64.709  1.00  0.00    -0.396 A  
HETATM   23  C   UNL     1      -9.763  13.856  66.346  1.00  0.00    -0.309 A  
HETATM   24  C   UNL     1     -10.539  14.850  65.740  1.00  0.00    -0.342 A  
HETATM   25  C   UNL     1     -11.494  13.198  64.274  1.00  0.00    -0.428 A  
HETATM   26 CL   UNL     1     -12.367  15.729  63.958  1.00  0.00     0.038 Cl 
HETATM   27  C   UNL     1     -10.707  12.209  64.874  1.00  0.00    -0.336 A  
ENDBRANCH  20  21
ENDBRANCH   4  15
TORSDOF 2
ENDMDL
MODEL       47
REMARK 921   NORMALIZED FREE ENERGY PREDICTED BY IDOCK:   -5.49 KCAL/MOL
REMARK 922        TOTAL FREE ENERGY PREDICTED BY IDOCK:   -7.00 KCAL/MOL
REMARK 923 INTER-LIGAND FREE ENERGY PREDICTED BY IDOCK:   -6.13 KCAL/MOL
REMARK 924 INTRA-LIGAND FREE ENERGY PREDICTED BY IDOCK:   -0.87 KCAL/MOL
REMARK 927      BINDING AFFINITY PREDICTED BY RF-SCORE:    0.00 PKD
ROOT
HETATM    1  O   UNL     1     -10.715  11.808  69.623  1.00  0.00    -0.452 OA 
HETATM    2  C   UNL     1     -10.818  11.687  68.248  1.00  0.00    -0.219 C  
HETATM    3  H   UNL     1     -11.068  12.540  70.116  1.00  0.00     0.000 HD 
HETATM    4  C   UNL     1     -10.316  10.648  67.549  1.00  0.00    -0.254 C  
HETATM    5  C   UNL     1     -10.410  10.691  66.039  1.00  0.00    -0.225 C  
HETATM    6  C   UNL     1     -11.704  12.797  66.120  1.00  0.00    -0.458 A  
HETATM    7  C   UNL     1     -12.459  13.788  65.475  1.00  0.00    -0.548 A  
HETATM    8  C   UNL     1     -11.055  11.830  65.374  1.00  0.00    -0.336 A  
HETATM    9  O   UNL     1      -9.980   9.775  65.342  1.00  0.00    -0.320 OA 
HETATM   10  C   UNL     1     -11.076  11.897  63.973  1.00  0.00    -0.459 A  
HETATM   11  C   UNL     1     -11.581  12.796  67.587  1.00  0.00    -0.358 C  
HETATM   12  C   UNL     1     -11.804  12.898  63.328  1.00  0.00    -0.469 A  
HETATM   13  O   UNL     1     -12.098  13.703  68.234  1.00  0.00    -0.357 OA 
HETATM   14  C   UNL     1     -12.518  13.828  64.080  1.00  0.00    -0.280 A  
ENDROOT
BRANCH   4  15
HETATM   15  C   UNL     1      -9.743   9.310  68.067  1.00  0.00    -0.172 C  
HETATM   16  C   UNL     1     -10.269   8.017  70.318  1.00  0.00    -0.200 C  
HETATM   17  C   UNL     1     -10.647   8.322  68.858  1.00  0.00    -0.160 C  
HETATM   18  C   UNL     1      -8.169   9.269  70.126  1.00  0.00    -0.176 C  
HETATM   19  C   UNL     1      -8.305   9.441  68.623  1.00  0.00    -0.117 C  
HETATM   20  C   UNL     1      -8.757   7.931  70.592  1.00  0.00    -0.135 C  
BRANCH  20  21
HETATM   21  C   UNL     1      -8.004   6.723  70.028  1.00  0.00    -0.116 A  
HETATM   22  C   UNL     1      -6.706   4.425  69.018  1.00  0.00    -0.046 A  
HETATM   23  C   UNL     1      -8.720   5.706  69.365  1.00  0.00    -0.109 A  
HETATM   24  C   UNL     1      -8.080   4.564  68.870  1.00  0.00    -0.077 A  
HETATM   25  C   UNL     1      -5.969   5.422  69.645  1.00  0.00    -0.017 A  
HETATM   26 CL   UNL     1      -5.910   3.024  68.413  1.00  0.00    -0.023 Cl 
HETATM   27  C   UNL     1      -6.612   6.567  70.128  1.00  0.00    -0.045 A  
ENDBRANCH  20  21
ENDBRANCH   4  15
TORSDOF 2
ENDMDL
MODEL       48
REMARK 921   NORMALIZED FREE ENERGY PREDICTED BY IDOCK:   -5.47 KCAL/MOL
REMARK 922        TOTAL FREE ENERGY PREDICTED BY IDOCK:   -6.99 KCAL/MOL
REMARK 923 INTER-LIGAND FREE ENERGY PREDICTED BY IDOCK:   -6.07 KCAL/MOL
REMARK 924 INTRA-LIGAND FREE ENERGY PREDICTED BY IDOCK:   -0.92 KCAL/MOL
REMARK 927      BINDING AFFINITY PREDICTED BY RF-SCORE:    0.00 PKD
ROOT
HETATM    1  O   UNL     1      -8.773   7.434  67.600  1.00  0.00    -0.125 OA 
HETATM    2  C   UNL     1      -9.357   7.522  68.851  1.00  0.00    -0.142 C  
HETATM    3  H   UNL     1      -8.436   6.626  67.231  1.00  0.00     0.000 HD 
HETATM    4  C   UNL     1      -9.835   8.669  69.376  1.00  0.00    -0.184 C  
HETATM    5  C   UNL     1     -10.356   8.643  70.796  1.00  0.00    -0.204 C  
HETATM    6  C   UNL     1     -10.013   6.198  70.940  1.00  0.00    -0.223 A  
HETATM    7  C   UNL     1     -10.175   4.984  71.625  1.00  0.00    -0.275 A  
HETATM    8  C   UNL     1     -10.355   7.388  71.557  1.00  0.00    -0.216 A  
HETATM    9  O   UNL     1     -10.813   9.650  71.332  1.00  0.00    -0.340 OA 
HETATM   10  C   UNL     1     -10.774   7.385  72.897  1.00  0.00    -0.387 A  
HETATM   11  C   UNL     1      -9.459   6.212  69.577  1.00  0.00    -0.140 C  
HETATM   12  C   UNL     1     -10.910   6.181  73.589  1.00  0.00    -0.150 A  
HETATM   13  O   UNL     1      -9.087   5.158  69.068  1.00  0.00    -0.101 OA 
HETATM   14  C   UNL     1     -10.635   4.977  72.944  1.00  0.00    -0.280 A  
ENDROOT
BRANCH   4  15
HETATM   15  C   UNL     1     -10.056  10.036  68.691  1.00  0.00    -0.187 C  
HETATM   16  C   UNL     1     -10.396  10.593  66.124  1.00  0.00    -0.291 C  
HETATM   17  C   UNL     1     -11.008  10.157  67.467  1.00  0.00    -0.319 C  
HETATM   18  C   UNL     1      -8.221  11.046  67.163  1.00  0.00    -0.133 C  
HETATM   19  C   UNL     1      -8.759  10.871  68.573  1.00  0.00    -0.153 C  
HETATM   20  C   UNL     1      -9.281  11.648  66.231  1.00  0.00    -0.225 C  
BRANCH  20  21
HETATM   21  C   UNL     1      -9.688  13.069  66.634  1.00  0.00    -0.256 A  
HETATM   22  C   UNL     1     -10.359  15.685  67.464  1.00  0.00    -0.277 A  
HETATM   23  C   UNL     1      -8.706  13.966  67.099  1.00  0.00    -0.233 A  
HETATM   24  C   UNL     1      -9.038  15.260  67.517  1.00  0.00    -0.189 A  
HETATM   25  C   UNL     1     -11.345  14.831  66.986  1.00  0.00    -0.358 A  
HETATM   26 CL   UNL     1     -10.776  17.274  67.976  1.00  0.00    -0.389 Cl 
HETATM   27  C   UNL     1     -11.008  13.543  66.559  1.00  0.00    -0.295 A  
ENDBRANCH  20  21
ENDBRANCH   4  15
TORSDOF 2
ENDMDL
MODEL       49
REMARK 921   NORMALIZED FREE ENERGY PREDICTED BY IDOCK:   -5.45 KCAL/MOL
REMARK 922        TOTAL FREE ENERGY PREDICTED BY IDOCK:   -6.96 KCAL/MOL
REMARK 923 INTER-LIGAND FREE ENERGY PREDICTED BY IDOCK:   -6.03 KCAL/MOL
REMARK 924 INTRA-LIGAND FREE ENERGY PREDICTED BY IDOCK:   -0.93 KCAL/MOL
REMARK 927      BINDING AFFINITY PREDICTED BY RF-SCORE:    0.00 PKD
ROOT
HETATM    1  O   UNL     1     -10.240   9.813  64.245  1.00  0.00    -0.338 OA 
HETATM    2  C   UNL     1     -10.215  10.913  65.083  1.00  0.00    -0.297 C  
HETATM    3  H   UNL     1     -10.366   9.869  63.305  1.00  0.00     0.000 HD 
HETATM    4  C   UNL     1     -10.037  10.834  66.418  1.00  0.00    -0.278 C  
HETATM    5  C   UNL     1     -10.133  12.107  67.229  1.00  0.00    -0.202 C  
HETATM    6  C   UNL     1     -10.404  13.463  65.179  1.00  0.00    -0.349 A  
HETATM    7  C   UNL     1     -10.483  14.714  64.547  1.00  0.00    -0.010 A  
HETATM    8  C   UNL     1     -10.390  13.389  66.559  1.00  0.00    -0.284 A  
HETATM    9  O   UNL     1      -9.974  12.108  68.447  1.00  0.00    -0.208 OA 
HETATM   10  C   UNL     1     -10.547  14.555  67.324  1.00  0.00    -0.280 A  
HETATM   11  C   UNL     1     -10.361  12.230  64.377  1.00  0.00    -0.331 C  
HETATM   12  C   UNL     1     -10.653  15.798  66.698  1.00  0.00    -0.307 A  
HETATM   13  O   UNL     1     -10.451  12.303  63.155  1.00  0.00    -0.359 OA 
HETATM   14  C   UNL     1     -10.593  15.880  65.308  1.00  0.00    -0.441 A  
ENDROOT
BRANCH   4  15
HETATM   15  C   UNL     1      -9.615   9.619  67.274  1.00  0.00    -0.203 C  
HETATM   16  C   UNL     1      -8.107   7.544  66.617  1.00  0.00    -0.123 C  
HETATM   17  C   UNL     1      -8.199   8.998  67.112  1.00  0.00    -0.110 C  
HETATM   18  C   UNL     1     -10.540   7.257  66.741  1.00  0.00    -0.288 C  
HETATM   19  C   UNL     1     -10.748   8.582  67.454  1.00  0.00    -0.215 C  
HETATM   20  C   UNL     1      -9.209   6.608  67.145  1.00  0.00    -0.134 C  
BRANCH  20  21
HETATM   21  C   UNL     1      -9.161   6.223  68.626  1.00  0.00    -0.124 A  
HETATM   22  C   UNL     1      -9.192   5.527  71.365  1.00  0.00    -0.146 A  
HETATM   23  C   UNL     1     -10.201   5.447  69.175  1.00  0.00    -0.302 A  
HETATM   24  C   UNL     1     -10.221   5.106  70.532  1.00  0.00    -0.330 A  
HETATM   25  C   UNL     1      -8.140   6.272  70.847  1.00  0.00    -0.124 A  
HETATM   26 CL   UNL     1      -9.207   5.113  73.034  1.00  0.00    -0.126 Cl 
HETATM   27  C   UNL     1      -8.118   6.600  69.487  1.00  0.00    -0.126 A  
ENDBRANCH  20  21
ENDBRANCH   4  15
TORSDOF 2
ENDMDL
MODEL       50
REMARK 921   NORMALIZED FREE ENERGY PREDICTED BY IDOCK:   -5.42 KCAL/MOL
REMARK 922        TOTAL FREE ENERGY PREDICTED BY IDOCK:   -6.93 KCAL/MOL
REMARK 923 INTER-LIGAND FREE ENERGY PREDICTED BY IDOCK:   -6.05 KCAL/MOL
REMARK 924 INTRA-LIGAND FREE ENERGY PREDICTED BY IDOCK:   -0.88 KCAL/MOL
REMARK 927      BINDING AFFINITY PREDICTED BY RF-SCORE:    0.00 PKD
ROOT
HETATM    1  O   UNL     1     -11.679  11.497  67.280  1.00  0.00    -0.576 OA 
HETATM    2  C   UNL     1     -10.343  11.142  67.222  1.00  0.00    -0.208 C  
HETATM    3  H   UNL     1     -12.392  10.869  67.301  1.00  0.00     0.000 HD 
HETATM    4  C   UNL     1      -9.332  12.034  67.192  1.00  0.00    -0.187 C  
HETATM    5  C   UNL     1      -7.922  11.512  67.026  1.00  0.00    -0.161 C  
HETATM    6  C   UNL     1      -8.715   9.171  67.124  1.00  0.00    -0.130 A  
HETATM    7  C   UNL     1      -8.445   7.795  67.193  1.00  0.00    -0.124 A  
HETATM    8  C   UNL     1      -7.680  10.067  66.926  1.00  0.00    -0.096 A  
HETATM    9  O   UNL     1      -6.954  12.268  66.998  1.00  0.00    -0.125 OA 
HETATM   10  C   UNL     1      -6.379   9.593  66.701  1.00  0.00    -0.066 A  
HETATM   11  C   UNL     1     -10.097   9.662  67.238  1.00  0.00    -0.211 C  
HETATM   12  C   UNL     1      -6.112   8.223  66.742  1.00  0.00    -0.054 A  
HETATM   13  O   UNL     1     -11.017   8.853  67.337  1.00  0.00    -0.125 OA 
HETATM   14  C   UNL     1      -7.142   7.326  67.015  1.00  0.00    -0.087 A  
ENDROOT
BRANCH   4  15
HETATM   15  C   UNL     1      -9.371  13.561  67.430  1.00  0.00    -0.228 C  
HETATM   16  C   UNL     1     -11.091  14.996  68.842  1.00  0.00    -0.274 C  
HETATM   17  C   UNL     1      -9.820  14.130  68.806  1.00  0.00    -0.168 C  
HETATM   18  C   UNL     1     -11.264  14.998  66.396  1.00  0.00    -0.310 C  
HETATM   19  C   UNL     1      -9.903  14.350  66.211  1.00  0.00    -0.321 C  
HETATM   20  C   UNL     1     -11.283  15.917  67.624  1.00  0.00    -0.219 C  
BRANCH  20  21
HETATM   21  C   UNL     1     -10.338  17.114  67.486  1.00  0.00    -0.341 A  
HETATM   22  C   UNL     1      -8.605  19.342  67.348  1.00  0.00    -0.292 A  
HETATM   23  C   UNL     1      -9.420  17.395  68.518  1.00  0.00    -0.297 A  
HETATM   24  C   UNL     1      -8.565  18.502  68.454  1.00  0.00    -0.355 A  
HETATM   25  C   UNL     1      -9.482  19.075  66.304  1.00  0.00    -0.341 A  
HETATM   26 CL   UNL     1      -7.558  20.704  67.260  1.00  0.00    -0.388 Cl 
HETATM   27  C   UNL     1     -10.326  17.961  66.367  1.00  0.00    -0.365 A  
ENDBRANCH  20  21
ENDBRANCH   4  15
TORSDOF 2
ENDMDL
MODEL       51
REMARK 921   NORMALIZED FREE ENERGY PREDICTED BY IDOCK:   -5.41 KCAL/MOL
REMARK 922        TOTAL FREE ENERGY PREDICTED BY IDOCK:   -6.92 KCAL/MOL
REMARK 923 INTER-LIGAND FREE ENERGY PREDICTED BY IDOCK:   -6.64 KCAL/MOL
REMARK 924 INTRA-LIGAND FREE ENERGY PREDICTED BY IDOCK:   -0.28 KCAL/MOL
REMARK 927      BINDING AFFINITY PREDICTED BY RF-SCORE:    0.00 PKD
ROOT
HETATM    1  O   UNL     1     -10.772  10.698  64.941  1.00  0.00    -0.217 OA 
HETATM    2  C   UNL     1     -10.725  11.800  65.775  1.00  0.00    -0.280 C  
HETATM    3  H   UNL     1     -10.723  10.750  63.993  1.00  0.00     0.000 HD 
HETATM    4  C   UNL     1     -10.795  11.725  67.120  1.00  0.00    -0.303 C  
HETATM    5  C   UNL     1     -10.834  13.016  67.907  1.00  0.00    -0.242 C  
HETATM    6  C   UNL     1     -10.536  14.351  65.847  1.00  0.00    -0.312 A  
HETATM    7  C   UNL     1     -10.313  15.585  65.216  1.00  0.00    -0.416 A  
HETATM    8  C   UNL     1     -10.772  14.306  67.208  1.00  0.00    -0.277 A  
HETATM    9  O   UNL     1     -10.889  13.020  69.135  1.00  0.00    -0.195 OA 
HETATM   10  C   UNL     1     -10.880  15.500  67.938  1.00  0.00    -0.307 A  
HETATM   11  C   UNL     1     -10.544  13.107  65.060  1.00  0.00    -0.332 C  
HETATM   12  C   UNL     1     -10.685  16.730  67.309  1.00  0.00    -0.213 A  
HETATM   13  O   UNL     1     -10.409  13.166  63.841  1.00  0.00    -0.354 OA 
HETATM   14  C   UNL     1     -10.374  16.770  65.951  1.00  0.00    -0.341 A  
ENDROOT
BRANCH   4  15
HETATM   15  C   UNL     1     -10.717  10.480  68.032  1.00  0.00    -0.287 C  
HETATM   16  C   UNL     1     -11.143  10.278  70.638  1.00  0.00    -0.358 C  
HETATM   17  C   UNL     1     -11.717  10.307  69.211  1.00  0.00    -0.141 C  
HETATM   18  C   UNL     1      -8.837  10.269  69.803  1.00  0.00    -0.070 C  
HETATM   19  C   UNL     1      -9.266  10.059  68.361  1.00  0.00    -0.131 C  
HETATM   20  C   UNL     1      -9.787   9.563  70.778  1.00  0.00    -0.309 C  
BRANCH  20  21
HETATM   21  C   UNL     1      -9.773   8.039  70.623  1.00  0.00    -0.180 A  
HETATM   22  C   UNL     1      -9.645   5.238  70.273  1.00  0.00    -0.179 A  
HETATM   23  C   UNL     1      -8.541   7.353  70.629  1.00  0.00    -0.141 A  
HETATM   24  C   UNL     1      -8.476   5.967  70.449  1.00  0.00    -0.132 A  
HETATM   25  C   UNL     1     -10.876   5.884  70.288  1.00  0.00    -0.391 A  
HETATM   26 CL   UNL     1      -9.576   3.534  70.051  1.00  0.00    -0.253 Cl 
HETATM   27  C   UNL     1     -10.937   7.268  70.480  1.00  0.00    -0.282 A  
ENDBRANCH  20  21
ENDBRANCH   4  15
TORSDOF 2
ENDMDL
MODEL       52
REMARK 921   NORMALIZED FREE ENERGY PREDICTED BY IDOCK:   -5.38 KCAL/MOL
REMARK 922        TOTAL FREE ENERGY PREDICTED BY IDOCK:   -6.89 KCAL/MOL
REMARK 923 INTER-LIGAND FREE ENERGY PREDICTED BY IDOCK:   -5.99 KCAL/MOL
REMARK 924 INTRA-LIGAND FREE ENERGY PREDICTED BY IDOCK:   -0.90 KCAL/MOL
REMARK 927      BINDING AFFINITY PREDICTED BY RF-SCORE:    0.00 PKD
ROOT
HETATM    1  O   UNL     1     -11.467   7.021  69.492  1.00  0.00    -0.513 OA 
HETATM    2  C   UNL     1     -10.379   7.102  70.342  1.00  0.00    -0.203 C  
HETATM    3  H   UNL     1     -11.902   6.207  69.267  1.00  0.00     0.000 HD 
HETATM    4  C   UNL     1      -9.761   8.258  70.661  1.00  0.00    -0.191 C  
HETATM    5  C   UNL     1      -8.519   8.192  71.523  1.00  0.00    -0.127 C  
HETATM    6  C   UNL     1      -8.773   5.748  71.803  1.00  0.00    -0.136 A  
HETATM    7  C   UNL     1      -8.384   4.545  72.413  1.00  0.00    -0.110 A  
HETATM    8  C   UNL     1      -8.029   6.896  72.009  1.00  0.00    -0.095 A  
HETATM    9  O   UNL     1      -7.913   9.207  71.857  1.00  0.00    -0.334 OA 
HETATM   10  C   UNL     1      -6.838   6.835  72.748  1.00  0.00    -0.067 A  
HETATM   11  C   UNL     1      -9.955   5.787  70.928  1.00  0.00    -0.189 C  
HETATM   12  C   UNL     1      -6.434   5.633  73.332  1.00  0.00    -0.072 A  
HETATM   13  O   UNL     1     -10.563   4.746  70.692  1.00  0.00    -0.106 OA 
HETATM   14  C   UNL     1      -7.222   4.494  73.187  1.00  0.00    -0.079 A  
ENDROOT
BRANCH   4  15
HETATM   15  C   UNL     1     -10.204   9.711  70.375  1.00  0.00    -0.348 C  
HETATM   16  C   UNL     1     -12.639  10.677  69.978  1.00  0.00    -0.232 C  
HETATM   17  C   UNL     1     -11.536  10.256  70.966  1.00  0.00    -0.430 C  
HETATM   18  C   UNL     1     -11.154  10.357  68.052  1.00  0.00    -0.359 C  
HETATM   19  C   UNL     1      -9.925  10.155  68.920  1.00  0.00    -0.207 C  
HETATM   20  C   UNL     1     -12.133  11.351  68.690  1.00  0.00    -0.214 C  
BRANCH  20  21
HETATM   21  C   UNL     1     -11.550  12.762  68.813  1.00  0.00    -0.353 A  
HETATM   22  C   UNL     1     -10.575  15.399  69.096  1.00  0.00    -0.248 A  
HETATM   23  C   UNL     1     -11.788  13.512  69.982  1.00  0.00    -0.371 A  
HETATM   24  C   UNL     1     -11.311  14.820  70.122  1.00  0.00    -0.291 A  
HETATM   25  C   UNL     1     -10.303  14.676  67.941  1.00  0.00    -0.237 A  
HETATM   26 CL   UNL     1      -9.984  17.007  69.258  1.00  0.00    -0.216 Cl 
HETATM   27  C   UNL     1     -10.772  13.364  67.811  1.00  0.00    -0.259 A  
ENDBRANCH  20  21
ENDBRANCH   4  15
TORSDOF 2
ENDMDL
MODEL       53
REMARK 921   NORMALIZED FREE ENERGY PREDICTED BY IDOCK:   -5.38 KCAL/MOL
REMARK 922        TOTAL FREE ENERGY PREDICTED BY IDOCK:   -6.89 KCAL/MOL
REMARK 923 INTER-LIGAND FREE ENERGY PREDICTED BY IDOCK:   -6.10 KCAL/MOL
REMARK 924 INTRA-LIGAND FREE ENERGY PREDICTED BY IDOCK:   -0.79 KCAL/MOL
REMARK 927      BINDING AFFINITY PREDICTED BY RF-SCORE:    0.00 PKD
ROOT
HETATM    1  O   UNL     1     -11.642  10.131  67.895  1.00  0.00    -0.658 OA 
HETATM    2  C   UNL     1     -10.346  10.029  68.370  1.00  0.00    -0.191 C  
HETATM    3  H   UNL     1     -12.232   9.391  67.808  1.00  0.00     0.000 HD 
HETATM    4  C   UNL     1      -9.509  11.079  68.492  1.00  0.00    -0.188 C  
HETATM    5  C   UNL     1      -8.085  10.811  68.929  1.00  0.00    -0.145 C  
HETATM    6  C   UNL     1      -8.575   8.409  69.256  1.00  0.00    -0.130 A  
HETATM    7  C   UNL     1      -8.189   7.137  69.707  1.00  0.00    -0.131 A  
HETATM    8  C   UNL     1      -7.654   9.440  69.231  1.00  0.00    -0.081 A  
HETATM    9  O   UNL     1      -7.273  11.722  69.068  1.00  0.00    -0.110 OA 
HETATM   10  C   UNL     1      -6.315   9.189  69.568  1.00  0.00    -0.043 A  
HETATM   11  C   UNL     1      -9.950   8.643  68.787  1.00  0.00    -0.183 C  
HETATM   12  C   UNL     1      -5.922   7.919  69.991  1.00  0.00    -0.023 A  
HETATM   13  O   UNL     1     -10.739   7.702  68.742  1.00  0.00    -0.177 OA 
HETATM   14  C   UNL     1      -6.866   6.899  70.086  1.00  0.00    -0.057 A  
ENDROOT
BRANCH   4  15
HETATM   15  C   UNL     1      -9.813  12.588  68.367  1.00  0.00    -0.202 C  
HETATM   16  C   UNL     1     -12.148  13.817  68.129  1.00  0.00    -0.316 C  
HETATM   17  C   UNL     1     -11.078  13.193  69.042  1.00  0.00    -0.282 C  
HETATM   18  C   UNL     1     -10.729  13.560  66.145  1.00  0.00    -0.289 C  
HETATM   19  C   UNL     1      -9.512  13.153  66.959  1.00  0.00    -0.242 C  
HETATM   20  C   UNL     1     -11.597  14.571  66.905  1.00  0.00    -0.399 C  
BRANCH  20  21
HETATM   21  C   UNL     1     -10.880  15.900  67.158  1.00  0.00    -0.267 A  
HETATM   22  C   UNL     1      -9.464  18.312  67.558  1.00  0.00    -0.266 A  
HETATM   23  C   UNL     1     -10.097  16.470  66.134  1.00  0.00    -0.365 A  
HETATM   24  C   UNL     1      -9.390  17.662  66.333  1.00  0.00    -0.265 A  
HETATM   25  C   UNL     1     -10.248  17.787  68.578  1.00  0.00    -0.382 A  
HETATM   26 CL   UNL     1      -8.599  19.777  67.812  1.00  0.00    -0.361 Cl 
HETATM   27  C   UNL     1     -10.962  16.602  68.371  1.00  0.00    -0.345 A  
ENDBRANCH  20  21
ENDBRANCH   4  15
TORSDOF 2
ENDMDL
MODEL       54
REMARK 921   NORMALIZED FREE ENERGY PREDICTED BY IDOCK:   -5.38 KCAL/MOL
REMARK 922        TOTAL FREE ENERGY PREDICTED BY IDOCK:   -6.88 KCAL/MOL
REMARK 923 INTER-LIGAND FREE ENERGY PREDICTED BY IDOCK:   -6.13 KCAL/MOL
REMARK 924 INTRA-LIGAND FREE ENERGY PREDICTED BY IDOCK:   -0.75 KCAL/MOL
REMARK 927      BINDING AFFINITY PREDICTED BY RF-SCORE:    0.00 PKD
ROOT
HETATM    1  O   UNL     1      -7.542   9.399  71.514  1.00  0.00    -0.329 OA 
HETATM    2  C   UNL     1      -8.519   8.421  71.582  1.00  0.00    -0.163 C  
HETATM    3  H   UNL     1      -6.853   9.503  72.160  1.00  0.00     0.000 HD 
HETATM    4  C   UNL     1      -9.497   8.274  70.666  1.00  0.00    -0.181 C  
HETATM    5  C   UNL     1     -10.561   7.228  70.916  1.00  0.00    -0.220 C  
HETATM    6  C   UNL     1      -9.397   6.449  72.954  1.00  0.00    -0.140 A  
HETATM    7  C   UNL     1      -9.266   5.528  74.006  1.00  0.00    -0.126 A  
HETATM    8  C   UNL     1     -10.497   6.388  72.119  1.00  0.00    -0.234 A  
HETATM    9  O   UNL     1     -11.475   7.036  70.118  1.00  0.00    -0.290 OA 
HETATM   10  C   UNL     1     -11.524   5.468  72.380  1.00  0.00    -0.266 A  
HETATM   11  C   UNL     1      -8.380   7.492  72.753  1.00  0.00    -0.118 C  
HETATM   12  C   UNL     1     -11.409   4.569  73.442  1.00  0.00    -0.376 A  
HETATM   13  O   UNL     1      -7.447   7.585  73.546  1.00  0.00    -0.095 OA 
HETATM   14  C   UNL     1     -10.267   4.581  74.239  1.00  0.00    -0.277 A  
ENDROOT
BRANCH   4  15
HETATM   15  C   UNL     1      -9.648   8.950  69.284  1.00  0.00    -0.162 C  
HETATM   16  C   UNL     1      -7.773   9.721  67.578  1.00  0.00    -0.095 C  
HETATM   17  C   UNL     1      -8.670   8.597  68.126  1.00  0.00    -0.142 C  
HETATM   18  C   UNL     1      -8.912  11.412  68.943  1.00  0.00    -0.016 C  
HETATM   19  C   UNL     1     -10.005  10.452  69.379  1.00  0.00    -0.240 C  
HETATM   20  C   UNL     1      -8.438  11.108  67.516  1.00  0.00    -0.126 C  
BRANCH  20  21
HETATM   21  C   UNL     1      -9.534  11.320  66.467  1.00  0.00    -0.213 A  
HETATM   22  C   UNL     1     -11.472  11.718  64.450  1.00  0.00    -0.273 A  
HETATM   23  C   UNL     1      -9.393  10.743  65.189  1.00  0.00    -0.254 A  
HETATM   24  C   UNL     1     -10.348  10.944  64.187  1.00  0.00    -0.432 A  
HETATM   25  C   UNL     1     -11.650  12.279  65.708  1.00  0.00    -0.443 A  
HETATM   26 CL   UNL     1     -12.652  11.971  63.224  1.00  0.00    -0.640 Cl 
HETATM   27  C   UNL     1     -10.698  12.065  66.711  1.00  0.00    -0.280 A  
ENDBRANCH  20  21
ENDBRANCH   4  15
TORSDOF 2
ENDMDL
MODEL       55
REMARK 921   NORMALIZED FREE ENERGY PREDICTED BY IDOCK:   -5.36 KCAL/MOL
REMARK 922        TOTAL FREE ENERGY PREDICTED BY IDOCK:   -6.86 KCAL/MOL
REMARK 923 INTER-LIGAND FREE ENERGY PREDICTED BY IDOCK:   -7.32 KCAL/MOL
REMARK 924 INTRA-LIGAND FREE ENERGY PREDICTED BY IDOCK:    0.46 KCAL/MOL
REMARK 927      BINDING AFFINITY PREDICTED BY RF-SCORE:    0.00 PKD
ROOT
HETATM    1  O   UNL     1     -11.200  11.500  70.035  1.00  0.00    -0.469 OA 
HETATM    2  C   UNL     1     -10.990  11.119  68.722  1.00  0.00    -0.219 C  
HETATM    3  H   UNL     1     -11.576  12.335  70.289  1.00  0.00     0.000 HD 
HETATM    4  C   UNL     1     -10.456   9.934  68.362  1.00  0.00    -0.239 C  
HETATM    5  C   UNL     1     -10.187   9.687  66.893  1.00  0.00    -0.237 C  
HETATM    6  C   UNL     1     -11.224  11.847  66.280  1.00  0.00    -0.392 A  
HETATM    7  C   UNL     1     -11.692  12.740  65.303  1.00  0.00    -0.403 A  
HETATM    8  C   UNL     1     -10.529  10.713  65.900  1.00  0.00    -0.243 A  
HETATM    9  O   UNL     1      -9.710   8.627  66.496  1.00  0.00    -0.212 OA 
HETATM   10  C   UNL     1     -10.213  10.507  64.549  1.00  0.00    -0.355 A  
HETATM   11  C   UNL     1     -11.450  12.125  67.707  1.00  0.00    -0.332 C  
HETATM   12  C   UNL     1     -10.654  11.407  63.578  1.00  0.00    -0.468 A  
HETATM   13  O   UNL     1     -12.001  13.172  68.036  1.00  0.00    -0.351 OA 
HETATM   14  C   UNL     1     -11.418  12.510  63.953  1.00  0.00    -0.507 A  
ENDROOT
BRANCH   4  15
HETATM   15  C   UNL     1     -10.172   8.689  69.231  1.00  0.00    -0.215 C  
HETATM   16  C   UNL     1     -11.511   6.409  69.388  1.00  0.00    -0.374 C  
HETATM   17  C   UNL     1     -10.448   7.263  68.675  1.00  0.00    -0.214 C  
HETATM   18  C   UNL     1     -11.761   8.064  71.181  1.00  0.00    -0.307 C  
HETATM   19  C   UNL     1     -10.569   8.882  70.714  1.00  0.00    -0.281 C  
HETATM   20  C   UNL     1     -11.550   6.567  70.919  1.00  0.00    -0.417 C  
BRANCH  20  21
HETATM   21  C   UNL     1     -10.383   5.982  71.720  1.00  0.00    -0.259 A  
HETATM   22  C   UNL     1      -8.222   5.006  73.256  1.00  0.00    -0.107 A  
HETATM   23  C   UNL     1     -10.241   6.315  73.082  1.00  0.00    -0.217 A  
HETATM   24  C   UNL     1      -9.167   5.837  73.843  1.00  0.00    -0.127 A  
HETATM   25  C   UNL     1      -8.349   4.640  71.922  1.00  0.00    -0.109 A  
HETATM   26 CL   UNL     1      -6.899   4.414  74.183  1.00  0.00    -0.063 Cl 
HETATM   27  C   UNL     1      -9.430   5.111  71.168  1.00  0.00    -0.205 A  
ENDBRANCH  20  21
ENDBRANCH   4  15
TORSDOF 2
ENDMDL
MODEL       56
REMARK 921   NORMALIZED FREE ENERGY PREDICTED BY IDOCK:   -5.33 KCAL/MOL
REMARK 922        TOTAL FREE ENERGY PREDICTED BY IDOCK:   -6.83 KCAL/MOL
REMARK 923 INTER-LIGAND FREE ENERGY PREDICTED BY IDOCK:   -5.90 KCAL/MOL
REMARK 924 INTRA-LIGAND FREE ENERGY PREDICTED BY IDOCK:   -0.93 KCAL/MOL
REMARK 927      BINDING AFFINITY PREDICTED BY RF-SCORE:    0.00 PKD
ROOT
HETATM    1  O   UNL     1      -8.034   6.256  67.902  1.00  0.00    -0.108 OA 
HETATM    2  C   UNL     1      -8.845   6.181  69.021  1.00  0.00    -0.123 C  
HETATM    3  H   UNL     1      -7.494   5.538  67.593  1.00  0.00     0.000 HD 
HETATM    4  C   UNL     1      -9.612   7.201  69.460  1.00  0.00    -0.154 C  
HETATM    5  C   UNL     1     -10.374   7.017  70.754  1.00  0.00    -0.206 C  
HETATM    6  C   UNL     1      -9.626   4.666  70.929  1.00  0.00    -0.249 A  
HETATM    7  C   UNL     1      -9.689   3.411  71.554  1.00  0.00    -0.233 A  
HETATM    8  C   UNL     1     -10.286   5.747  71.485  1.00  0.00    -0.274 A  
HETATM    9  O   UNL     1     -11.096   7.902  71.206  1.00  0.00    -0.243 OA 
HETATM   10  C   UNL     1     -10.938   5.608  72.720  1.00  0.00    -0.320 A  
HETATM   11  C   UNL     1      -8.841   4.842  69.697  1.00  0.00    -0.086 C  
HETATM   12  C   UNL     1     -10.979   4.367  73.358  1.00  0.00    -0.375 A  
HETATM   13  O   UNL     1      -8.197   3.894  69.254  1.00  0.00    -0.061 OA 
HETATM   14  C   UNL     1     -10.377   3.262  72.761  1.00  0.00    -0.237 A  
ENDROOT
BRANCH   4  15
HETATM   15  C   UNL     1      -9.946   8.539  68.763  1.00  0.00    -0.197 C  
HETATM   16  C   UNL     1     -10.009   9.118  66.179  1.00  0.00    -0.338 C  
HETATM   17  C   UNL     1     -10.726   8.551  67.417  1.00  0.00    -0.215 C  
HETATM   18  C   UNL     1      -8.098   9.866  67.521  1.00  0.00    -0.110 C  
HETATM   19  C   UNL     1      -8.792   9.566  68.839  1.00  0.00    -0.137 C  
HETATM   20  C   UNL     1      -9.098  10.327  66.454  1.00  0.00    -0.174 C  
BRANCH  20  21
HETATM   21  C   UNL     1      -9.774  11.656  66.808  1.00  0.00    -0.220 A  
HETATM   22  C   UNL     1     -10.934  14.126  67.540  1.00  0.00    -0.283 A  
HETATM   23  C   UNL     1      -8.979  12.779  67.110  1.00  0.00    -0.214 A  
HETATM   24  C   UNL     1      -9.552  14.002  67.479  1.00  0.00    -0.228 A  
HETATM   25  C   UNL     1     -11.744  13.042  67.224  1.00  0.00    -0.429 A  
HETATM   26 CL   UNL     1     -11.647  15.625  67.993  1.00  0.00    -0.300 Cl 
HETATM   27  C   UNL     1     -11.167  11.825  66.844  1.00  0.00    -0.387 A  
ENDBRANCH  20  21
ENDBRANCH   4  15
TORSDOF 2
ENDMDL
MODEL       57
REMARK 921   NORMALIZED FREE ENERGY PREDICTED BY IDOCK:   -5.22 KCAL/MOL
REMARK 922        TOTAL FREE ENERGY PREDICTED BY IDOCK:   -6.71 KCAL/MOL
REMARK 923 INTER-LIGAND FREE ENERGY PREDICTED BY IDOCK:   -6.51 KCAL/MOL
REMARK 924 INTRA-LIGAND FREE ENERGY PREDICTED BY IDOCK:   -0.20 KCAL/MOL
REMARK 927      BINDING AFFINITY PREDICTED BY RF-SCORE:    0.00 PKD
ROOT
HETATM    1  O   UNL     1      -8.200   9.750  68.813  1.00  0.00    -0.101 OA 
HETATM    2  C   UNL     1      -8.518  10.125  67.520  1.00  0.00    -0.118 C  
HETATM    3  H   UNL     1      -7.513   9.130  69.028  1.00  0.00     0.000 HD 
HETATM    4  C   UNL     1      -9.494  11.005  67.214  1.00  0.00    -0.179 C  
HETATM    5  C   UNL     1      -9.804  11.250  65.754  1.00  0.00    -0.232 C  
HETATM    6  C   UNL     1      -7.937   9.788  65.051  1.00  0.00    -0.131 A  
HETATM    7  C   UNL     1      -7.111   9.267  64.043  1.00  0.00    -0.098 A  
HETATM    8  C   UNL     1      -9.036  10.556  64.712  1.00  0.00    -0.242 A  
HETATM    9  O   UNL     1     -10.675  12.043  65.406  1.00  0.00    -0.269 OA 
HETATM   10  C   UNL     1      -9.376  10.733  63.362  1.00  0.00    -0.308 A  
HETATM   11  C   UNL     1      -7.651   9.502  66.466  1.00  0.00    -0.094 C  
HETATM   12  C   UNL     1      -8.572  10.193  62.358  1.00  0.00    -0.216 A  
HETATM   13  O   UNL     1      -6.717   8.756  66.751  1.00  0.00    -0.067 OA 
HETATM   14  C   UNL     1      -7.423   9.482  62.699  1.00  0.00    -0.106 A  
ENDROOT
BRANCH   4  15
HETATM   15  C   UNL     1     -10.299  11.932  68.152  1.00  0.00    -0.210 C  
HETATM   16  C   UNL     1     -12.407  13.443  67.616  1.00  0.00    -0.023 C  
HETATM   17  C   UNL     1     -11.841  12.063  67.993  1.00  0.00    -0.338 C  
HETATM   18  C   UNL     1     -10.208  14.504  67.845  1.00  0.00    -0.231 C  
HETATM   19  C   UNL     1      -9.575  13.265  68.455  1.00  0.00    -0.185 C  
HETATM   20  C   UNL     1     -11.680  14.639  68.255  1.00  0.00    -0.359 C  
BRANCH  20  21
HETATM   21  C   UNL     1     -11.860  14.854  69.761  1.00  0.00    -0.356 A  
HETATM   22  C   UNL     1     -12.306  15.216  72.527  1.00  0.00    -0.370 A  
HETATM   23  C   UNL     1     -12.678  13.971  70.494  1.00  0.00    -0.347 A  
HETATM   24  C   UNL     1     -12.904  14.153  71.863  1.00  0.00    -0.425 A  
HETATM   25  C   UNL     1     -11.475  16.088  71.835  1.00  0.00    -0.409 A  
HETATM   26 CL   UNL     1     -12.579  15.447  74.210  1.00  0.00    -0.705 Cl 
HETATM   27  C   UNL     1     -11.241  15.896  70.469  1.00  0.00    -0.395 A  
ENDBRANCH  20  21
ENDBRANCH   4  15
TORSDOF 2
ENDMDL
MODEL       58
REMARK 921   NORMALIZED FREE ENERGY PREDICTED BY IDOCK:   -5.22 KCAL/MOL
REMARK 922        TOTAL FREE ENERGY PREDICTED BY IDOCK:   -6.70 KCAL/MOL
REMARK 923 INTER-LIGAND FREE ENERGY PREDICTED BY IDOCK:   -6.95 KCAL/MOL
REMARK 924 INTRA-LIGAND FREE ENERGY PREDICTED BY IDOCK:    0.25 KCAL/MOL
REMARK 927      BINDING AFFINITY PREDICTED BY RF-SCORE:    0.00 PKD
ROOT
HETATM    1  O   UNL     1      -8.677  11.111  64.978  1.00  0.00    -0.364 OA 
HETATM    2  C   UNL     1      -9.283  10.483  66.052  1.00  0.00    -0.176 C  
HETATM    3  H   UNL     1      -8.337  10.651  64.220  1.00  0.00     0.000 HD 
HETATM    4  C   UNL     1      -9.765  11.137  67.128  1.00  0.00    -0.199 C  
HETATM    5  C   UNL     1     -10.311  10.318  68.277  1.00  0.00    -0.181 C  
HETATM    6  C   UNL     1      -9.981   8.217  67.014  1.00  0.00    -0.325 A  
HETATM    7  C   UNL     1     -10.161   6.831  66.888  1.00  0.00    -0.268 A  
HETATM    8  C   UNL     1     -10.329   8.852  68.193  1.00  0.00    -0.261 A  
HETATM    9  O   UNL     1     -10.772  10.850  69.284  1.00  0.00    -0.214 OA 
HETATM   10  C   UNL     1     -10.771   8.097  69.289  1.00  0.00    -0.141 A  
HETATM   11  C   UNL     1      -9.403   8.994  65.906  1.00  0.00    -0.242 C  
HETATM   12  C   UNL     1     -10.925   6.714  69.175  1.00  0.00    -0.338 A  
HETATM   13  O   UNL     1      -9.028   8.409  64.893  1.00  0.00    -0.016 OA 
HETATM   14  C   UNL     1     -10.645   6.085  67.965  1.00  0.00    -0.330 A  
ENDROOT
BRANCH   4  15
HETATM   15  C   UNL     1      -9.967  12.654  67.337  1.00  0.00    -0.204 C  
HETATM   16  C   UNL     1     -12.103  14.146  66.855  1.00  0.00    -0.466 C  
HETATM   17  C   UNL     1     -11.343  13.206  67.808  1.00  0.00    -0.326 C  
HETATM   18  C   UNL     1     -10.210  14.235  65.297  1.00  0.00    -0.408 C  
HETATM   19  C   UNL     1      -9.276  13.513  66.251  1.00  0.00    -0.070 C  
HETATM   20  C   UNL     1     -11.214  15.114  66.054  1.00  0.00    -0.275 C  
BRANCH  20  21
HETATM   21  C   UNL     1     -10.541  16.256  66.823  1.00  0.00    -0.257 A  
HETATM   22  C   UNL     1      -9.197  18.332  68.189  1.00  0.00    -0.301 A  
HETATM   23  C   UNL     1      -9.509  16.992  66.208  1.00  0.00    -0.281 A  
HETATM   24  C   UNL     1      -8.838  18.016  66.885  1.00  0.00    -0.266 A  
HETATM   25  C   UNL     1     -10.229  17.641  68.813  1.00  0.00    -0.373 A  
HETATM   26 CL   UNL     1      -8.379  19.589  69.031  1.00  0.00    -0.317 Cl 
HETATM   27  C   UNL     1     -10.905  16.625  68.127  1.00  0.00    -0.348 A  
ENDBRANCH  20  21
ENDBRANCH   4  15
TORSDOF 2
ENDMDL
MODEL       59
REMARK 921   NORMALIZED FREE ENERGY PREDICTED BY IDOCK:   -5.18 KCAL/MOL
REMARK 922        TOTAL FREE ENERGY PREDICTED BY IDOCK:   -6.67 KCAL/MOL
REMARK 923 INTER-LIGAND FREE ENERGY PREDICTED BY IDOCK:   -5.97 KCAL/MOL
REMARK 924 INTRA-LIGAND FREE ENERGY PREDICTED BY IDOCK:   -0.70 KCAL/MOL
REMARK 927      BINDING AFFINITY PREDICTED BY RF-SCORE:    0.00 PKD
ROOT
HETATM    1  O   UNL     1      -9.341   3.653  70.348  1.00  0.00    -0.135 OA 
HETATM    2  C   UNL     1      -9.473   3.844  68.984  1.00  0.00    -0.170 C  
HETATM    3  H   UNL     1      -9.013   2.852  70.740  1.00  0.00     0.000 HD 
HETATM    4  C   UNL     1      -9.940   4.981  68.429  1.00  0.00    -0.202 C  
HETATM    5  C   UNL     1     -10.129   5.020  66.928  1.00  0.00    -0.228 C  
HETATM    6  C   UNL     1      -9.156   2.758  66.690  1.00  0.00    -0.153 A  
HETATM    7  C   UNL     1      -8.680   1.716  65.879  1.00  0.00    -0.116 A  
HETATM    8  C   UNL     1      -9.784   3.847  66.114  1.00  0.00    -0.173 A  
HETATM    9  O   UNL     1     -10.542   6.025  66.357  1.00  0.00    -0.176 OA 
HETATM   10  C   UNL     1     -10.028   3.864  64.732  1.00  0.00    -0.203 A  
HETATM   11  C   UNL     1      -9.009   2.685  68.152  1.00  0.00    -0.155 C  
HETATM   12  C   UNL     1      -9.580   2.816  63.926  1.00  0.00    -0.127 A  
HETATM   13  O   UNL     1      -8.518   1.679  68.658  1.00  0.00    -0.055 OA 
HETATM   14  C   UNL     1      -8.882   1.754  64.497  1.00  0.00    -0.106 A  
ENDROOT
BRANCH   4  15
HETATM   15  C   UNL     1     -10.212   6.350  69.093  1.00  0.00    -0.217 C  
HETATM   16  C   UNL     1      -9.283   7.325  71.374  1.00  0.00    -0.145 C  
HETATM   17  C   UNL     1      -9.081   7.086  69.867  1.00  0.00    -0.141 C  
HETATM   18  C   UNL     1     -11.588   6.492  71.285  1.00  0.00    -0.381 C  
HETATM   19  C   UNL     1     -11.602   6.431  69.767  1.00  0.00    -0.397 C  
HETATM   20  C   UNL     1     -10.727   7.656  71.790  1.00  0.00    -0.252 C  
BRANCH  20  21
HETATM   21  C   UNL     1     -11.283   9.025  71.386  1.00  0.00    -0.394 A  
HETATM   22  C   UNL     1     -12.197  11.591  70.634  1.00  0.00    -0.378 A  
HETATM   23  C   UNL     1     -10.591   9.801  70.435  1.00  0.00    -0.365 A  
HETATM   24  C   UNL     1     -11.039  11.075  70.066  1.00  0.00    -0.236 A  
HETATM   25  C   UNL     1     -12.913  10.839  71.556  1.00  0.00    -0.562 A  
HETATM   26 CL   UNL     1     -12.755  13.156  70.187  1.00  0.00    -0.037 Cl 
HETATM   27  C   UNL     1     -12.469   9.561  71.913  1.00  0.00    -0.465 A  
ENDBRANCH  20  21
ENDBRANCH   4  15
TORSDOF 2
ENDMDL
MODEL       60
REMARK 921   NORMALIZED FREE ENERGY PREDICTED BY IDOCK:   -5.16 KCAL/MOL
REMARK 922        TOTAL FREE ENERGY PREDICTED BY IDOCK:   -6.64 KCAL/MOL
REMARK 923 INTER-LIGAND FREE ENERGY PREDICTED BY IDOCK:   -5.75 KCAL/MOL
REMARK 924 INTRA-LIGAND FREE ENERGY PREDICTED BY IDOCK:   -0.89 KCAL/MOL
REMARK 927      BINDING AFFINITY PREDICTED BY RF-SCORE:    0.00 PKD
ROOT
HETATM    1  O   UNL     1      -8.504   9.608  65.438  1.00  0.00    -0.133 OA 
HETATM    2  C   UNL     1      -8.772   8.717  66.462  1.00  0.00    -0.126 C  
HETATM    3  H   UNL     1      -8.116   9.357  64.608  1.00  0.00     0.000 HD 
HETATM    4  C   UNL     1      -9.321   9.074  67.641  1.00  0.00    -0.154 C  
HETATM    5  C   UNL     1      -9.467   8.015  68.712  1.00  0.00    -0.147 C  
HETATM    6  C   UNL     1      -8.631   6.264  67.178  1.00  0.00    -0.107 A  
HETATM    7  C   UNL     1      -8.384   4.913  66.891  1.00  0.00    -0.106 A  
HETATM    8  C   UNL     1      -9.037   6.636  68.447  1.00  0.00    -0.124 A  
HETATM    9  O   UNL     1      -9.966   8.270  69.805  1.00  0.00    -0.185 OA 
HETATM   10  C   UNL     1      -9.110   5.676  69.467  1.00  0.00    -0.143 A  
HETATM   11  C   UNL     1      -8.438   7.290  66.140  1.00  0.00    -0.142 C  
HETATM   12  C   UNL     1      -8.837   4.335  69.191  1.00  0.00    -0.134 A  
HETATM   13  O   UNL     1      -8.005   6.957  65.040  1.00  0.00    -0.116 OA 
HETATM   14  C   UNL     1      -8.500   3.949  67.896  1.00  0.00    -0.105 A  
ENDROOT
BRANCH   4  15
HETATM   15  C   UNL     1      -9.962  10.419  68.050  1.00  0.00    -0.178 C  
HETATM   16  C   UNL     1     -11.176  12.228  66.543  1.00  0.00    -0.373 C  
HETATM   17  C   UNL     1     -11.257  10.918  67.347  1.00  0.00    -0.345 C  
HETATM   18  C   UNL     1      -8.888  12.659  67.313  1.00  0.00    -0.196 C  
HETATM   19  C   UNL     1      -8.920  11.528  68.326  1.00  0.00    -0.177 C  
HETATM   20  C   UNL     1     -10.269  13.309  67.156  1.00  0.00    -0.246 C  
BRANCH  20  21
HETATM   21  C   UNL     1     -10.752  13.995  68.437  1.00  0.00    -0.261 A  
HETATM   22  C   UNL     1     -11.529  15.274  70.834  1.00  0.00    -0.339 A  
HETATM   23  C   UNL     1     -10.010  15.069  68.971  1.00  0.00    -0.246 A  
HETATM   24  C   UNL     1     -10.390  15.699  70.161  1.00  0.00    -0.268 A  
HETATM   25  C   UNL     1     -12.294  14.235  70.319  1.00  0.00    -0.418 A  
HETATM   26 CL   UNL     1     -12.004  16.042  72.298  1.00  0.00    -0.586 Cl 
HETATM   27  C   UNL     1     -11.917  13.615  69.122  1.00  0.00    -0.394 A  
ENDBRANCH  20  21
ENDBRANCH   4  15
TORSDOF 2
ENDMDL
MODEL       61
REMARK 921   NORMALIZED FREE ENERGY PREDICTED BY IDOCK:   -5.13 KCAL/MOL
REMARK 922        TOTAL FREE ENERGY PREDICTED BY IDOCK:   -6.61 KCAL/MOL
REMARK 923 INTER-LIGAND FREE ENERGY PREDICTED BY IDOCK:   -5.99 KCAL/MOL
REMARK 924 INTRA-LIGAND FREE ENERGY PREDICTED BY IDOCK:   -0.62 KCAL/MOL
REMARK 927      BINDING AFFINITY PREDICTED BY RF-SCORE:    0.00 PKD
ROOT
HETATM    1  O   UNL     1     -11.003   7.882  67.229  1.00  0.00    -0.518 OA 
HETATM    2  C   UNL     1     -10.348   7.672  68.430  1.00  0.00    -0.194 C  
HETATM    3  H   UNL     1     -11.386   7.186  66.708  1.00  0.00     0.000 HD 
HETATM    4  C   UNL     1      -9.804   8.661  69.169  1.00  0.00    -0.185 C  
HETATM    5  C   UNL     1      -9.028   8.281  70.411  1.00  0.00    -0.146 C  
HETATM    6  C   UNL     1      -9.607   5.895  70.114  1.00  0.00    -0.198 A  
HETATM    7  C   UNL     1      -9.614   4.574  70.591  1.00  0.00    -0.260 A  
HETATM    8  C   UNL     1      -8.903   6.869  70.797  1.00  0.00    -0.150 A  
HETATM    9  O   UNL     1      -8.514   9.131  71.133  1.00  0.00    -0.239 OA 
HETATM   10  C   UNL     1      -8.123   6.519  71.910  1.00  0.00    -0.104 A  
HETATM   11  C   UNL     1     -10.326   6.240  68.877  1.00  0.00    -0.204 C  
HETATM   12  C   UNL     1      -8.107   5.201  72.370  1.00  0.00    -0.110 A  
HETATM   13  O   UNL     1     -10.884   5.352  68.238  1.00  0.00    -0.090 OA 
HETATM   14  C   UNL     1      -8.875   4.234  71.726  1.00  0.00    -0.143 A  
ENDROOT
BRANCH   4  15
HETATM   15  C   UNL     1      -9.953  10.190  69.011  1.00  0.00    -0.216 C  
HETATM   16  C   UNL     1     -12.150  11.648  68.760  1.00  0.00    -0.221 C  
HETATM   17  C   UNL     1     -11.142  10.938  69.680  1.00  0.00    -0.328 C  
HETATM   18  C   UNL     1     -10.784  11.201  66.773  1.00  0.00    -0.326 C  
HETATM   19  C   UNL     1      -9.608  10.689  67.588  1.00  0.00    -0.178 C  
HETATM   20  C   UNL     1     -11.537  12.313  67.516  1.00  0.00    -0.422 C  
BRANCH  20  21
HETATM   21  C   UNL     1     -10.683  13.566  67.732  1.00  0.00    -0.262 A  
HETATM   22  C   UNL     1      -9.195  15.922  68.201  1.00  0.00    -0.190 A  
HETATM   23  C   UNL     1     -10.678  14.193  68.994  1.00  0.00    -0.249 A  
HETATM   24  C   UNL     1      -9.947  15.363  69.226  1.00  0.00    -0.256 A  
HETATM   25  C   UNL     1      -9.160  15.312  66.953  1.00  0.00    -0.263 A  
HETATM   26 CL   UNL     1      -8.292  17.360  68.476  1.00  0.00    -0.266 Cl 
HETATM   27  C   UNL     1      -9.883  14.136  66.728  1.00  0.00    -0.275 A  
ENDBRANCH  20  21
ENDBRANCH   4  15
TORSDOF 2
ENDMDL
MODEL       62
REMARK 921   NORMALIZED FREE ENERGY PREDICTED BY IDOCK:   -5.12 KCAL/MOL
REMARK 922        TOTAL FREE ENERGY PREDICTED BY IDOCK:   -6.59 KCAL/MOL
REMARK 923 INTER-LIGAND FREE ENERGY PREDICTED BY IDOCK:   -6.37 KCAL/MOL
REMARK 924 INTRA-LIGAND FREE ENERGY PREDICTED BY IDOCK:   -0.23 KCAL/MOL
REMARK 927      BINDING AFFINITY PREDICTED BY RF-SCORE:    0.00 PKD
ROOT
HETATM    1  O   UNL     1     -11.804  13.210  70.621  1.00  0.00    -0.524 OA 
HETATM    2  C   UNL     1     -11.244  13.685  69.449  1.00  0.00    -0.196 C  
HETATM    3  H   UNL     1     -12.236  13.762  71.262  1.00  0.00     0.000 HD 
HETATM    4  C   UNL     1     -10.631  12.900  68.540  1.00  0.00    -0.270 C  
HETATM    5  C   UNL     1      -9.973  13.563  67.349  1.00  0.00    -0.234 C  
HETATM    6  C   UNL     1     -10.807  15.783  68.052  1.00  0.00    -0.309 A  
HETATM    7  C   UNL     1     -10.993  17.151  67.797  1.00  0.00    -0.180 A  
HETATM    8  C   UNL     1     -10.033  15.022  67.194  1.00  0.00    -0.237 A  
HETATM    9  O   UNL     1      -9.404  12.907  66.480  1.00  0.00    -0.246 OA 
HETATM   10  C   UNL     1      -9.361  15.637  66.127  1.00  0.00    -0.382 A  
HETATM   11  C   UNL     1     -11.412  15.161  69.240  1.00  0.00    -0.311 C  
HETATM   12  C   UNL     1      -9.523  17.003  65.887  1.00  0.00    -0.116 A  
HETATM   13  O   UNL     1     -12.034  15.862  70.035  1.00  0.00    -0.342 OA 
HETATM   14  C   UNL     1     -10.361  17.755  66.707  1.00  0.00    -0.343 A  
ENDROOT
BRANCH   4  15
HETATM   15  C   UNL     1     -10.592  11.358  68.451  1.00  0.00    -0.230 C  
HETATM   16  C   UNL     1     -11.262   9.554  70.271  1.00  0.00    -0.307 C  
HETATM   17  C   UNL     1     -11.694  10.503  69.140  1.00  0.00    -0.261 C  
HETATM   18  C   UNL     1      -8.887  10.008  69.862  1.00  0.00    -0.177 C  
HETATM   19  C   UNL     1      -9.163  10.779  68.583  1.00  0.00    -0.184 C  
HETATM   20  C   UNL     1      -9.899   8.872  70.060  1.00  0.00    -0.188 C  
BRANCH  20  21
HETATM   21  C   UNL     1      -9.806   7.798  68.973  1.00  0.00    -0.169 A  
HETATM   22  C   UNL     1      -9.556   5.884  66.909  1.00  0.00    -0.142 A  
HETATM   23  C   UNL     1      -8.566   7.544  68.352  1.00  0.00    -0.124 A  
HETATM   24  C   UNL     1      -8.442   6.602  67.325  1.00  0.00    -0.120 A  
HETATM   25  C   UNL     1     -10.786   6.094  67.520  1.00  0.00    -0.422 A  
HETATM   26 CL   UNL     1      -9.414   4.723  65.647  1.00  0.00    -0.164 Cl 
HETATM   27  C   UNL     1     -10.904   7.029  68.554  1.00  0.00    -0.187 A  
ENDBRANCH  20  21
ENDBRANCH   4  15
TORSDOF 2
ENDMDL
MODEL       63
REMARK 921   NORMALIZED FREE ENERGY PREDICTED BY IDOCK:   -5.10 KCAL/MOL
REMARK 922        TOTAL FREE ENERGY PREDICTED BY IDOCK:   -6.57 KCAL/MOL
REMARK 923 INTER-LIGAND FREE ENERGY PREDICTED BY IDOCK:   -5.67 KCAL/MOL
REMARK 924 INTRA-LIGAND FREE ENERGY PREDICTED BY IDOCK:   -0.91 KCAL/MOL
REMARK 927      BINDING AFFINITY PREDICTED BY RF-SCORE:    0.00 PKD
ROOT
HETATM    1  O   UNL     1     -12.152  10.857  67.632  1.00  0.00    -0.502 OA 
HETATM    2  C   UNL     1     -11.050  11.691  67.571  1.00  0.00    -0.276 C  
HETATM    3  H   UNL     1     -12.993  11.064  67.241  1.00  0.00     0.000 HD 
HETATM    4  C   UNL     1      -9.856  11.397  68.126  1.00  0.00    -0.195 C  
HETATM    5  C   UNL     1      -8.765  12.443  68.072  1.00  0.00    -0.186 C  
HETATM    6  C   UNL     1     -10.185  13.938  66.707  1.00  0.00    -0.268 A  
HETATM    7  C   UNL     1     -10.341  15.102  65.937  1.00  0.00    -0.344 A  
HETATM    8  C   UNL     1      -9.011  13.729  67.408  1.00  0.00    -0.224 A  
HETATM    9  O   UNL     1      -7.652  12.238  68.551  1.00  0.00    -0.116 OA 
HETATM   10  C   UNL     1      -8.020  14.722  67.423  1.00  0.00    -0.220 A  
HETATM   11  C   UNL     1     -11.274  12.952  66.789  1.00  0.00    -0.298 C  
HETATM   12  C   UNL     1      -8.184  15.892  66.680  1.00  0.00    -0.317 A  
HETATM   13  O   UNL     1     -12.340  13.184  66.225  1.00  0.00    -0.389 OA 
HETATM   14  C   UNL     1      -9.335  16.070  65.915  1.00  0.00    -0.335 A  
ENDROOT
BRANCH   4  15
HETATM   15  C   UNL     1      -9.364  10.062  68.729  1.00  0.00    -0.162 C  
HETATM   16  C   UNL     1     -10.172   7.591  68.222  1.00  0.00    -0.218 C  
HETATM   17  C   UNL     1      -9.278   8.785  67.844  1.00  0.00    -0.149 C  
HETATM   18  C   UNL     1     -10.906   8.683  70.291  1.00  0.00    -0.250 C  
HETATM   19  C   UNL     1      -9.896   9.810  70.159  1.00  0.00    -0.306 C  
HETATM   20  C   UNL     1     -10.351   7.366  69.734  1.00  0.00    -0.226 C  
BRANCH  20  21
HETATM   21  C   UNL     1      -9.141   6.851  70.520  1.00  0.00    -0.156 A  
HETATM   22  C   UNL     1      -6.948   5.964  72.065  1.00  0.00    -0.078 A  
HETATM   23  C   UNL     1      -9.281   6.554  71.891  1.00  0.00    -0.148 A  
HETATM   24  C   UNL     1      -8.194   6.121  72.659  1.00  0.00    -0.107 A  
HETATM   25  C   UNL     1      -6.786   6.225  70.710  1.00  0.00    -0.063 A  
HETATM   26 CL   UNL     1      -5.606   5.431  73.001  1.00  0.00    -0.022 Cl 
HETATM   27  C   UNL     1      -7.878   6.647  69.943  1.00  0.00    -0.115 A  
ENDBRANCH  20  21
ENDBRANCH   4  15
TORSDOF 2
ENDMDL
MODEL       64
REMARK 921   NORMALIZED FREE ENERGY PREDICTED BY IDOCK:   -4.97 KCAL/MOL
REMARK 922        TOTAL FREE ENERGY PREDICTED BY IDOCK:   -6.43 KCAL/MOL
REMARK 923 INTER-LIGAND FREE ENERGY PREDICTED BY IDOCK:   -6.23 KCAL/MOL
REMARK 924 INTRA-LIGAND FREE ENERGY PREDICTED BY IDOCK:   -0.20 KCAL/MOL
REMARK 927      BINDING AFFINITY PREDICTED BY RF-SCORE:    0.00 PKD
ROOT
HETATM    1  O   UNL     1     -11.514  13.292  70.443  1.00  0.00    -0.516 OA 
HETATM    2  C   UNL     1     -10.916  13.917  69.363  1.00  0.00    -0.126 C  
HETATM    3  H   UNL     1     -12.090  13.734  71.055  1.00  0.00     0.000 HD 
HETATM    4  C   UNL     1     -10.097  13.289  68.494  1.00  0.00    -0.208 C  
HETATM    5  C   UNL     1      -9.430  14.115  67.416  1.00  0.00    -0.220 C  
HETATM    6  C   UNL     1     -10.666  16.139  68.119  1.00  0.00    -0.315 A  
HETATM    7  C   UNL     1     -11.035  17.476  67.907  1.00  0.00    -0.133 A  
HETATM    8  C   UNL     1      -9.699  15.556  67.320  1.00  0.00    -0.218 A  
HETATM    9  O   UNL     1      -8.679  13.607  66.587  1.00  0.00    -0.137 OA 
HETATM   10  C   UNL     1      -9.024  16.329  66.364  1.00  0.00    -0.343 A  
HETATM   11  C   UNL     1     -11.288  15.362  69.203  1.00  0.00    -0.315 C  
HETATM   12  C   UNL     1      -9.370  17.667  66.169  1.00  0.00    -0.159 A  
HETATM   13  O   UNL     1     -12.090  15.911  69.954  1.00  0.00    -0.326 OA 
HETATM   14  C   UNL     1     -10.395  18.233  66.923  1.00  0.00    -0.404 A  
ENDROOT
BRANCH   4  15
HETATM   15  C   UNL     1      -9.811  11.779  68.341  1.00  0.00    -0.199 C  
HETATM   16  C   UNL     1      -8.046  10.552  66.793  1.00  0.00    -0.123 C  
HETATM   17  C   UNL     1      -8.357  11.273  68.116  1.00  0.00    -0.143 C  
HETATM   18  C   UNL     1     -10.410  10.548  66.140  1.00  0.00    -0.276 C  
HETATM   19  C   UNL     1     -10.878  11.042  67.498  1.00  0.00    -0.314 C  
HETATM   20  C   UNL     1      -9.175   9.647  66.267  1.00  0.00    -0.213 C  
BRANCH  20  21
HETATM   21  C   UNL     1      -9.460   8.353  67.035  1.00  0.00    -0.225 A  
HETATM   22  C   UNL     1      -9.870   5.938  68.444  1.00  0.00    -0.134 A  
HETATM   23  C   UNL     1      -8.516   7.877  67.966  1.00  0.00    -0.123 A  
HETATM   24  C   UNL     1      -8.714   6.678  68.660  1.00  0.00    -0.124 A  
HETATM   25  C   UNL     1     -10.831   6.396  67.550  1.00  0.00    -0.438 A  
HETATM   26 CL   UNL     1     -10.123   4.463  69.292  1.00  0.00    -0.138 Cl 
HETATM   27  C   UNL     1     -10.634   7.601  66.867  1.00  0.00    -0.359 A  
ENDBRANCH  20  21
ENDBRANCH   4  15
TORSDOF 2
ENDMDL
MODEL       65
REMARK 921   NORMALIZED FREE ENERGY PREDICTED BY IDOCK:   -4.97 KCAL/MOL
REMARK 922        TOTAL FREE ENERGY PREDICTED BY IDOCK:   -6.43 KCAL/MOL
REMARK 923 INTER-LIGAND FREE ENERGY PREDICTED BY IDOCK:   -5.56 KCAL/MOL
REMARK 924 INTRA-LIGAND FREE ENERGY PREDICTED BY IDOCK:   -0.87 KCAL/MOL
REMARK 927      BINDING AFFINITY PREDICTED BY RF-SCORE:    0.00 PKD
ROOT
HETATM    1  O   UNL     1      -8.565   6.756  68.212  1.00  0.00    -0.124 OA 
HETATM    2  C   UNL     1      -9.189   6.655  69.442  1.00  0.00    -0.142 C  
HETATM    3  H   UNL     1      -8.189   6.017  67.748  1.00  0.00     0.000 HD 
HETATM    4  C   UNL     1      -9.722   7.705  70.100  1.00  0.00    -0.179 C  
HETATM    5  C   UNL     1     -10.286   7.470  71.484  1.00  0.00    -0.188 C  
HETATM    6  C   UNL     1      -9.863   5.040  71.308  1.00  0.00    -0.246 A  
HETATM    7  C   UNL     1     -10.005   3.739  71.816  1.00  0.00    -0.227 A  
HETATM    8  C   UNL     1     -10.265   6.123  72.068  1.00  0.00    -0.223 A  
HETATM    9  O   UNL     1     -10.793   8.380  72.135  1.00  0.00    -0.288 OA 
HETATM   10  C   UNL     1     -10.725   5.925  73.379  1.00  0.00    -0.293 A  
HETATM   11  C   UNL     1      -9.268   5.256  69.980  1.00  0.00    -0.138 C  
HETATM   12  C   UNL     1     -10.840   4.634  73.897  1.00  0.00    -0.359 A  
HETATM   13  O   UNL     1      -8.845   4.293  69.346  1.00  0.00    -0.083 OA 
HETATM   14  C   UNL     1     -10.505   3.539  73.104  1.00  0.00    -0.258 A  
ENDROOT
BRANCH   4  15
HETATM   15  C   UNL     1      -9.969   9.146  69.599  1.00  0.00    -0.198 C  
HETATM   16  C   UNL     1     -10.466  10.009  67.145  1.00  0.00    -0.305 C  
HETATM   17  C   UNL     1     -10.996   9.418  68.463  1.00  0.00    -0.076 C  
HETATM   18  C   UNL     1      -8.224  10.323  68.087  1.00  0.00    -0.114 C  
HETATM   19  C   UNL     1      -8.672   9.982  69.498  1.00  0.00    -0.205 C  
HETATM   20  C   UNL     1      -9.333  11.038  67.305  1.00  0.00    -0.167 C  
BRANCH  20  21
HETATM   21  C   UNL     1      -9.695  12.402  67.900  1.00  0.00    -0.204 A  
HETATM   22  C   UNL     1     -10.461  14.919  68.931  1.00  0.00    -0.242 A  
HETATM   23  C   UNL     1     -11.045  12.707  68.164  1.00  0.00    -0.285 A  
HETATM   24  C   UNL     1     -11.427  13.956  68.668  1.00  0.00    -0.333 A  
HETATM   25  C   UNL     1      -9.119  14.637  68.705  1.00  0.00    -0.189 A  
HETATM   26 CL   UNL     1     -10.921  16.456  69.551  1.00  0.00    -0.323 Cl 
HETATM   27  C   UNL     1      -8.741  13.384  68.211  1.00  0.00    -0.172 A  
ENDBRANCH  20  21
ENDBRANCH   4  15
TORSDOF 2
ENDMDL
MODEL       66
REMARK 921   NORMALIZED FREE ENERGY PREDICTED BY IDOCK:   -4.93 KCAL/MOL
REMARK 922        TOTAL FREE ENERGY PREDICTED BY IDOCK:   -6.38 KCAL/MOL
REMARK 923 INTER-LIGAND FREE ENERGY PREDICTED BY IDOCK:   -5.64 KCAL/MOL
REMARK 924 INTRA-LIGAND FREE ENERGY PREDICTED BY IDOCK:   -0.75 KCAL/MOL
REMARK 927      BINDING AFFINITY PREDICTED BY RF-SCORE:    0.00 PKD
ROOT
HETATM    1  O   UNL     1      -9.314  10.493  67.192  1.00  0.00    -0.153 OA 
HETATM    2  C   UNL     1     -10.092  10.926  68.251  1.00  0.00    -0.174 C  
HETATM    3  H   UNL     1      -9.062  11.046  66.462  1.00  0.00     0.000 HD 
HETATM    4  C   UNL     1     -10.450  10.140  69.288  1.00  0.00    -0.246 C  
HETATM    5  C   UNL     1     -11.388  10.712  70.328  1.00  0.00    -0.319 C  
HETATM    6  C   UNL     1     -11.354  12.926  69.227  1.00  0.00    -0.303 A  
HETATM    7  C   UNL     1     -11.688  14.290  69.221  1.00  0.00    -0.363 A  
HETATM    8  C   UNL     1     -11.865  12.096  70.207  1.00  0.00    -0.339 A  
HETATM    9  O   UNL     1     -11.747  10.054  71.301  1.00  0.00    -0.361 OA 
HETATM   10  C   UNL     1     -12.789  12.597  71.136  1.00  0.00    -0.311 A  
HETATM   11  C   UNL     1     -10.479  12.374  68.180  1.00  0.00    -0.219 C  
HETATM   12  C   UNL     1     -13.145  13.947  71.116  1.00  0.00    -0.351 A  
HETATM   13  O   UNL     1     -10.093  13.104  67.272  1.00  0.00    -0.229 OA 
HETATM   14  C   UNL     1     -12.573  14.799  70.175  1.00  0.00    -0.319 A  
ENDROOT
BRANCH   4  15
HETATM   15  C   UNL     1      -9.941   8.731  69.664  1.00  0.00    -0.191 C  
HETATM   16  C   UNL     1      -7.579   7.622  69.209  1.00  0.00    -0.096 C  
HETATM   17  C   UNL     1      -8.461   8.519  70.094  1.00  0.00    -0.126 C  
HETATM   18  C   UNL     1      -9.490   6.966  67.819  1.00  0.00    -0.128 C  
HETATM   19  C   UNL     1     -10.501   7.619  68.746  1.00  0.00    -0.208 C  
HETATM   20  C   UNL     1      -8.297   6.403  68.601  1.00  0.00    -0.121 C  
BRANCH  20  21
HETATM   21  C   UNL     1      -8.691   5.268  69.551  1.00  0.00    -0.114 A  
HETATM   22  C   UNL     1      -9.327   3.206  71.374  1.00  0.00    -0.137 A  
HETATM   23  C   UNL     1      -8.578   5.458  70.943  1.00  0.00    -0.129 A  
HETATM   24  C   UNL     1      -8.887   4.435  71.847  1.00  0.00    -0.139 A  
HETATM   25  C   UNL     1      -9.472   2.998  70.008  1.00  0.00    -0.195 A  
HETATM   26 CL   UNL     1      -9.710   1.943  72.478  1.00  0.00    -0.153 Cl 
HETATM   27  C   UNL     1      -9.174   4.027  69.108  1.00  0.00    -0.217 A  
ENDBRANCH  20  21
ENDBRANCH   4  15
TORSDOF 2
ENDMDL
MODEL       67
REMARK 921   NORMALIZED FREE ENERGY PREDICTED BY IDOCK:   -4.92 KCAL/MOL
REMARK 922        TOTAL FREE ENERGY PREDICTED BY IDOCK:   -6.38 KCAL/MOL
REMARK 923 INTER-LIGAND FREE ENERGY PREDICTED BY IDOCK:   -6.29 KCAL/MOL
REMARK 924 INTRA-LIGAND FREE ENERGY PREDICTED BY IDOCK:   -0.09 KCAL/MOL
REMARK 927      BINDING AFFINITY PREDICTED BY RF-SCORE:    0.00 PKD
ROOT
HETATM    1  O   UNL     1      -9.864   6.002  67.871  1.00  0.00    -0.112 OA 
HETATM    2  C   UNL     1      -9.928   6.497  69.161  1.00  0.00    -0.146 C  
HETATM    3  H   UNL     1      -9.890   5.076  67.659  1.00  0.00     0.000 HD 
HETATM    4  C   UNL     1      -9.890   7.812  69.461  1.00  0.00    -0.179 C  
HETATM    5  C   UNL     1      -9.866   8.212  70.920  1.00  0.00    -0.176 C  
HETATM    6  C   UNL     1     -10.113   5.856  71.631  1.00  0.00    -0.233 A  
HETATM    7  C   UNL     1     -10.320   4.904  72.641  1.00  0.00    -0.250 A  
HETATM    8  C   UNL     1      -9.909   7.182  71.966  1.00  0.00    -0.174 A  
HETATM    9  O   UNL     1      -9.840   9.391  71.263  1.00  0.00    -0.275 OA 
HETATM   10  C   UNL     1      -9.816   7.556  73.315  1.00  0.00    -0.343 A  
HETATM   11  C   UNL     1     -10.090   5.445  70.218  1.00  0.00    -0.248 C  
HETATM   12  C   UNL     1      -9.994   6.606  74.322  1.00  0.00    -0.372 A  
HETATM   13  O   UNL     1     -10.196   4.254  69.936  1.00  0.00    -0.103 OA 
HETATM   14  C   UNL     1     -10.273   5.284  73.984  1.00  0.00    -0.273 A  
ENDROOT
BRANCH   4  15
HETATM   15  C   UNL     1      -9.991   9.031  68.516  1.00  0.00    -0.193 C  
HETATM   16  C   UNL     1      -8.704  11.344  68.616  1.00  0.00    -0.121 C  
HETATM   17  C   UNL     1      -8.725   9.869  68.178  1.00  0.00    -0.122 C  
HETATM   18  C   UNL     1     -11.043  11.248  69.349  1.00  0.00    -0.316 C  
HETATM   19  C   UNL     1     -11.268   9.872  68.747  1.00  0.00    -0.122 C  
HETATM   20  C   UNL     1     -10.056  12.071  68.510  1.00  0.00    -0.201 C  
BRANCH  20  21
HETATM   21  C   UNL     1     -10.585  12.381  67.106  1.00  0.00    -0.247 A  
HETATM   22  C   UNL     1     -11.663  12.901  64.546  1.00  0.00    -0.365 A  
HETATM   23  C   UNL     1     -11.933  12.754  66.939  1.00  0.00    -0.380 A  
HETATM   24  C   UNL     1     -12.470  13.006  65.671  1.00  0.00    -0.452 A  
HETATM   25  C   UNL     1     -10.323  12.559  64.682  1.00  0.00    -0.341 A  
HETATM   26 CL   UNL     1     -12.314  13.209  62.984  1.00  0.00    -0.276 Cl 
HETATM   27  C   UNL     1      -9.787  12.320  65.952  1.00  0.00    -0.266 A  
ENDBRANCH  20  21
ENDBRANCH   4  15
TORSDOF 2
ENDMDL
MODEL       68
REMARK 921   NORMALIZED FREE ENERGY PREDICTED BY IDOCK:   -4.92 KCAL/MOL
REMARK 922        TOTAL FREE ENERGY PREDICTED BY IDOCK:   -6.37 KCAL/MOL
REMARK 923 INTER-LIGAND FREE ENERGY PREDICTED BY IDOCK:   -5.59 KCAL/MOL
REMARK 924 INTRA-LIGAND FREE ENERGY PREDICTED BY IDOCK:   -0.78 KCAL/MOL
REMARK 927      BINDING AFFINITY PREDICTED BY RF-SCORE:    0.00 PKD
ROOT
HETATM    1  O   UNL     1     -10.946   9.657  71.654  1.00  0.00    -0.322 OA 
HETATM    2  C   UNL     1     -10.886  10.053  70.330  1.00  0.00    -0.313 C  
HETATM    3  H   UNL     1     -11.310  10.192  72.349  1.00  0.00     0.000 HD 
HETATM    4  C   UNL     1     -10.369   9.293  69.343  1.00  0.00    -0.223 C  
HETATM    5  C   UNL     1     -10.272   9.890  67.956  1.00  0.00    -0.182 C  
HETATM    6  C   UNL     1     -11.430  11.946  68.696  1.00  0.00    -0.350 A  
HETATM    7  C   UNL     1     -12.035  13.177  68.400  1.00  0.00    -0.324 A  
HETATM    8  C   UNL     1     -10.757  11.253  67.706  1.00  0.00    -0.265 A  
HETATM    9  O   UNL     1      -9.819   9.250  67.010  1.00  0.00    -0.171 OA 
HETATM   10  C   UNL     1     -10.601  11.827  66.435  1.00  0.00    -0.293 A  
HETATM   11  C   UNL     1     -11.490  11.401  70.062  1.00  0.00    -0.247 C  
HETATM   12  C   UNL     1     -11.178  13.064  66.145  1.00  0.00    -0.320 A  
HETATM   13  O   UNL     1     -12.024  12.060  70.950  1.00  0.00    -0.226 OA 
HETATM   14  C   UNL     1     -11.919  13.727  67.121  1.00  0.00    -0.442 A  
ENDROOT
BRANCH   4  15
HETATM   15  C   UNL     1      -9.950   7.806  69.375  1.00  0.00    -0.188 C  
HETATM   16  C   UNL     1     -10.858   5.839  70.900  1.00  0.00    -0.326 C  
HETATM   17  C   UNL     1     -11.011   6.697  69.631  1.00  0.00    -0.367 C  
HETATM   18  C   UNL     1      -8.684   6.847  71.424  1.00  0.00    -0.126 C  
HETATM   19  C   UNL     1      -8.600   7.572  70.092  1.00  0.00    -0.141 C  
HETATM   20  C   UNL     1      -9.407   5.500  71.283  1.00  0.00    -0.176 C  
BRANCH  20  21
HETATM   21  C   UNL     1      -8.652   4.512  70.389  1.00  0.00    -0.104 A  
HETATM   22  C   UNL     1      -7.363   2.637  68.713  1.00  0.00    -0.048 A  
HETATM   23  C   UNL     1      -9.237   4.082  69.181  1.00  0.00    -0.217 A  
HETATM   24  C   UNL     1      -8.603   3.148  68.354  1.00  0.00    -0.119 A  
HETATM   25  C   UNL     1      -6.749   3.061  69.886  1.00  0.00    -0.034 A  
HETATM   26 CL   UNL     1      -6.575   1.489  67.702  1.00  0.00    -0.028 Cl 
HETATM   27  C   UNL     1      -7.382   4.004  70.704  1.00  0.00    -0.041 A  
ENDBRANCH  20  21
ENDBRANCH   4  15
TORSDOF 2
ENDMDL
MODEL       69
REMARK 921   NORMALIZED FREE ENERGY PREDICTED BY IDOCK:   -4.91 KCAL/MOL
REMARK 922        TOTAL FREE ENERGY PREDICTED BY IDOCK:   -6.36 KCAL/MOL
REMARK 923 INTER-LIGAND FREE ENERGY PREDICTED BY IDOCK:   -6.55 KCAL/MOL
REMARK 924 INTRA-LIGAND FREE ENERGY PREDICTED BY IDOCK:    0.19 KCAL/MOL
REMARK 927      BINDING AFFINITY PREDICTED BY RF-SCORE:    0.00 PKD
ROOT
HETATM    1  O   UNL     1     -12.743   7.012  70.318  1.00  0.00    -0.525 OA 
HETATM    2  C   UNL     1     -11.421   6.641  70.491  1.00  0.00    -0.376 C  
HETATM    3  H   UNL     1     -13.429   6.830  70.950  1.00  0.00     0.000 HD 
HETATM    4  C   UNL     1     -10.447   6.898  69.594  1.00  0.00    -0.240 C  
HETATM    5  C   UNL     1      -9.064   6.347  69.861  1.00  0.00    -0.142 C  
HETATM    6  C   UNL     1      -9.776   5.467  72.060  1.00  0.00    -0.198 A  
HETATM    7  C   UNL     1      -9.465   4.872  73.293  1.00  0.00    -0.134 A  
HETATM    8  C   UNL     1      -8.803   5.575  71.083  1.00  0.00    -0.142 A  
HETATM    9  O   UNL     1      -8.130   6.551  69.090  1.00  0.00    -0.109 OA 
HETATM   10  C   UNL     1      -7.537   5.007  71.291  1.00  0.00    -0.090 A  
HETATM   11  C   UNL     1     -11.139   5.955  71.795  1.00  0.00    -0.265 C  
HETATM   12  C   UNL     1      -7.234   4.390  72.505  1.00  0.00    -0.071 A  
HETATM   13  O   UNL     1     -12.013   5.785  72.641  1.00  0.00    -0.250 OA 
HETATM   14  C   UNL     1      -8.190   4.347  73.517  1.00  0.00    -0.094 A  
ENDROOT
BRANCH   4  15
HETATM   15  C   UNL     1     -10.489   7.805  68.343  1.00  0.00    -0.207 C  
HETATM   16  C   UNL     1      -9.085   7.644  66.104  1.00  0.00    -0.189 C  
HETATM   17  C   UNL     1     -10.307   7.195  66.924  1.00  0.00    -0.349 C  
HETATM   18  C   UNL     1      -8.480   9.339  67.770  1.00  0.00    -0.116 C  
HETATM   19  C   UNL     1      -9.770   9.159  68.551  1.00  0.00    -0.166 C  
HETATM   20  C   UNL     1      -8.702   9.125  66.267  1.00  0.00    -0.159 C  
BRANCH  20  21
HETATM   21  C   UNL     1      -9.638  10.170  65.651  1.00  0.00    -0.302 A  
HETATM   22  C   UNL     1     -11.284  12.114  64.428  1.00  0.00    -0.341 A  
HETATM   23  C   UNL     1      -9.724  10.283  64.249  1.00  0.00    -0.373 A  
HETATM   24  C   UNL     1     -10.534  11.249  63.642  1.00  0.00    -0.464 A  
HETATM   25  C   UNL     1     -11.239  12.010  65.813  1.00  0.00    -0.383 A  
HETATM   26 CL   UNL     1     -12.282  13.306  63.691  1.00  0.00    -0.550 Cl 
HETATM   27  C   UNL     1     -10.437  11.034  66.415  1.00  0.00    -0.312 A  
ENDBRANCH  20  21
ENDBRANCH   4  15
TORSDOF 2
ENDMDL
MODEL       70
REMARK 921   NORMALIZED FREE ENERGY PREDICTED BY IDOCK:   -4.91 KCAL/MOL
REMARK 922        TOTAL FREE ENERGY PREDICTED BY IDOCK:   -6.36 KCAL/MOL
REMARK 923 INTER-LIGAND FREE ENERGY PREDICTED BY IDOCK:   -6.15 KCAL/MOL
REMARK 924 INTRA-LIGAND FREE ENERGY PREDICTED BY IDOCK:   -0.21 KCAL/MOL
REMARK 927      BINDING AFFINITY PREDICTED BY RF-SCORE:    0.00 PKD
ROOT
HETATM    1  O   UNL     1     -10.797  11.648  66.862  1.00  0.00    -0.250 OA 
HETATM    2  C   UNL     1     -11.249  11.744  68.166  1.00  0.00    -0.260 C  
HETATM    3  H   UNL     1     -10.866  12.350  66.226  1.00  0.00     0.000 HD 
HETATM    4  C   UNL     1     -11.150  10.747  69.068  1.00  0.00    -0.308 C  
HETATM    5  C   UNL     1     -11.777  10.949  70.430  1.00  0.00    -0.350 C  
HETATM    6  C   UNL     1     -12.393  13.277  69.865  1.00  0.00    -0.228 A  
HETATM    7  C   UNL     1     -12.893  14.532  70.247  1.00  0.00    -0.249 A  
HETATM    8  C   UNL     1     -12.450  12.215  70.749  1.00  0.00    -0.362 A  
HETATM    9  O   UNL     1     -11.718  10.085  71.301  1.00  0.00    -0.361 OA 
HETATM   10  C   UNL     1     -13.091  12.370  71.987  1.00  0.00    -0.470 A  
HETATM   11  C   UNL     1     -11.830  13.082  68.519  1.00  0.00    -0.325 C  
HETATM   12  C   UNL     1     -13.613  13.610  72.359  1.00  0.00    -0.703 A  
HETATM   13  O   UNL     1     -11.854  14.011  67.716  1.00  0.00    -0.349 OA 
HETATM   14  C   UNL     1     -13.490  14.699  71.498  1.00  0.00    -0.464 A  
ENDROOT
BRANCH   4  15
HETATM   15  C   UNL     1     -10.363   9.420  68.973  1.00  0.00    -0.224 C  
HETATM   16  C   UNL     1     -10.413   7.318  70.583  1.00  0.00    -0.226 C  
HETATM   17  C   UNL     1     -11.029   8.080  69.396  1.00  0.00    -0.021 C  
HETATM   18  C   UNL     1      -8.515   8.867  70.704  1.00  0.00    -0.211 C  
HETATM   19  C   UNL     1      -8.884   9.561  69.404  1.00  0.00    -0.172 C  
HETATM   20  C   UNL     1      -8.877   7.377  70.665  1.00  0.00    -0.150 C  
BRANCH  20  21
HETATM   21  C   UNL     1      -8.082   6.600  69.611  1.00  0.00    -0.126 A  
HETATM   22  C   UNL     1      -6.658   5.065  67.714  1.00  0.00    -0.050 A  
HETATM   23  C   UNL     1      -8.634   5.432  69.049  1.00  0.00    -0.102 A  
HETATM   24  C   UNL     1      -7.928   4.667  68.114  1.00  0.00    -0.084 A  
HETATM   25  C   UNL     1      -6.099   6.226  68.233  1.00  0.00    -0.027 A  
HETATM   26 CL   UNL     1      -5.782   4.132  66.565  1.00  0.00    -0.018 Cl 
HETATM   27  C   UNL     1      -6.814   6.994  69.159  1.00  0.00    -0.061 A  
ENDBRANCH  20  21
ENDBRANCH   4  15
TORSDOF 2
ENDMDL
MODEL       71
REMARK 921   NORMALIZED FREE ENERGY PREDICTED BY IDOCK:   -4.90 KCAL/MOL
REMARK 922        TOTAL FREE ENERGY PREDICTED BY IDOCK:   -6.35 KCAL/MOL
REMARK 923 INTER-LIGAND FREE ENERGY PREDICTED BY IDOCK:   -5.58 KCAL/MOL
REMARK 924 INTRA-LIGAND FREE ENERGY PREDICTED BY IDOCK:   -0.77 KCAL/MOL
REMARK 927      BINDING AFFINITY PREDICTED BY RF-SCORE:    0.00 PKD
ROOT
HETATM    1  O   UNL     1      -8.913   8.044  65.021  1.00  0.00    -0.386 OA 
HETATM    2  C   UNL     1      -9.202   7.395  66.208  1.00  0.00    -0.135 C  
HETATM    3  H   UNL     1      -8.648   7.598  64.225  1.00  0.00     0.000 HD 
HETATM    4  C   UNL     1      -9.577   8.029  67.337  1.00  0.00    -0.196 C  
HETATM    5  C   UNL     1      -9.765   7.205  68.592  1.00  0.00    -0.141 C  
HETATM    6  C   UNL     1      -9.338   5.109  67.350  1.00  0.00    -0.128 A  
HETATM    7  C   UNL     1      -9.312   3.707  67.300  1.00  0.00    -0.235 A  
HETATM    8  C   UNL     1      -9.562   5.751  68.555  1.00  0.00    -0.150 A  
HETATM    9  O   UNL     1     -10.113   7.718  69.653  1.00  0.00    -0.187 OA 
HETATM   10  C   UNL     1      -9.668   5.002  69.737  1.00  0.00    -0.266 A  
HETATM   11  C   UNL     1      -9.106   5.899  66.130  1.00  0.00    -0.150 C  
HETATM   12  C   UNL     1      -9.615   3.608  69.693  1.00  0.00    -0.211 A  
HETATM   13  O   UNL     1      -8.833   5.320  65.082  1.00  0.00    -0.154 OA 
HETATM   14  C   UNL     1      -9.464   2.959  68.470  1.00  0.00    -0.200 A  
ENDROOT
BRANCH   4  15
HETATM   15  C   UNL     1      -9.980   9.507  67.537  1.00  0.00    -0.235 C  
HETATM   16  C   UNL     1     -10.490  11.369  65.722  1.00  0.00    -0.314 C  
HETATM   17  C   UNL     1     -10.991  10.184  66.567  1.00  0.00     0.063 C  
HETATM   18  C   UNL     1      -8.338  11.409  66.898  1.00  0.00    -0.159 C  
HETATM   19  C   UNL     1      -8.792  10.409  67.948  1.00  0.00    -0.125 C  
HETATM   20  C   UNL     1      -9.498  12.302  66.438  1.00  0.00    -0.240 C  
BRANCH  20  21
HETATM   21  C   UNL     1     -10.045  13.190  67.560  1.00  0.00    -0.222 A  
HETATM   22  C   UNL     1     -10.946  14.827  69.680  1.00  0.00    -0.261 A  
HETATM   23  C   UNL     1      -9.222  14.188  68.119  1.00  0.00    -0.194 A  
HETATM   24  C   UNL     1      -9.664  14.995  69.173  1.00  0.00    -0.212 A  
HETATM   25  C   UNL     1     -11.790  13.867  69.133  1.00  0.00    -0.401 A  
HETATM   26 CL   UNL     1     -11.499  15.814  70.976  1.00  0.00    -0.409 Cl 
HETATM   27  C   UNL     1     -11.347  13.071  68.071  1.00  0.00    -0.327 A  
ENDBRANCH  20  21
ENDBRANCH   4  15
TORSDOF 2
ENDMDL
MODEL       72
REMARK 921   NORMALIZED FREE ENERGY PREDICTED BY IDOCK:   -4.87 KCAL/MOL
REMARK 922        TOTAL FREE ENERGY PREDICTED BY IDOCK:   -6.32 KCAL/MOL
REMARK 923 INTER-LIGAND FREE ENERGY PREDICTED BY IDOCK:   -5.50 KCAL/MOL
REMARK 924 INTRA-LIGAND FREE ENERGY PREDICTED BY IDOCK:   -0.82 KCAL/MOL
REMARK 927      BINDING AFFINITY PREDICTED BY RF-SCORE:    0.00 PKD
ROOT
HETATM    1  O   UNL     1      -7.902  12.951  69.085  1.00  0.00    -0.320 OA 
HETATM    2  C   UNL     1      -8.824  13.005  68.055  1.00  0.00    -0.191 C  
HETATM    3  H   UNL     1      -7.483  13.717  69.460  1.00  0.00     0.000 HD 
HETATM    4  C   UNL     1      -9.418  11.917  67.523  1.00  0.00    -0.176 C  
HETATM    5  C   UNL     1     -10.331  12.111  66.332  1.00  0.00    -0.218 C  
HETATM    6  C   UNL     1     -10.078  14.568  66.464  1.00  0.00    -0.280 A  
HETATM    7  C   UNL     1     -10.449  15.855  66.045  1.00  0.00    -0.357 A  
HETATM    8  C   UNL     1     -10.569  13.459  65.800  1.00  0.00    -0.286 A  
HETATM    9  O   UNL     1     -10.910  11.165  65.804  1.00  0.00    -0.238 OA 
HETATM   10  C   UNL     1     -11.360  13.625  64.653  1.00  0.00    -0.380 A  
HETATM   11  C   UNL     1      -9.151  14.395  67.594  1.00  0.00    -0.194 C  
HETATM   12  C   UNL     1     -11.708  14.904  64.217  1.00  0.00    -0.261 A  
HETATM   13  O   UNL     1      -8.662  15.387  68.128  1.00  0.00    -0.158 OA 
HETATM   14  C   UNL     1     -11.275  16.020  64.930  1.00  0.00    -0.319 A  
ENDROOT
BRANCH   4  15
HETATM   15  C   UNL     1      -9.410  10.458  68.029  1.00  0.00    -0.145 C  
HETATM   16  C   UNL     1      -9.495   9.540  70.513  1.00  0.00    -0.306 C  
HETATM   17  C   UNL     1     -10.251  10.053  69.274  1.00  0.00    -0.229 C  
HETATM   18  C   UNL     1      -7.358   9.526  69.309  1.00  0.00    -0.072 C  
HETATM   19  C   UNL     1      -8.011   9.801  67.966  1.00  0.00    -0.097 C  
HETATM   20  C   UNL     1      -8.263   8.671  70.206  1.00  0.00    -0.119 C  
BRANCH  20  21
HETATM   21  C   UNL     1      -8.509   7.270  69.639  1.00  0.00    -0.133 A  
HETATM   22  C   UNL     1      -9.041   4.665  68.680  1.00  0.00    -0.117 A  
HETATM   23  C   UNL     1      -9.806   6.721  69.686  1.00  0.00    -0.173 A  
HETATM   24  C   UNL     1     -10.070   5.429  69.217  1.00  0.00    -0.301 A  
HETATM   25  C   UNL     1      -7.757   5.190  68.598  1.00  0.00    -0.079 A  
HETATM   26 CL   UNL     1      -9.355   3.076  68.102  1.00  0.00    -0.255 Cl 
HETATM   27  C   UNL     1      -7.500   6.487  69.056  1.00  0.00    -0.095 A  
ENDBRANCH  20  21
ENDBRANCH   4  15
TORSDOF 2
ENDMDL
MODEL       73
REMARK 921   NORMALIZED FREE ENERGY PREDICTED BY IDOCK:   -4.87 KCAL/MOL
REMARK 922        TOTAL FREE ENERGY PREDICTED BY IDOCK:   -6.31 KCAL/MOL
REMARK 923 INTER-LIGAND FREE ENERGY PREDICTED BY IDOCK:   -5.42 KCAL/MOL
REMARK 924 INTRA-LIGAND FREE ENERGY PREDICTED BY IDOCK:   -0.90 KCAL/MOL
REMARK 927      BINDING AFFINITY PREDICTED BY RF-SCORE:    0.00 PKD
ROOT
HETATM    1  O   UNL     1     -11.254  10.598  64.038  1.00  0.00    -0.015 OA 
HETATM    2  C   UNL     1     -10.812  11.732  64.696  1.00  0.00    -0.307 C  
HETATM    3  H   UNL     1     -11.844  10.616  63.293  1.00  0.00     0.000 HD 
HETATM    4  C   UNL     1      -9.975  11.706  65.753  1.00  0.00    -0.270 C  
HETATM    5  C   UNL     1      -9.652  13.014  66.442  1.00  0.00    -0.257 C  
HETATM    6  C   UNL     1     -10.948  14.286  64.764  1.00  0.00    -0.408 A  
HETATM    7  C   UNL     1     -11.350  15.510  64.207  1.00  0.00    -0.165 A  
HETATM    8  C   UNL     1     -10.227  14.270  65.943  1.00  0.00    -0.338 A  
HETATM    9  O   UNL     1      -8.891  13.063  67.405  1.00  0.00    -0.183 OA 
HETATM   10  C   UNL     1      -9.981  15.469  66.629  1.00  0.00    -0.272 A  
HETATM   11  C   UNL     1     -11.311  13.019  64.108  1.00  0.00    -0.397 C  
HETATM   12  C   UNL     1     -10.403  16.686  66.092  1.00  0.00    -0.340 A  
HETATM   13  O   UNL     1     -12.016  13.043  63.103  1.00  0.00    -0.534 OA 
HETATM   14  C   UNL     1     -11.065  16.708  64.866  1.00  0.00    -0.137 A  
ENDROOT
BRANCH   4  15
HETATM   15  C   UNL     1      -9.163  10.522  66.324  1.00  0.00    -0.192 C  
HETATM   16  C   UNL     1      -8.409   8.276  65.140  1.00  0.00    -0.167 C  
HETATM   17  C   UNL     1      -8.142   9.764  65.428  1.00  0.00    -0.127 C  
HETATM   18  C   UNL     1     -10.295   8.222  66.707  1.00  0.00    -0.361 C  
HETATM   19  C   UNL     1      -9.996   9.608  67.253  1.00  0.00    -0.250 C  
HETATM   20  C   UNL     1      -9.007   7.485  66.317  1.00  0.00    -0.199 C  
BRANCH  20  21
HETATM   21  C   UNL     1      -8.096   7.204  67.516  1.00  0.00    -0.113 A  
HETATM   22  C   UNL     1      -6.333   6.648  69.653  1.00  0.00    -0.042 A  
HETATM   23  C   UNL     1      -6.709   7.425  67.400  1.00  0.00    -0.069 A  
HETATM   24  C   UNL     1      -5.834   7.143  68.455  1.00  0.00    -0.022 A  
HETATM   25  C   UNL     1      -7.699   6.444  69.805  1.00  0.00    -0.109 A  
HETATM   26 CL   UNL     1      -5.265   6.299  70.956  1.00  0.00    -0.017 Cl 
HETATM   27  C   UNL     1      -8.572   6.738  68.752  1.00  0.00    -0.123 A  
ENDBRANCH  20  21
ENDBRANCH   4  15
TORSDOF 2
ENDMDL
MODEL       74
REMARK 921   NORMALIZED FREE ENERGY PREDICTED BY IDOCK:   -4.85 KCAL/MOL
REMARK 922        TOTAL FREE ENERGY PREDICTED BY IDOCK:   -6.30 KCAL/MOL
REMARK 923 INTER-LIGAND FREE ENERGY PREDICTED BY IDOCK:   -6.09 KCAL/MOL
REMARK 924 INTRA-LIGAND FREE ENERGY PREDICTED BY IDOCK:   -0.21 KCAL/MOL
REMARK 927      BINDING AFFINITY PREDICTED BY RF-SCORE:    0.00 PKD
ROOT
HETATM    1  O   UNL     1     -12.638  15.057  69.627  1.00  0.00    -0.579 OA 
HETATM    2  C   UNL     1     -11.817  13.959  69.447  1.00  0.00    -0.334 C  
HETATM    3  H   UNL     1     -13.465  15.028  70.093  1.00  0.00     0.000 HD 
HETATM    4  C   UNL     1     -10.643  14.001  68.784  1.00  0.00    -0.260 C  
HETATM    5  C   UNL     1      -9.893  12.704  68.573  1.00  0.00    -0.148 C  
HETATM    6  C   UNL     1     -11.553  11.458  69.918  1.00  0.00    -0.402 A  
HETATM    7  C   UNL     1     -11.965  10.277  70.555  1.00  0.00    -0.415 A  
HETATM    8  C   UNL     1     -10.434  11.447  69.104  1.00  0.00    -0.159 A  
HETATM    9  O   UNL     1      -8.814  12.673  67.986  1.00  0.00    -0.180 OA 
HETATM   10  C   UNL     1      -9.771  10.238  68.844  1.00  0.00    -0.193 A  
HETATM   11  C   UNL     1     -12.320  12.701  70.093  1.00  0.00    -0.152 C  
HETATM   12  C   UNL     1     -10.194   9.057  69.456  1.00  0.00    -0.205 A  
HETATM   13  O   UNL     1     -13.354  12.682  70.756  1.00  0.00     0.257 OA 
HETATM   14  C   UNL     1     -11.276   9.082  70.333  1.00  0.00    -0.275 A  
ENDROOT
BRANCH   4  15
HETATM   15  C   UNL     1      -9.847  15.230  68.289  1.00  0.00    -0.218 C  
HETATM   16  C   UNL     1     -10.005  17.757  69.066  1.00  0.00    -0.264 C  
HETATM   17  C   UNL     1      -9.428  16.348  69.286  1.00  0.00    -0.182 C  
HETATM   18  C   UNL     1     -11.031  17.099  66.938  1.00  0.00     0.128 C  
HETATM   19  C   UNL     1     -10.330  15.751  66.915  1.00  0.00    -0.295 C  
HETATM   20  C   UNL     1     -10.154  18.174  67.592  1.00  0.00    -0.367 C  
BRANCH  20  21
HETATM   21  C   UNL     1      -8.872  18.456  66.803  1.00  0.00    -0.283 A  
HETATM   22  C   UNL     1      -6.563  19.065  65.293  1.00  0.00    -0.235 A  
HETATM   23  C   UNL     1      -8.521  19.787  66.502  1.00  0.00    -0.380 A  
HETATM   24  C   UNL     1      -7.381  20.090  65.749  1.00  0.00    -0.321 A  
HETATM   25  C   UNL     1      -6.869  17.744  65.596  1.00  0.00    -0.109 A  
HETATM   26 CL   UNL     1      -5.159  19.427  64.366  1.00  0.00    -0.195 Cl 
HETATM   27  C   UNL     1      -8.003  17.446  66.359  1.00  0.00    -0.325 A  
ENDBRANCH  20  21
ENDBRANCH   4  15
TORSDOF 2
ENDMDL
MODEL       75
REMARK 921   NORMALIZED FREE ENERGY PREDICTED BY IDOCK:   -4.81 KCAL/MOL
REMARK 922        TOTAL FREE ENERGY PREDICTED BY IDOCK:   -6.24 KCAL/MOL
REMARK 923 INTER-LIGAND FREE ENERGY PREDICTED BY IDOCK:   -5.95 KCAL/MOL
REMARK 924 INTRA-LIGAND FREE ENERGY PREDICTED BY IDOCK:   -0.29 KCAL/MOL
REMARK 927      BINDING AFFINITY PREDICTED BY RF-SCORE:    0.00 PKD
ROOT
HETATM    1  O   UNL     1     -10.197  13.311  63.910  1.00  0.00    -0.707 OA 
HETATM    2  C   UNL     1     -10.190  13.700  65.238  1.00  0.00    -0.323 C  
HETATM    3  H   UNL     1     -10.319  13.912  63.184  1.00  0.00     0.000 HD 
HETATM    4  C   UNL     1     -10.016  12.847  66.268  1.00  0.00    -0.271 C  
HETATM    5  C   UNL     1     -10.132  13.391  67.675  1.00  0.00    -0.229 C  
HETATM    6  C   UNL     1     -10.412  15.696  66.823  1.00  0.00    -0.297 A  
HETATM    7  C   UNL     1     -10.504  17.077  67.055  1.00  0.00    -0.279 A  
HETATM    8  C   UNL     1     -10.402  14.818  67.892  1.00  0.00    -0.240 A  
HETATM    9  O   UNL     1      -9.977  12.671  68.658  1.00  0.00    -0.194 OA 
HETATM   10  C   UNL     1     -10.578  15.303  69.196  1.00  0.00    -0.250 A  
HETATM   11  C   UNL     1     -10.349  15.178  65.447  1.00  0.00    -0.388 C  
HETATM   12  C   UNL     1     -10.697  16.674  69.427  1.00  0.00    -0.331 A  
HETATM   13  O   UNL     1     -10.436  15.961  64.505  1.00  0.00    -0.366 OA 
HETATM   14  C   UNL     1     -10.632  17.564  68.358  1.00  0.00    -0.339 A  
ENDROOT
BRANCH   4  15
HETATM   15  C   UNL     1      -9.582  11.364  66.242  1.00  0.00    -0.237 C  
HETATM   16  C   UNL     1     -10.066   9.442  68.000  1.00  0.00    -0.230 C  
HETATM   17  C   UNL     1     -10.534  10.258  66.781  1.00  0.00    -0.279 C  
HETATM   18  C   UNL     1      -7.844  10.480  67.949  1.00  0.00    -0.105 C  
HETATM   19  C   UNL     1      -8.095  11.161  66.616  1.00  0.00    -0.159 C  
HETATM   20  C   UNL     1      -8.560   9.125  68.028  1.00  0.00    -0.125 C  
BRANCH  20  21
HETATM   21  C   UNL     1      -8.031   8.113  67.008  1.00  0.00    -0.104 A  
HETATM   22  C   UNL     1      -7.148   6.175  65.151  1.00  0.00    -0.064 A  
HETATM   23  C   UNL     1      -8.942   7.386  66.215  1.00  0.00    -0.192 A  
HETATM   24  C   UNL     1      -8.507   6.422  65.300  1.00  0.00    -0.102 A  
HETATM   25  C   UNL     1      -6.225   6.893  65.901  1.00  0.00    -0.039 A  
HETATM   26 CL   UNL     1      -6.603   4.991  64.028  1.00  0.00    -0.040 Cl 
HETATM   27  C   UNL     1      -6.664   7.865  66.807  1.00  0.00    -0.063 A  
ENDBRANCH  20  21
ENDBRANCH   4  15
TORSDOF 2
ENDMDL
MODEL       76
REMARK 921   NORMALIZED FREE ENERGY PREDICTED BY IDOCK:   -4.80 KCAL/MOL
REMARK 922        TOTAL FREE ENERGY PREDICTED BY IDOCK:   -6.24 KCAL/MOL
REMARK 923 INTER-LIGAND FREE ENERGY PREDICTED BY IDOCK:   -5.54 KCAL/MOL
REMARK 924 INTRA-LIGAND FREE ENERGY PREDICTED BY IDOCK:   -0.70 KCAL/MOL
REMARK 927      BINDING AFFINITY PREDICTED BY RF-SCORE:    0.00 PKD
ROOT
HETATM    1  O   UNL     1     -11.849  13.482  68.737  1.00  0.00    -0.319 OA 
HETATM    2  C   UNL     1     -10.741  14.266  68.470  1.00  0.00    -0.255 C  
HETATM    3  H   UNL     1     -12.679  13.828  69.042  1.00  0.00     0.000 HD 
HETATM    4  C   UNL     1      -9.562  13.774  68.038  1.00  0.00    -0.214 C  
HETATM    5  C   UNL     1      -8.401  14.732  67.881  1.00  0.00    -0.149 C  
HETATM    6  C   UNL     1      -9.839  16.661  68.455  1.00  0.00    -0.252 A  
HETATM    7  C   UNL     1     -10.031  18.047  68.568  1.00  0.00    -0.395 A  
HETATM    8  C   UNL     1      -8.582  16.160  68.173  1.00  0.00    -0.177 A  
HETATM    9  O   UNL     1      -7.302  14.352  67.485  1.00  0.00    -0.173 OA 
HETATM   10  C   UNL     1      -7.484  17.031  68.094  1.00  0.00    -0.195 A  
HETATM   11  C   UNL     1     -10.967  15.738  68.658  1.00  0.00    -0.307 C  
HETATM   12  C   UNL     1      -7.667  18.408  68.233  1.00  0.00    -0.308 A  
HETATM   13  O   UNL     1     -12.063  16.189  68.983  1.00  0.00    -0.228 OA 
HETATM   14  C   UNL     1      -8.946  18.918  68.443  1.00  0.00    -0.377 A  
ENDROOT
BRANCH   4  15
HETATM   15  C   UNL     1      -9.222  12.351  67.542  1.00  0.00    -0.183 C  
HETATM   16  C   UNL     1     -10.506  10.830  65.794  1.00  0.00    -0.256 C  
HETATM   17  C   UNL     1      -9.486  11.950  66.062  1.00  0.00    -0.241 C  
HETATM   18  C   UNL     1     -10.733  10.345  68.187  1.00  0.00    -0.277 C  
HETATM   19  C   UNL     1      -9.575  11.251  68.571  1.00  0.00    -0.199 C  
HETATM   20  C   UNL     1     -10.498   9.685  66.822  1.00  0.00    -0.257 C  
BRANCH  20  21
HETATM   21  C   UNL     1      -9.293   8.740  66.819  1.00  0.00    -0.229 A  
HETATM   22  C   UNL     1      -7.068   7.002  66.931  1.00  0.00    -0.075 A  
HETATM   23  C   UNL     1      -9.164   7.776  67.839  1.00  0.00    -0.141 A  
HETATM   24  C   UNL     1      -8.060   6.919  67.900  1.00  0.00    -0.114 A  
HETATM   25  C   UNL     1      -7.180   7.925  65.899  1.00  0.00    -0.072 A  
HETATM   26 CL   UNL     1      -5.706   5.953  66.998  1.00  0.00    -0.016 Cl 
HETATM   27  C   UNL     1      -8.291   8.772  65.835  1.00  0.00    -0.131 A  
ENDBRANCH  20  21
ENDBRANCH   4  15
TORSDOF 2
ENDMDL
MODEL       77
REMARK 921   NORMALIZED FREE ENERGY PREDICTED BY IDOCK:   -4.80 KCAL/MOL
REMARK 922        TOTAL FREE ENERGY PREDICTED BY IDOCK:   -6.24 KCAL/MOL
REMARK 923 INTER-LIGAND FREE ENERGY PREDICTED BY IDOCK:   -5.93 KCAL/MOL
REMARK 924 INTRA-LIGAND FREE ENERGY PREDICTED BY IDOCK:   -0.31 KCAL/MOL
REMARK 927      BINDING AFFINITY PREDICTED BY RF-SCORE:    0.00 PKD
ROOT
HETATM    1  O   UNL     1      -5.943  15.095  68.345  1.00  0.00    -0.092 OA 
HETATM    2  C   UNL     1      -7.046  15.853  67.993  1.00  0.00    -0.130 C  
HETATM    3  H   UNL     1      -5.137  15.463  68.688  1.00  0.00     0.000 HD 
HETATM    4  C   UNL     1      -8.189  15.330  67.505  1.00  0.00    -0.191 C  
HETATM    5  C   UNL     1      -9.280  16.281  67.065  1.00  0.00    -0.214 C  
HETATM    6  C   UNL     1      -7.978  18.231  67.850  1.00  0.00    -0.261 A  
HETATM    7  C   UNL     1      -7.884  19.606  68.118  1.00  0.00    -0.346 A  
HETATM    8  C   UNL     1      -9.089  17.731  67.196  1.00  0.00    -0.247 A  
HETATM    9  O   UNL     1     -10.349  15.872  66.619  1.00  0.00    -0.287 OA 
HETATM   10  C   UNL     1     -10.075  18.609  66.722  1.00  0.00    -0.413 A  
HETATM   11  C   UNL     1      -6.886  17.324  68.240  1.00  0.00    -0.184 C  
HETATM   12  C   UNL     1      -9.972  19.980  66.964  1.00  0.00    -0.582 A  
HETATM   13  O   UNL     1      -5.871  17.790  68.751  1.00  0.00    -0.174 OA 
HETATM   14  C   UNL     1      -8.889  20.475  67.686  1.00  0.00    -0.288 A  
ENDROOT
BRANCH   4  15
HETATM   15  C   UNL     1      -8.630  13.851  67.430  1.00  0.00    -0.206 C  
HETATM   16  C   UNL     1     -10.582  12.750  66.018  1.00  0.00    -0.289 C  
HETATM   17  C   UNL     1      -9.127  13.246  66.086  1.00  0.00     0.101 C  
HETATM   18  C   UNL     1     -10.909  13.113  68.421  1.00  0.00    -0.283 C  
HETATM   19  C   UNL     1      -9.437  13.396  68.669  1.00  0.00    -0.039 C  
HETATM   20  C   UNL     1     -11.099  12.080  67.303  1.00  0.00    -0.341 C  
BRANCH  20  21
HETATM   21  C   UNL     1     -10.530  10.704  67.662  1.00  0.00    -0.267 A  
HETATM   22  C   UNL     1      -9.515   8.126  68.218  1.00  0.00    -0.141 A  
HETATM   23  C   UNL     1      -9.907   9.929  66.664  1.00  0.00    -0.265 A  
HETATM   24  C   UNL     1      -9.409   8.650  66.936  1.00  0.00    -0.216 A  
HETATM   25  C   UNL     1     -10.102   8.877  69.229  1.00  0.00    -0.205 A  
HETATM   26 CL   UNL     1      -8.906   6.554  68.562  1.00  0.00    -0.121 Cl 
HETATM   27  C   UNL     1     -10.588  10.160  68.955  1.00  0.00    -0.245 A  
ENDBRANCH  20  21
ENDBRANCH   4  15
TORSDOF 2
ENDMDL
MODEL       78
REMARK 921   NORMALIZED FREE ENERGY PREDICTED BY IDOCK:   -4.79 KCAL/MOL
REMARK 922        TOTAL FREE ENERGY PREDICTED BY IDOCK:   -6.23 KCAL/MOL
REMARK 923 INTER-LIGAND FREE ENERGY PREDICTED BY IDOCK:   -6.01 KCAL/MOL
REMARK 924 INTRA-LIGAND FREE ENERGY PREDICTED BY IDOCK:   -0.22 KCAL/MOL
REMARK 927      BINDING AFFINITY PREDICTED BY RF-SCORE:    0.00 PKD
ROOT
HETATM    1  O   UNL     1     -12.428  10.042  69.820  1.00  0.00    -0.487 OA 
HETATM    2  C   UNL     1     -11.133   9.616  69.581  1.00  0.00    -0.193 C  
HETATM    3  H   UNL     1     -13.091   9.506  70.240  1.00  0.00     0.000 HD 
HETATM    4  C   UNL     1     -10.192  10.376  68.985  1.00  0.00    -0.233 C  
HETATM    5  C   UNL     1      -8.846   9.751  68.693  1.00  0.00    -0.126 C  
HETATM    6  C   UNL     1      -9.506   7.658  69.833  1.00  0.00    -0.160 A  
HETATM    7  C   UNL     1      -9.178   6.390  70.339  1.00  0.00    -0.159 A  
HETATM    8  C   UNL     1      -8.583   8.358  69.079  1.00  0.00    -0.131 A  
HETATM    9  O   UNL     1      -7.942  10.389  68.159  1.00  0.00    -0.106 OA 
HETATM   10  C   UNL     1      -7.358   7.762  68.743  1.00  0.00    -0.087 A  
HETATM   11  C   UNL     1     -10.837   8.233  70.084  1.00  0.00    -0.237 C  
HETATM   12  C   UNL     1      -7.040   6.491  69.221  1.00  0.00    -0.084 A  
HETATM   13  O   UNL     1     -11.675   7.570  70.690  1.00  0.00    -0.281 OA 
HETATM   14  C   UNL     1      -7.940   5.815  70.043  1.00  0.00    -0.099 A  
ENDROOT
BRANCH   4  15
HETATM   15  C   UNL     1     -10.229  11.883  68.644  1.00  0.00    -0.202 C  
HETATM   16  C   UNL     1     -12.192  13.631  68.968  1.00  0.00    -0.245 C  
HETATM   17  C   UNL     1     -10.991  12.878  69.566  1.00  0.00     0.048 C  
HETATM   18  C   UNL     1     -11.735  12.755  66.723  1.00  0.00    -0.459 C  
HETATM   19  C   UNL     1     -10.399  12.159  67.132  1.00  0.00    -0.233 C  
HETATM   20  C   UNL     1     -12.029  14.048  67.496  1.00  0.00    -0.430 C  
BRANCH  20  21
HETATM   21  C   UNL     1     -11.032  15.167  67.183  1.00  0.00    -0.326 A  
HETATM   22  C   UNL     1      -9.108  17.149  66.587  1.00  0.00    -0.258 A  
HETATM   23  C   UNL     1     -10.076  14.980  66.164  1.00  0.00    -0.312 A  
HETATM   24  C   UNL     1      -9.119  15.958  65.872  1.00  0.00    -0.304 A  
HETATM   25  C   UNL     1     -10.054  17.372  67.580  1.00  0.00    -0.327 A  
HETATM   26 CL   UNL     1      -7.935  18.357  66.235  1.00  0.00    -0.283 Cl 
HETATM   27  C   UNL     1     -11.016  16.396  67.861  1.00  0.00    -0.298 A  
ENDBRANCH  20  21
ENDBRANCH   4  15
TORSDOF 2
ENDMDL
MODEL       79
REMARK 921   NORMALIZED FREE ENERGY PREDICTED BY IDOCK:   -4.71 KCAL/MOL
REMARK 922        TOTAL FREE ENERGY PREDICTED BY IDOCK:   -6.13 KCAL/MOL
REMARK 923 INTER-LIGAND FREE ENERGY PREDICTED BY IDOCK:   -6.43 KCAL/MOL
REMARK 924 INTRA-LIGAND FREE ENERGY PREDICTED BY IDOCK:    0.30 KCAL/MOL
REMARK 927      BINDING AFFINITY PREDICTED BY RF-SCORE:    0.00 PKD
ROOT
HETATM    1  O   UNL     1     -12.128  12.598  70.994  1.00  0.00    -0.413 OA 
HETATM    2  C   UNL     1     -11.578  11.705  70.091  1.00  0.00    -0.217 C  
HETATM    3  H   UNL     1     -12.559  12.336  71.799  1.00  0.00     0.000 HD 
HETATM    4  C   UNL     1     -10.967  12.077  68.948  1.00  0.00    -0.277 C  
HETATM    5  C   UNL     1     -10.499  10.994  68.001  1.00  0.00    -0.189 C  
HETATM    6  C   UNL     1     -11.173   9.228  69.596  1.00  0.00    -0.061 A  
HETATM    7  C   UNL     1     -11.199   7.878  69.980  1.00  0.00    -0.105 A  
HETATM    8  C   UNL     1     -10.694   9.580  68.348  1.00  0.00    -0.230 A  
HETATM    9  O   UNL     1      -9.929  11.263  66.947  1.00  0.00    -0.200 OA 
HETATM   10  C   UNL     1     -10.322   8.582  67.434  1.00  0.00    -0.356 A  
HETATM   11  C   UNL     1     -11.677  10.267  70.508  1.00  0.00    -0.331 C  
HETATM   12  C   UNL     1     -10.372   7.237  67.804  1.00  0.00    -0.267 A  
HETATM   13  O   UNL     1     -12.171   9.936  71.583  1.00  0.00    -0.382 OA 
HETATM   14  C   UNL     1     -10.785   6.887  69.087  1.00  0.00    -0.262 A  
ENDROOT
BRANCH   4  15
HETATM   15  C   UNL     1     -10.542  13.489  68.485  1.00  0.00    -0.257 C  
HETATM   16  C   UNL     1      -8.227  14.735  68.804  1.00  0.00    -0.163 C  
HETATM   17  C   UNL     1      -9.089  13.751  67.994  1.00  0.00    -0.191 C  
HETATM   18  C   UNL     1     -10.125  15.367  70.223  1.00  0.00    -0.053 C  
HETATM   19  C   UNL     1     -11.130  14.618  69.364  1.00  0.00    -0.293 C  
HETATM   20  C   UNL     1      -8.986  15.946  69.373  1.00  0.00    -0.209 C  
BRANCH  20  21
HETATM   21  C   UNL     1      -9.467  17.010  68.382  1.00  0.00    -0.269 A  
HETATM   22  C   UNL     1     -10.242  18.983  66.513  1.00  0.00    -0.421 A  
HETATM   23  C   UNL     1      -8.894  17.069  67.096  1.00  0.00    -0.232 A  
HETATM   24  C   UNL     1      -9.272  18.049  66.171  1.00  0.00    -0.132 A  
HETATM   25  C   UNL     1     -10.842  18.935  67.765  1.00  0.00    -0.349 A  
HETATM   26 CL   UNL     1     -10.713  20.192  65.383  1.00  0.00    -0.303 Cl 
HETATM   27  C   UNL     1     -10.470  17.946  68.682  1.00  0.00    -0.269 A  
ENDBRANCH  20  21
ENDBRANCH   4  15
TORSDOF 2
ENDMDL
MODEL       80
REMARK 921   NORMALIZED FREE ENERGY PREDICTED BY IDOCK:   -4.68 KCAL/MOL
REMARK 922        TOTAL FREE ENERGY PREDICTED BY IDOCK:   -6.10 KCAL/MOL
REMARK 923 INTER-LIGAND FREE ENERGY PREDICTED BY IDOCK:   -5.79 KCAL/MOL
REMARK 924 INTRA-LIGAND FREE ENERGY PREDICTED BY IDOCK:   -0.31 KCAL/MOL
REMARK 927      BINDING AFFINITY PREDICTED BY RF-SCORE:    0.00 PKD
ROOT
HETATM    1  O   UNL     1      -6.868  10.119  70.978  1.00  0.00    -0.341 OA 
HETATM    2  C   UNL     1      -7.789   9.089  70.918  1.00  0.00    -0.146 C  
HETATM    3  H   UNL     1      -5.976  10.013  71.289  1.00  0.00     0.000 HD 
HETATM    4  C   UNL     1      -9.054   9.240  70.476  1.00  0.00    -0.307 C  
HETATM    5  C   UNL     1      -9.987   8.052  70.558  1.00  0.00    -0.190 C  
HETATM    6  C   UNL     1      -8.160   6.599  71.376  1.00  0.00    -0.111 A  
HETATM    7  C   UNL     1      -7.676   5.327  71.719  1.00  0.00    -0.109 A  
HETATM    8  C   UNL     1      -9.501   6.770  71.086  1.00  0.00    -0.164 A  
HETATM    9  O   UNL     1     -11.150   8.118  70.167  1.00  0.00    -0.250 OA 
HETATM   10  C   UNL     1     -10.389   5.693  71.225  1.00  0.00    -0.289 A  
HETATM   11  C   UNL     1      -7.250   7.756  71.348  1.00  0.00    -0.063 C  
HETATM   12  C   UNL     1      -9.915   4.433  71.592  1.00  0.00    -0.256 A  
HETATM   13  O   UNL     1      -6.078   7.607  71.681  1.00  0.00    -0.036 OA 
HETATM   14  C   UNL     1      -8.553   4.244  71.813  1.00  0.00    -0.118 A  
ENDROOT
BRANCH   4  15
HETATM   15  C   UNL     1      -9.699  10.448  69.760  1.00  0.00    -0.101 C  
HETATM   16  C   UNL     1     -12.252  10.931  69.250  1.00  0.00    -0.240 C  
HETATM   17  C   UNL     1     -11.072  11.002  70.235  1.00  0.00    -0.085 C  
HETATM   18  C   UNL     1     -10.801  10.153  67.432  1.00  0.00    -0.323 C  
HETATM   19  C   UNL     1      -9.528  10.402  68.223  1.00  0.00    -0.153 C  
HETATM   20  C   UNL     1     -11.884  11.184  67.777  1.00  0.00    -0.098 C  
BRANCH  20  21
HETATM   21  C   UNL     1     -11.494  12.611  67.380  1.00  0.00    -0.397 A  
HETATM   22  C   UNL     1     -10.677  15.199  66.596  1.00  0.00    -0.310 A  
HETATM   23  C   UNL     1     -10.862  12.838  66.141  1.00  0.00    -0.303 A  
HETATM   24  C   UNL     1     -10.451  14.118  65.754  1.00  0.00    -0.320 A  
HETATM   25  C   UNL     1     -11.320  15.010  67.813  1.00  0.00    -0.340 A  
HETATM   26 CL   UNL     1     -10.175  16.777  66.129  1.00  0.00    -0.348 Cl 
HETATM   27  C   UNL     1     -11.740  13.730  68.191  1.00  0.00    -0.392 A  
ENDBRANCH  20  21
ENDBRANCH   4  15
TORSDOF 2
ENDMDL
MODEL       81
REMARK 921   NORMALIZED FREE ENERGY PREDICTED BY IDOCK:   -4.67 KCAL/MOL
REMARK 922        TOTAL FREE ENERGY PREDICTED BY IDOCK:   -6.09 KCAL/MOL
REMARK 923 INTER-LIGAND FREE ENERGY PREDICTED BY IDOCK:   -5.65 KCAL/MOL
REMARK 924 INTRA-LIGAND FREE ENERGY PREDICTED BY IDOCK:   -0.44 KCAL/MOL
REMARK 927      BINDING AFFINITY PREDICTED BY RF-SCORE:    0.00 PKD
ROOT
HETATM    1  O   UNL     1     -11.370  16.367  64.136  1.00  0.00    -1.302 OA 
HETATM    2  C   UNL     1     -11.007  16.684  65.433  1.00  0.00    -0.091 C  
HETATM    3  H   UNL     1     -11.589  17.014  63.476  1.00  0.00     0.000 HD 
HETATM    4  C   UNL     1     -10.697  15.765  66.370  1.00  0.00    -0.277 C  
HETATM    5  C   UNL     1     -10.416  16.245  67.778  1.00  0.00    -0.295 C  
HETATM    6  C   UNL     1     -10.621  18.608  67.076  1.00  0.00    -0.448 A  
HETATM    7  C   UNL     1     -10.496  19.977  67.357  1.00  0.00    -0.490 A  
HETATM    8  C   UNL     1     -10.462  17.680  68.088  1.00  0.00    -0.386 A  
HETATM    9  O   UNL     1     -10.120  15.463  68.677  1.00  0.00    -0.203 OA 
HETATM   10  C   UNL     1     -10.271  18.112  69.409  1.00  0.00     0.117 A  
HETATM   11  C   UNL     1     -10.942  18.157  65.712  1.00  0.00     0.246 C  
HETATM   12  C   UNL     1     -10.173  19.475  69.696  1.00  0.00     0.164 A  
HETATM   13  O   UNL     1     -11.156  18.993  64.837  1.00  0.00    -0.334 OA 
HETATM   14  C   UNL     1     -10.259  20.407  68.665  1.00  0.00    -0.132 A  
ENDROOT
BRANCH   4  15
HETATM   15  C   UNL     1     -10.455  14.248  66.205  1.00  0.00    -0.291 C  
HETATM   16  C   UNL     1     -10.191  12.821  63.990  1.00  0.00    -0.323 C  
HETATM   17  C   UNL     1      -9.545  13.718  65.060  1.00  0.00     0.294 C  
HETATM   18  C   UNL     1     -12.308  12.726  65.224  1.00  0.00    -0.546 C  
HETATM   19  C   UNL     1     -11.725  13.401  66.453  1.00  0.00    -0.409 C  
HETATM   20  C   UNL     1     -11.264  11.852  64.517  1.00  0.00    -0.380 C  
BRANCH  20  21
HETATM   21  C   UNL     1     -10.793  10.675  65.377  1.00  0.00     0.005 A  
HETATM   22  C   UNL     1      -9.924   8.437  66.867  1.00  0.00    -0.271 A  
HETATM   23  C   UNL     1      -9.874   9.750  64.844  1.00  0.00    -0.183 A  
HETATM   24  C   UNL     1      -9.447   8.638  65.578  1.00  0.00    -0.019 A  
HETATM   25  C   UNL     1     -10.812   9.346  67.429  1.00  0.00    -0.189 A  
HETATM   26 CL   UNL     1      -9.405   7.072  67.777  1.00  0.00    -0.126 Cl 
HETATM   27  C   UNL     1     -11.227  10.463  66.696  1.00  0.00     0.216 A  
ENDBRANCH  20  21
ENDBRANCH   4  15
TORSDOF 2
ENDMDL
MODEL       82
REMARK 921   NORMALIZED FREE ENERGY PREDICTED BY IDOCK:   -4.66 KCAL/MOL
REMARK 922        TOTAL FREE ENERGY PREDICTED BY IDOCK:   -6.08 KCAL/MOL
REMARK 923 INTER-LIGAND FREE ENERGY PREDICTED BY IDOCK:   -6.21 KCAL/MOL
REMARK 924 INTRA-LIGAND FREE ENERGY PREDICTED BY IDOCK:    0.13 KCAL/MOL
REMARK 927      BINDING AFFINITY PREDICTED BY RF-SCORE:    0.00 PKD
ROOT
HETATM    1  O   UNL     1     -11.372  15.182  67.653  1.00  0.00    -0.317 OA 
HETATM    2  C   UNL     1      -9.998  15.289  67.536  1.00  0.00    -0.226 C  
HETATM    3  H   UNL     1     -11.983  15.822  67.308  1.00  0.00     0.000 HD 
HETATM    4  C   UNL     1      -9.131  14.380  68.026  1.00  0.00    -0.188 C  
HETATM    5  C   UNL     1      -7.650  14.672  67.918  1.00  0.00    -0.142 C  
HETATM    6  C   UNL     1      -8.092  16.739  66.633  1.00  0.00    -0.300 A  
HETATM    7  C   UNL     1      -7.627  17.825  65.876  1.00  0.00    -0.170 A  
HETATM    8  C   UNL     1      -7.189  15.907  67.270  1.00  0.00    -0.251 A  
HETATM    9  O   UNL     1      -6.806  13.883  68.337  1.00  0.00    -0.083 OA 
HETATM   10  C   UNL     1      -5.819  16.206  67.236  1.00  0.00    -0.122 A  
HETATM   11  C   UNL     1      -9.537  16.495  66.771  1.00  0.00    -0.254 C  
HETATM   12  C   UNL     1      -5.356  17.301  66.506  1.00  0.00    -0.206 A  
HETATM   13  O   UNL     1     -10.331  17.284  66.264  1.00  0.00    -0.337 OA 
HETATM   14  C   UNL     1      -6.259  18.096  65.803  1.00  0.00    -0.289 A  
ENDROOT
BRANCH   4  15
HETATM   15  C   UNL     1      -9.414  12.973  68.599  1.00  0.00    -0.007 C  
HETATM   16  C   UNL     1      -9.974  10.722  67.321  1.00  0.00    -0.219 C  
HETATM   17  C   UNL     1      -8.915  11.705  67.849  1.00  0.00    -0.170 C  
HETATM   18  C   UNL     1     -11.788  11.945  68.430  1.00  0.00    -0.352 C  
HETATM   19  C   UNL     1     -10.832  12.838  69.202  1.00  0.00    -0.123 C  
HETATM   20  C   UNL     1     -11.202  10.541  68.231  1.00  0.00    -0.354 C  
BRANCH  20  21
HETATM   21  C   UNL     1     -11.001   9.788  69.549  1.00  0.00    -0.256 A  
HETATM   22  C   UNL     1     -10.630   8.297  71.921  1.00  0.00    -0.282 A  
HETATM   23  C   UNL     1     -10.194   8.633  69.572  1.00  0.00    -0.209 A  
HETATM   24  C   UNL     1     -10.014   7.890  70.744  1.00  0.00    -0.192 A  
HETATM   25  C   UNL     1     -11.412   9.446  71.935  1.00  0.00    -0.308 A  
HETATM   26 CL   UNL     1     -10.416   7.390  73.367  1.00  0.00    -0.411 Cl 
HETATM   27  C   UNL     1     -11.579  10.192  70.763  1.00  0.00    -0.445 A  
ENDBRANCH  20  21
ENDBRANCH   4  15
TORSDOF 2
ENDMDL
MODEL       83
REMARK 921   NORMALIZED FREE ENERGY PREDICTED BY IDOCK:   -4.65 KCAL/MOL
REMARK 922        TOTAL FREE ENERGY PREDICTED BY IDOCK:   -6.07 KCAL/MOL
REMARK 923 INTER-LIGAND FREE ENERGY PREDICTED BY IDOCK:   -5.85 KCAL/MOL
REMARK 924 INTRA-LIGAND FREE ENERGY PREDICTED BY IDOCK:   -0.22 KCAL/MOL
REMARK 927      BINDING AFFINITY PREDICTED BY RF-SCORE:    0.00 PKD
ROOT
HETATM    1  O   UNL     1      -7.542   9.392  68.092  1.00  0.00    -0.082 OA 
HETATM    2  C   UNL     1      -8.606  10.189  68.475  1.00  0.00    -0.118 C  
HETATM    3  H   UNL     1      -6.833   9.689  67.534  1.00  0.00     0.000 HD 
HETATM    4  C   UNL     1      -9.612   9.766  69.266  1.00  0.00    -0.204 C  
HETATM    5  C   UNL     1     -10.765  10.712  69.525  1.00  0.00    -0.251 C  
HETATM    6  C   UNL     1      -9.638  12.521  68.271  1.00  0.00    -0.209 A  
HETATM    7  C   UNL     1      -9.573  13.863  67.862  1.00  0.00    -0.227 A  
HETATM    8  C   UNL     1     -10.756  12.059  68.940  1.00  0.00    -0.222 A  
HETATM    9  O   UNL     1     -11.710  10.393  70.242  1.00  0.00    -0.273 OA 
HETATM   10  C   UNL     1     -11.860  12.905  69.126  1.00  0.00    -0.353 A  
HETATM   11  C   UNL     1      -8.531  11.600  67.970  1.00  0.00    -0.151 C  
HETATM   12  C   UNL     1     -11.809  14.232  68.696  1.00  0.00    -0.379 A  
HETATM   13  O   UNL     1      -7.577  12.003  67.308  1.00  0.00    -0.141 OA 
HETATM   14  C   UNL     1     -10.654  14.718  68.087  1.00  0.00    -0.241 A  
ENDROOT
BRANCH   4  15
HETATM   15  C   UNL     1      -9.727   8.459  70.083  1.00  0.00    -0.175 C  
HETATM   16  C   UNL     1     -11.886   7.072  70.738  1.00  0.00    -0.401 C  
HETATM   17  C   UNL     1     -10.789   7.387  69.705  1.00  0.00    -0.246 C  
HETATM   18  C   UNL     1     -10.812   8.477  72.437  1.00  0.00    -0.378 C  
HETATM   19  C   UNL     1      -9.557   8.679  71.605  1.00  0.00    -0.344 C  
HETATM   20  C   UNL     1     -11.420   7.088  72.204  1.00  0.00    -0.312 C  
BRANCH  20  21
HETATM   21  C   UNL     1     -10.502   5.953  72.668  1.00  0.00    -0.237 A  
HETATM   22  C   UNL     1      -8.879   3.781  73.465  1.00  0.00    -0.092 A  
HETATM   23  C   UNL     1     -10.251   4.867  71.804  1.00  0.00    -0.268 A  
HETATM   24  C   UNL     1      -9.453   3.788  72.200  1.00  0.00    -0.194 A  
HETATM   25  C   UNL     1      -9.088   4.849  74.329  1.00  0.00    -0.111 A  
HETATM   26 CL   UNL     1      -7.896   2.459  73.960  1.00  0.00    -0.053 Cl 
HETATM   27  C   UNL     1      -9.877   5.932  73.925  1.00  0.00    -0.189 A  
ENDBRANCH  20  21
ENDBRANCH   4  15
TORSDOF 2
ENDMDL
MODEL       84
REMARK 921   NORMALIZED FREE ENERGY PREDICTED BY IDOCK:   -4.60 KCAL/MOL
REMARK 922        TOTAL FREE ENERGY PREDICTED BY IDOCK:   -6.01 KCAL/MOL
REMARK 923 INTER-LIGAND FREE ENERGY PREDICTED BY IDOCK:   -5.35 KCAL/MOL
REMARK 924 INTRA-LIGAND FREE ENERGY PREDICTED BY IDOCK:   -0.66 KCAL/MOL
REMARK 927      BINDING AFFINITY PREDICTED BY RF-SCORE:    0.00 PKD
ROOT
HETATM    1  O   UNL     1      -9.787   8.566  66.527  1.00  0.00    -0.237 OA 
HETATM    2  C   UNL     1      -8.920   8.716  67.595  1.00  0.00    -0.135 C  
HETATM    3  H   UNL     1      -9.993   7.729  66.127  1.00  0.00     0.000 HD 
HETATM    4  C   UNL     1      -8.628   9.904  68.162  1.00  0.00    -0.118 C  
HETATM    5  C   UNL     1      -7.585   9.937  69.258  1.00  0.00    -0.101 C  
HETATM    6  C   UNL     1      -7.373   7.473  69.210  1.00  0.00    -0.089 A  
HETATM    7  C   UNL     1      -6.864   6.284  69.755  1.00  0.00    -0.065 A  
HETATM    8  C   UNL     1      -6.937   8.693  69.694  1.00  0.00    -0.050 A  
HETATM    9  O   UNL     1      -7.278  10.984  69.822  1.00  0.00    -0.113 OA 
HETATM   10  C   UNL     1      -5.921   8.740  70.660  1.00  0.00    -0.033 A  
HETATM   11  C   UNL     1      -8.351   7.427  68.111  1.00  0.00    -0.124 C  
HETATM   12  C   UNL     1      -5.394   7.558  71.184  1.00  0.00    -0.027 A  
HETATM   13  O   UNL     1      -8.673   6.340  67.639  1.00  0.00    -0.114 OA 
HETATM   14  C   UNL     1      -5.885   6.329  70.750  1.00  0.00    -0.023 A  
ENDROOT
BRANCH   4  15
HETATM   15  C   UNL     1      -9.302  11.278  67.947  1.00  0.00    -0.161 C  
HETATM   16  C   UNL     1     -11.871  11.918  68.017  1.00  0.00    -0.323 C  
HETATM   17  C   UNL     1     -10.556  11.677  68.778  1.00  0.00    -0.241 C  
HETATM   18  C   UNL     1     -10.753  11.710  65.844  1.00  0.00    -0.328 C  
HETATM   19  C   UNL     1      -9.365  11.696  66.460  1.00  0.00    -0.216 C  
HETATM   20  C   UNL     1     -11.712  12.599  66.646  1.00  0.00    -0.464 C  
BRANCH  20  21
HETATM   21  C   UNL     1     -11.304  14.076  66.633  1.00  0.00    -0.345 A  
HETATM   22  C   UNL     1     -10.471  16.774  66.524  1.00  0.00    -0.258 A  
HETATM   23  C   UNL     1     -10.948  14.686  65.413  1.00  0.00    -0.358 A  
HETATM   24  C   UNL     1     -10.529  16.020  65.359  1.00  0.00    -0.415 A  
HETATM   25  C   UNL     1     -10.841  16.206  67.738  1.00  0.00    -0.318 A  
HETATM   26 CL   UNL     1      -9.958  18.415  66.468  1.00  0.00    -0.365 Cl 
HETATM   27  C   UNL     1     -11.270  14.876  67.786  1.00  0.00    -0.329 A  
ENDBRANCH  20  21
ENDBRANCH   4  15
TORSDOF 2
ENDMDL
MODEL       85
REMARK 921   NORMALIZED FREE ENERGY PREDICTED BY IDOCK:   -4.58 KCAL/MOL
REMARK 922        TOTAL FREE ENERGY PREDICTED BY IDOCK:   -5.99 KCAL/MOL
REMARK 923 INTER-LIGAND FREE ENERGY PREDICTED BY IDOCK:   -5.21 KCAL/MOL
REMARK 924 INTRA-LIGAND FREE ENERGY PREDICTED BY IDOCK:   -0.78 KCAL/MOL
REMARK 927      BINDING AFFINITY PREDICTED BY RF-SCORE:    0.00 PKD
ROOT
HETATM    1  O   UNL     1      -7.845  12.998  69.035  1.00  0.00    -0.325 OA 
HETATM    2  C   UNL     1      -8.679  13.431  68.019  1.00  0.00    -0.178 C  
HETATM    3  H   UNL     1      -7.409  13.582  69.645  1.00  0.00     0.000 HD 
HETATM    4  C   UNL     1      -9.296  12.602  67.153  1.00  0.00    -0.210 C  
HETATM    5  C   UNL     1     -10.100  13.213  66.027  1.00  0.00    -0.286 C  
HETATM    6  C   UNL     1      -9.707  15.492  66.906  1.00  0.00    -0.243 A  
HETATM    7  C   UNL     1      -9.964  16.871  66.873  1.00  0.00    -0.279 A  
HETATM    8  C   UNL     1     -10.213  14.673  65.912  1.00  0.00    -0.344 A  
HETATM    9  O   UNL     1     -10.694  12.517  65.208  1.00  0.00    -0.272 OA 
HETATM   10  C   UNL     1     -10.900  15.236  64.826  1.00  0.00    -0.379 A  
HETATM   11  C   UNL     1      -8.882  14.917  67.981  1.00  0.00    -0.167 C  
HETATM   12  C   UNL     1     -11.134  16.611  64.777  1.00  0.00    -0.120 A  
HETATM   13  O   UNL     1      -8.376  15.663  68.814  1.00  0.00    -0.162 OA 
HETATM   14  C   UNL     1     -10.689  17.425  65.816  1.00  0.00    -0.120 A  
ENDROOT
BRANCH   4  15
HETATM   15  C   UNL     1      -9.418  11.062  67.196  1.00  0.00    -0.181 C  
HETATM   16  C   UNL     1      -9.786   9.464  69.276  1.00  0.00    -0.173 C  
HETATM   17  C   UNL     1     -10.393  10.379  68.198  1.00  0.00    -0.202 C  
HETATM   18  C   UNL     1      -7.550   9.630  68.282  1.00  0.00    -0.078 C  
HETATM   19  C   UNL     1      -8.059  10.341  67.039  1.00  0.00    -0.121 C  
HETATM   20  C   UNL     1      -8.581   8.626  68.812  1.00  0.00    -0.130 C  
BRANCH  20  21
HETATM   21  C   UNL     1      -8.852   7.479  67.834  1.00  0.00    -0.126 A  
HETATM   22  C   UNL     1      -9.450   5.337  66.091  1.00  0.00    -0.158 A  
HETATM   23  C   UNL     1     -10.179   7.178  67.469  1.00  0.00    -0.272 A  
HETATM   24  C   UNL     1     -10.478   6.113  66.611  1.00  0.00    -0.267 A  
HETATM   25  C   UNL     1      -8.130   5.626  66.413  1.00  0.00    -0.106 A  
HETATM   26 CL   UNL     1      -9.807   4.026  65.035  1.00  0.00    -0.192 Cl 
HETATM   27  C   UNL     1      -7.835   6.698  67.262  1.00  0.00    -0.112 A  
ENDBRANCH  20  21
ENDBRANCH   4  15
TORSDOF 2
ENDMDL
MODEL       86
REMARK 921   NORMALIZED FREE ENERGY PREDICTED BY IDOCK:   -4.58 KCAL/MOL
REMARK 922        TOTAL FREE ENERGY PREDICTED BY IDOCK:   -5.99 KCAL/MOL
REMARK 923 INTER-LIGAND FREE ENERGY PREDICTED BY IDOCK:   -5.68 KCAL/MOL
REMARK 924 INTRA-LIGAND FREE ENERGY PREDICTED BY IDOCK:   -0.31 KCAL/MOL
REMARK 927      BINDING AFFINITY PREDICTED BY RF-SCORE:    0.00 PKD
ROOT
HETATM    1  O   UNL     1      -6.739  10.252  67.293  1.00  0.00    -0.071 OA 
HETATM    2  C   UNL     1      -8.034  10.738  67.276  1.00  0.00    -0.117 C  
HETATM    3  H   UNL     1      -5.970  10.794  67.161  1.00  0.00     0.000 HD 
HETATM    4  C   UNL     1      -9.126   9.968  67.463  1.00  0.00    -0.144 C  
HETATM    5  C   UNL     1     -10.488  10.611  67.318  1.00  0.00    -0.246 C  
HETATM    6  C   UNL     1      -9.466  12.838  66.981  1.00  0.00    -0.233 A  
HETATM    7  C   UNL     1      -9.593  14.229  66.847  1.00  0.00    -0.268 A  
HETATM    8  C   UNL     1     -10.596  12.042  67.005  1.00  0.00    -0.258 A  
HETATM    9  O   UNL     1     -11.522   9.970  67.483  1.00  0.00    -0.163 OA 
HETATM   10  C   UNL     1     -11.860  12.616  66.802  1.00  0.00    -0.440 A  
HETATM   11  C   UNL     1      -8.133  12.221  67.072  1.00  0.00    -0.141 C  
HETATM   12  C   UNL     1     -11.988  13.997  66.642  1.00  0.00    -0.473 A  
HETATM   13  O   UNL     1      -7.134  12.930  66.973  1.00  0.00    -0.033 OA 
HETATM   14  C   UNL     1     -10.856  14.807  66.691  1.00  0.00    -0.319 A  
ENDROOT
BRANCH   4  15
HETATM   15  C   UNL     1      -9.214   8.501  67.939  1.00  0.00    -0.148 C  
HETATM   16  C   UNL     1     -11.145   6.727  67.566  1.00  0.00    -0.340 C  
HETATM   17  C   UNL     1      -9.877   7.421  67.038  1.00  0.00    -0.273 C  
HETATM   18  C   UNL     1     -10.932   7.815  69.754  1.00  0.00    -0.162 C  
HETATM   19  C   UNL     1      -9.554   8.371  69.443  1.00  0.00    -0.170 C  
HETATM   20  C   UNL     1     -11.151   6.454  69.081  1.00  0.00    -0.428 C  
BRANCH  20  21
HETATM   21  C   UNL     1     -10.205   5.371  69.608  1.00  0.00    -0.345 A  
HETATM   22  C   UNL     1      -8.493   3.303  70.491  1.00  0.00    -0.060 A  
HETATM   23  C   UNL     1      -9.512   4.551  68.695  1.00  0.00    -0.220 A  
HETATM   24  C   UNL     1      -8.669   3.522  69.131  1.00  0.00    -0.136 A  
HETATM   25  C   UNL     1      -9.144   4.112  71.415  1.00  0.00    -0.182 A  
HETATM   26 CL   UNL     1      -7.460   2.041  71.036  1.00  0.00    -0.033 Cl 
HETATM   27  C   UNL     1      -9.976   5.147  70.975  1.00  0.00    -0.274 A  
ENDBRANCH  20  21
ENDBRANCH   4  15
TORSDOF 2
ENDMDL
MODEL       87
REMARK 921   NORMALIZED FREE ENERGY PREDICTED BY IDOCK:   -4.54 KCAL/MOL
REMARK 922        TOTAL FREE ENERGY PREDICTED BY IDOCK:   -5.95 KCAL/MOL
REMARK 923 INTER-LIGAND FREE ENERGY PREDICTED BY IDOCK:   -6.57 KCAL/MOL
REMARK 924 INTRA-LIGAND FREE ENERGY PREDICTED BY IDOCK:    0.62 KCAL/MOL
REMARK 927      BINDING AFFINITY PREDICTED BY RF-SCORE:    0.00 PKD
ROOT
HETATM    1  O   UNL     1      -8.518  11.318  64.711  1.00  0.00    -0.366 OA 
HETATM    2  C   UNL     1      -9.094  10.820  65.866  1.00  0.00    -0.188 C  
HETATM    3  H   UNL     1      -8.279  10.780  63.966  1.00  0.00     0.000 HD 
HETATM    4  C   UNL     1      -9.432  11.584  66.925  1.00  0.00    -0.194 C  
HETATM    5  C   UNL     1      -9.961  10.896  68.164  1.00  0.00    -0.174 C  
HETATM    6  C   UNL     1      -9.917   8.697  67.034  1.00  0.00    -0.317 A  
HETATM    7  C   UNL     1     -10.228   7.328  67.019  1.00  0.00    -0.348 A  
HETATM    8  C   UNL     1     -10.116   9.436  68.185  1.00  0.00    -0.215 A  
HETATM    9  O   UNL     1     -10.295  11.532  69.160  1.00  0.00    -0.167 OA 
HETATM   10  C   UNL     1     -10.539   8.797  69.361  1.00  0.00    -0.218 A  
HETATM   11  C   UNL     1      -9.357   9.343  65.835  1.00  0.00    -0.230 C  
HETATM   12  C   UNL     1     -10.823   7.431  69.356  1.00  0.00    -0.184 A  
HETATM   13  O   UNL     1      -9.113   8.661  64.843  1.00  0.00    -0.050 OA 
HETATM   14  C   UNL     1     -10.693   6.701  68.177  1.00  0.00    -0.320 A  
ENDROOT
BRANCH   4  15
HETATM   15  C   UNL     1      -9.483  13.124  67.038  1.00  0.00    -0.242 C  
HETATM   16  C   UNL     1      -8.820  14.680  69.076  1.00  0.00    -0.090 C  
HETATM   17  C   UNL     1      -8.384  13.890  67.830  1.00  0.00    -0.167 C  
HETATM   18  C   UNL     1     -11.193  14.265  68.617  1.00  0.00    -0.287 C  
HETATM   19  C   UNL     1     -10.915  13.670  67.247  1.00  0.00    -0.299 C  
HETATM   20  C   UNL     1     -10.189  15.374  68.959  1.00  0.00    -0.233 C  
BRANCH  20  21
HETATM   21  C   UNL     1     -10.292  16.580  68.021  1.00  0.00    -0.294 A  
HETATM   22  C   UNL     1     -10.555  18.858  66.370  1.00  0.00    -0.387 A  
HETATM   23  C   UNL     1     -10.347  17.879  68.565  1.00  0.00    -0.365 A  
HETATM   24  C   UNL     1     -10.484  19.008  67.749  1.00  0.00    -0.499 A  
HETATM   25  C   UNL     1     -10.479  17.592  65.804  1.00  0.00    -0.208 A  
HETATM   26 CL   UNL     1     -10.723  20.240  65.359  1.00  0.00    -0.231 Cl 
HETATM   27  C   UNL     1     -10.330  16.467  66.622  1.00  0.00    -0.298 A  
ENDBRANCH  20  21
ENDBRANCH   4  15
TORSDOF 2
ENDMDL
MODEL       88
REMARK 921   NORMALIZED FREE ENERGY PREDICTED BY IDOCK:   -4.54 KCAL/MOL
REMARK 922        TOTAL FREE ENERGY PREDICTED BY IDOCK:   -5.95 KCAL/MOL
REMARK 923 INTER-LIGAND FREE ENERGY PREDICTED BY IDOCK:   -6.35 KCAL/MOL
REMARK 924 INTRA-LIGAND FREE ENERGY PREDICTED BY IDOCK:    0.40 KCAL/MOL
REMARK 927      BINDING AFFINITY PREDICTED BY RF-SCORE:    0.00 PKD
ROOT
HETATM    1  O   UNL     1     -11.370   8.987  68.981  1.00  0.00    -0.419 OA 
HETATM    2  C   UNL     1     -10.468   8.768  67.954  1.00  0.00    -0.216 C  
HETATM    3  H   UNL     1     -11.717   8.297  69.535  1.00  0.00     0.000 HD 
HETATM    4  C   UNL     1      -9.977   9.748  67.168  1.00  0.00    -0.252 C  
HETATM    5  C   UNL     1      -9.076   9.357  66.017  1.00  0.00    -0.183 C  
HETATM    6  C   UNL     1      -9.123   6.983  66.710  1.00  0.00    -0.162 A  
HETATM    7  C   UNL     1      -8.656   5.666  66.577  1.00  0.00    -0.119 A  
HETATM    8  C   UNL     1      -8.739   7.945  65.794  1.00  0.00    -0.163 A  
HETATM    9  O   UNL     1      -8.588  10.199  65.268  1.00  0.00    -0.143 OA 
HETATM   10  C   UNL     1      -7.961   7.582  64.683  1.00  0.00    -0.133 A  
HETATM   11  C   UNL     1     -10.038   7.338  67.806  1.00  0.00    -0.180 C  
HETATM   12  C   UNL     1      -7.518   6.267  64.535  1.00  0.00    -0.087 A  
HETATM   13  O   UNL     1     -10.432   6.460  68.569  1.00  0.00    -0.179 OA 
HETATM   14  C   UNL     1      -7.843   5.314  65.497  1.00  0.00    -0.093 A  
ENDROOT
BRANCH   4  15
HETATM   15  C   UNL     1     -10.093  11.280  67.332  1.00  0.00    -0.214 C  
HETATM   16  C   UNL     1     -11.848  12.691  68.727  1.00  0.00    -0.341 C  
HETATM   17  C   UNL     1     -10.533  11.893  68.693  1.00  0.00    -0.231 C  
HETATM   18  C   UNL     1     -12.092  12.559  66.290  1.00  0.00    -0.315 C  
HETATM   19  C   UNL     1     -10.703  11.977  66.093  1.00  0.00    -0.312 C  
HETATM   20  C   UNL     1     -12.126  13.537  67.472  1.00  0.00    -0.340 C  
BRANCH  20  21
HETATM   21  C   UNL     1     -11.253  14.775  67.245  1.00  0.00    -0.351 A  
HETATM   22  C   UNL     1      -9.557  16.987  66.779  1.00  0.00    -0.264 A  
HETATM   23  C   UNL     1     -10.452  14.855  66.088  1.00  0.00    -0.313 A  
HETATM   24  C   UNL     1      -9.607  15.947  65.859  1.00  0.00    -0.378 A  
HETATM   25  C   UNL     1     -10.354  16.947  67.916  1.00  0.00    -0.332 A  
HETATM   26 CL   UNL     1      -8.522  18.333  66.506  1.00  0.00    -0.285 Cl 
HETATM   27  C   UNL     1     -11.206  15.859  68.135  1.00  0.00    -0.339 A  
ENDBRANCH  20  21
ENDBRANCH   4  15
TORSDOF 2
ENDMDL
MODEL       89
REMARK 921   NORMALIZED FREE ENERGY PREDICTED BY IDOCK:   -4.53 KCAL/MOL
REMARK 922        TOTAL FREE ENERGY PREDICTED BY IDOCK:   -5.93 KCAL/MOL
REMARK 923 INTER-LIGAND FREE ENERGY PREDICTED BY IDOCK:   -5.79 KCAL/MOL
REMARK 924 INTRA-LIGAND FREE ENERGY PREDICTED BY IDOCK:   -0.14 KCAL/MOL
REMARK 927      BINDING AFFINITY PREDICTED BY RF-SCORE:    0.00 PKD
ROOT
HETATM    1  O   UNL     1      -8.041  13.426  68.426  1.00  0.00    -0.144 OA 
HETATM    2  C   UNL     1      -8.939  12.891  67.520  1.00  0.00    -0.193 C  
HETATM    3  H   UNL     1      -7.831  14.352  68.478  1.00  0.00     0.000 HD 
HETATM    4  C   UNL     1      -9.236  11.578  67.447  1.00  0.00    -0.166 C  
HETATM    5  C   UNL     1     -10.159  11.113  66.342  1.00  0.00    -0.226 C  
HETATM    6  C   UNL     1     -10.536  13.442  65.599  1.00  0.00    -0.286 A  
HETATM    7  C   UNL     1     -11.217  14.369  64.794  1.00  0.00    -0.391 A  
HETATM    8  C   UNL     1     -10.726  12.087  65.400  1.00  0.00    -0.330 A  
HETATM    9  O   UNL     1     -10.477   9.933  66.222  1.00  0.00    -0.193 OA 
HETATM   10  C   UNL     1     -11.525  11.642  64.335  1.00  0.00    -0.302 A  
HETATM   11  C   UNL     1      -9.603  13.907  66.638  1.00  0.00    -0.289 C  
HETATM   12  C   UNL     1     -12.182  12.562  63.516  1.00  0.00    -0.652 A  
HETATM   13  O   UNL     1      -9.384  15.110  66.755  1.00  0.00    -0.219 OA 
HETATM   14  C   UNL     1     -12.049  13.926  63.763  1.00  0.00    -0.330 A  
ENDROOT
BRANCH   4  15
HETATM   15  C   UNL     1      -8.864  10.438  68.422  1.00  0.00    -0.136 C  
HETATM   16  C   UNL     1      -9.094   7.818  68.110  1.00  0.00    -0.129 C  
HETATM   17  C   UNL     1      -8.278   9.102  67.882  1.00  0.00    -0.112 C  
HETATM   18  C   UNL     1     -10.718   8.998  69.520  1.00  0.00    -0.215 C  
HETATM   19  C   UNL     1      -9.885  10.267  69.571  1.00  0.00    -0.244 C  
HETATM   20  C   UNL     1      -9.830   7.748  69.460  1.00  0.00    -0.179 C  
BRANCH  20  21
HETATM   21  C   UNL     1      -8.979   7.563  70.720  1.00  0.00    -0.149 A  
HETATM   22  C   UNL     1      -7.430   7.334  73.073  1.00  0.00    -0.072 A  
HETATM   23  C   UNL     1      -9.351   8.219  71.911  1.00  0.00    -0.282 A  
HETATM   24  C   UNL     1      -8.581   8.112  73.075  1.00  0.00    -0.284 A  
HETATM   25  C   UNL     1      -7.053   6.655  71.921  1.00  0.00    -0.080 A  
HETATM   26 CL   UNL     1      -6.478   7.197  74.499  1.00  0.00    -0.083 Cl 
HETATM   27  C   UNL     1      -7.831   6.755  70.763  1.00  0.00    -0.101 A  
ENDBRANCH  20  21
ENDBRANCH   4  15
TORSDOF 2
ENDMDL
MODEL       90
REMARK 921   NORMALIZED FREE ENERGY PREDICTED BY IDOCK:   -4.50 KCAL/MOL
REMARK 922        TOTAL FREE ENERGY PREDICTED BY IDOCK:   -5.90 KCAL/MOL
REMARK 923 INTER-LIGAND FREE ENERGY PREDICTED BY IDOCK:   -5.04 KCAL/MOL
REMARK 924 INTRA-LIGAND FREE ENERGY PREDICTED BY IDOCK:   -0.87 KCAL/MOL
REMARK 927      BINDING AFFINITY PREDICTED BY RF-SCORE:    0.00 PKD
ROOT
HETATM    1  O   UNL     1      -7.153   3.483  68.240  1.00  0.00    -0.050 OA 
HETATM    2  C   UNL     1      -8.051   3.630  67.197  1.00  0.00    -0.091 C  
HETATM    3  H   UNL     1      -6.419   2.880  68.223  1.00  0.00     0.000 HD 
HETATM    4  C   UNL     1      -9.093   4.485  67.222  1.00  0.00    -0.138 C  
HETATM    5  C   UNL     1     -10.056   4.473  66.055  1.00  0.00    -0.259 C  
HETATM    6  C   UNL     1      -8.669   2.817  64.851  1.00  0.00    -0.113 A  
HETATM    7  C   UNL     1      -8.384   2.079  63.692  1.00  0.00    -0.081 A  
HETATM    8  C   UNL     1      -9.831   3.563  64.925  1.00  0.00    -0.134 A  
HETATM    9  O   UNL     1     -11.022   5.231  66.009  1.00  0.00    -0.171 OA 
HETATM   10  C   UNL     1     -10.765   3.505  63.880  1.00  0.00    -0.248 A  
HETATM   11  C   UNL     1      -7.747   2.781  65.998  1.00  0.00    -0.080 C  
HETATM   12  C   UNL     1     -10.497   2.751  62.737  1.00  0.00    -0.150 A  
HETATM   13  O   UNL     1      -6.757   2.055  65.951  1.00  0.00    -0.033 OA 
HETATM   14  C   UNL     1      -9.293   2.058  62.632  1.00  0.00    -0.090 A  
ENDROOT
BRANCH   4  15
HETATM   15  C   UNL     1      -9.409   5.608  68.236  1.00  0.00    -0.123 C  
HETATM   16  C   UNL     1      -7.785   6.871  69.903  1.00  0.00    -0.109 C  
HETATM   17  C   UNL     1      -8.382   6.748  68.491  1.00  0.00    -0.120 C  
HETATM   18  C   UNL     1      -9.287   5.143  70.783  1.00  0.00    -0.210 C  
HETATM   19  C   UNL     1     -10.115   5.091  69.511  1.00  0.00    -0.301 C  
HETATM   20  C   UNL     1      -8.762   6.560  71.050  1.00  0.00    -0.138 C  
BRANCH  20  21
HETATM   21  C   UNL     1      -9.884   7.568  71.317  1.00  0.00    -0.188 A  
HETATM   22  C   UNL     1     -12.033   9.343  71.784  1.00  0.00    -0.382 A  
HETATM   23  C   UNL     1     -11.076   7.133  71.931  1.00  0.00    -0.268 A  
HETATM   24  C   UNL     1     -12.143   8.009  72.157  1.00  0.00    -0.391 A  
HETATM   25  C   UNL     1     -10.860   9.806  71.199  1.00  0.00    -0.333 A  
HETATM   26 CL   UNL     1     -13.340  10.428  72.057  1.00  0.00    -0.514 Cl 
HETATM   27  C   UNL     1      -9.791   8.929  70.986  1.00  0.00    -0.321 A  
ENDBRANCH  20  21
ENDBRANCH   4  15
TORSDOF 2
ENDMDL
MODEL       91
REMARK 921   NORMALIZED FREE ENERGY PREDICTED BY IDOCK:   -4.50 KCAL/MOL
REMARK 922        TOTAL FREE ENERGY PREDICTED BY IDOCK:   -5.90 KCAL/MOL
REMARK 923 INTER-LIGAND FREE ENERGY PREDICTED BY IDOCK:   -5.74 KCAL/MOL
REMARK 924 INTRA-LIGAND FREE ENERGY PREDICTED BY IDOCK:   -0.16 KCAL/MOL
REMARK 927      BINDING AFFINITY PREDICTED BY RF-SCORE:    0.00 PKD
ROOT
HETATM    1  O   UNL     1      -6.800  12.598  68.682  1.00  0.00    -0.080 OA 
HETATM    2  C   UNL     1      -7.863  12.882  67.843  1.00  0.00    -0.151 C  
HETATM    3  H   UNL     1      -6.216  13.259  69.037  1.00  0.00     0.000 HD 
HETATM    4  C   UNL     1      -8.691  11.944  67.340  1.00  0.00    -0.166 C  
HETATM    5  C   UNL     1      -9.752  12.382  66.354  1.00  0.00    -0.240 C  
HETATM    6  C   UNL     1      -9.122  14.756  66.640  1.00  0.00    -0.300 A  
HETATM    7  C   UNL     1      -9.365  16.118  66.402  1.00  0.00    -0.329 A  
HETATM    8  C   UNL     1      -9.875  13.798  65.986  1.00  0.00    -0.298 A  
HETATM    9  O   UNL     1     -10.543  11.581  65.863  1.00  0.00    -0.254 OA 
HETATM   10  C   UNL     1     -10.813  14.187  65.018  1.00  0.00    -0.408 A  
HETATM   11  C   UNL     1      -8.055  14.344  67.565  1.00  0.00    -0.190 C  
HETATM   12  C   UNL     1     -11.038  15.540  64.759  1.00  0.00    -0.421 A  
HETATM   13  O   UNL     1      -7.343  15.202  68.082  1.00  0.00    -0.101 OA 
HETATM   14  C   UNL     1     -10.332  16.507  65.472  1.00  0.00    -0.307 A  
ENDROOT
BRANCH   4  15
HETATM   15  C   UNL     1      -8.814  10.450  67.714  1.00  0.00    -0.128 C  
HETATM   16  C   UNL     1      -9.589   8.403  66.223  1.00  0.00    -0.286 C  
HETATM   17  C   UNL     1      -8.462   9.348  66.674  1.00  0.00    -0.130 C  
HETATM   18  C   UNL     1     -11.145   9.329  67.878  1.00  0.00     0.068 C  
HETATM   19  C   UNL     1     -10.065  10.141  68.570  1.00  0.00    -0.186 C  
HETATM   20  C   UNL     1     -10.587   8.010  67.327  1.00  0.00    -0.360 C  
BRANCH  20  21
HETATM   21  C   UNL     1     -10.089   7.070  68.428  1.00  0.00    -0.176 A  
HETATM   22  C   UNL     1      -9.259   5.374  70.530  1.00  0.00    -0.147 A  
HETATM   23  C   UNL     1     -11.023   6.430  69.268  1.00  0.00    -0.418 A  
HETATM   24  C   UNL     1     -10.613   5.595  70.314  1.00  0.00    -0.370 A  
HETATM   25  C   UNL     1      -8.316   5.971  69.702  1.00  0.00    -0.119 A  
HETATM   26 CL   UNL     1      -8.745   4.349  71.813  1.00  0.00    -0.124 Cl 
HETATM   27  C   UNL     1      -8.731   6.796  68.651  1.00  0.00    -0.125 A  
ENDBRANCH  20  21
ENDBRANCH   4  15
TORSDOF 2
ENDMDL
MODEL       92
REMARK 921   NORMALIZED FREE ENERGY PREDICTED BY IDOCK:   -4.40 KCAL/MOL
REMARK 922        TOTAL FREE ENERGY PREDICTED BY IDOCK:   -5.79 KCAL/MOL
REMARK 923 INTER-LIGAND FREE ENERGY PREDICTED BY IDOCK:   -5.51 KCAL/MOL
REMARK 924 INTRA-LIGAND FREE ENERGY PREDICTED BY IDOCK:   -0.28 KCAL/MOL
REMARK 927      BINDING AFFINITY PREDICTED BY RF-SCORE:    0.00 PKD
ROOT
HETATM    1  O   UNL     1      -9.088   6.239  64.984  1.00  0.00    -0.353 OA 
HETATM    2  C   UNL     1      -9.150   5.866  66.315  1.00  0.00    -0.149 C  
HETATM    3  H   UNL     1      -9.105   5.623  64.261  1.00  0.00     0.000 HD 
HETATM    4  C   UNL     1      -9.125   6.741  67.341  1.00  0.00    -0.117 C  
HETATM    5  C   UNL     1      -9.097   6.191  68.750  1.00  0.00    -0.126 C  
HETATM    6  C   UNL     1      -9.311   3.873  67.912  1.00  0.00    -0.227 A  
HETATM    7  C   UNL     1      -9.499   2.503  68.153  1.00  0.00    -0.217 A  
HETATM    8  C   UNL     1      -9.121   4.739  68.974  1.00  0.00    -0.157 A  
HETATM    9  O   UNL     1      -9.082   6.932  69.730  1.00  0.00    -0.144 OA 
HETATM   10  C   UNL     1      -9.023   4.234  70.279  1.00  0.00    -0.147 A  
HETATM   11  C   UNL     1      -9.291   4.388  66.534  1.00  0.00    -0.159 C  
HETATM   12  C   UNL     1      -9.183   2.869  70.519  1.00  0.00    -0.209 A  
HETATM   13  O   UNL     1      -9.385   3.600  65.596  1.00  0.00    -0.151 OA 
HETATM   14  C   UNL     1      -9.448   2.006  69.458  1.00  0.00    -0.113 A  
ENDROOT
BRANCH   4  15
HETATM   15  C   UNL     1      -9.247   8.281  67.311  1.00  0.00    -0.165 C  
HETATM   16  C   UNL     1      -8.450  10.063  69.101  1.00  0.00    -0.156 C  
HETATM   17  C   UNL     1      -8.112   9.170  67.894  1.00  0.00    -0.105 C  
HETATM   18  C   UNL     1     -10.833   9.501  68.959  1.00  0.00    -0.184 C  
HETATM   19  C   UNL     1     -10.675   8.782  67.630  1.00  0.00    -0.206 C  
HETATM   20  C   UNL     1      -9.860  10.681  69.076  1.00  0.00    -0.218 C  
BRANCH  20  21
HETATM   21  C   UNL     1     -10.132  11.780  68.044  1.00  0.00    -0.198 A  
HETATM   22  C   UNL     1     -10.717  13.736  66.091  1.00  0.00    -0.283 A  
HETATM   23  C   UNL     1     -11.446  11.981  67.576  1.00  0.00    -0.403 A  
HETATM   24  C   UNL     1     -11.736  12.945  66.604  1.00  0.00    -0.452 A  
HETATM   25  C   UNL     1      -9.415  13.578  66.552  1.00  0.00    -0.265 A  
HETATM   26 CL   UNL     1     -11.063  14.924  64.896  1.00  0.00    -0.412 Cl 
HETATM   27  C   UNL     1      -9.132  12.621  67.532  1.00  0.00    -0.192 A  
ENDBRANCH  20  21
ENDBRANCH   4  15
TORSDOF 2
ENDMDL
MODEL       93
REMARK 921   NORMALIZED FREE ENERGY PREDICTED BY IDOCK:   -4.32 KCAL/MOL
REMARK 922        TOTAL FREE ENERGY PREDICTED BY IDOCK:   -5.70 KCAL/MOL
REMARK 923 INTER-LIGAND FREE ENERGY PREDICTED BY IDOCK:   -4.80 KCAL/MOL
REMARK 924 INTRA-LIGAND FREE ENERGY PREDICTED BY IDOCK:   -0.90 KCAL/MOL
REMARK 927      BINDING AFFINITY PREDICTED BY RF-SCORE:    0.00 PKD
ROOT
HETATM    1  O   UNL     1     -10.287   9.451  65.595  1.00  0.00    -0.250 OA 
HETATM    2  C   UNL     1     -10.251  10.790  65.944  1.00  0.00    -0.259 C  
HETATM    3  H   UNL     1     -10.661   9.127  64.784  1.00  0.00     0.000 HD 
HETATM    4  C   UNL     1      -9.721  11.249  67.096  1.00  0.00    -0.201 C  
HETATM    5  C   UNL     1      -9.838  12.727  67.398  1.00  0.00    -0.210 C  
HETATM    6  C   UNL     1     -10.879  13.154  65.195  1.00  0.00    -0.321 A  
HETATM    7  C   UNL     1     -11.350  14.051  64.224  1.00  0.00    -0.277 A  
HETATM    8  C   UNL     1     -10.493  13.624  66.437  1.00  0.00    -0.288 A  
HETATM    9  O   UNL     1      -9.371  13.213  68.425  1.00  0.00    -0.207 OA 
HETATM   10  C   UNL     1     -10.661  14.981  66.754  1.00  0.00    -0.308 A  
HETATM   11  C   UNL     1     -10.817  11.713  64.905  1.00  0.00    -0.301 C  
HETATM   12  C   UNL     1     -11.154  15.871  65.799  1.00  0.00    -0.076 A  
HETATM   13  O   UNL     1     -11.234  11.298  63.827  1.00  0.00    -0.359 OA 
HETATM   14  C   UNL     1     -11.474  15.410  64.524  1.00  0.00    -0.314 A  
ENDROOT
BRANCH   4  15
HETATM   15  C   UNL     1      -8.873  10.498  68.147  1.00  0.00    -0.134 C  
HETATM   16  C   UNL     1      -7.403   8.312  67.868  1.00  0.00    -0.096 C  
HETATM   17  C   UNL     1      -7.522   9.841  67.742  1.00  0.00    -0.090 C  
HETATM   18  C   UNL     1      -9.589   8.146  68.968  1.00  0.00    -0.156 C  
HETATM   19  C   UNL     1      -9.726   9.651  69.121  1.00  0.00    -0.180 C  
HETATM   20  C   UNL     1      -8.125   7.703  69.083  1.00  0.00    -0.125 C  
BRANCH  20  21
HETATM   21  C   UNL     1      -7.529   7.974  70.468  1.00  0.00    -0.071 A  
HETATM   22  C   UNL     1      -6.325   8.436  72.982  1.00  0.00    -0.098 A  
HETATM   23  C   UNL     1      -6.214   8.470  70.572  1.00  0.00    -0.035 A  
HETATM   24  C   UNL     1      -5.614   8.694  71.817  1.00  0.00    -0.046 A  
HETATM   25  C   UNL     1      -7.632   7.970  72.910  1.00  0.00    -0.168 A  
HETATM   26 CL   UNL     1      -5.595   8.707  74.517  1.00  0.00    -0.105 Cl 
HETATM   27  C   UNL     1      -8.232   7.760  71.664  1.00  0.00    -0.121 A  
ENDBRANCH  20  21
ENDBRANCH   4  15
TORSDOF 2
ENDMDL
MODEL       94
REMARK 921   NORMALIZED FREE ENERGY PREDICTED BY IDOCK:   -4.29 KCAL/MOL
REMARK 922        TOTAL FREE ENERGY PREDICTED BY IDOCK:   -5.67 KCAL/MOL
REMARK 923 INTER-LIGAND FREE ENERGY PREDICTED BY IDOCK:   -6.16 KCAL/MOL
REMARK 924 INTRA-LIGAND FREE ENERGY PREDICTED BY IDOCK:    0.49 KCAL/MOL
REMARK 927      BINDING AFFINITY PREDICTED BY RF-SCORE:    0.00 PKD
ROOT
HETATM    1  O   UNL     1     -11.235  15.773  64.138  1.00  0.00    -0.802 OA 
HETATM    2  C   UNL     1     -10.750  16.286  65.327  1.00  0.00    -0.332 C  
HETATM    3  H   UNL     1     -11.588  16.308  63.437  1.00  0.00     0.000 HD 
HETATM    4  C   UNL     1     -10.250  15.526  66.323  1.00  0.00    -0.308 C  
HETATM    5  C   UNL     1      -9.847  16.209  67.611  1.00  0.00    -0.236 C  
HETATM    6  C   UNL     1     -10.342  18.435  66.655  1.00  0.00    -0.422 A  
HETATM    7  C   UNL     1     -10.306  19.835  66.745  1.00  0.00    -0.604 A  
HETATM    8  C   UNL     1      -9.982  17.665  67.745  1.00  0.00    -0.315 A  
HETATM    9  O   UNL     1      -9.378  15.577  68.555  1.00  0.00    -0.186 OA 
HETATM   10  C   UNL     1      -9.673  18.283  68.967  1.00  0.00    -0.225 A  
HETATM   11  C   UNL     1     -10.783  17.784  65.411  1.00  0.00     0.086 C  
HETATM   12  C   UNL     1      -9.663  19.675  69.067  1.00  0.00    -0.428 A  
HETATM   13  O   UNL     1     -11.172  18.477  64.474  1.00  0.00     0.209 OA 
HETATM   14  C   UNL     1      -9.954  20.452  67.948  1.00  0.00    -0.428 A  
ENDROOT
BRANCH   4  15
HETATM   15  C   UNL     1      -9.897  14.022  66.317  1.00  0.00    -0.318 C  
HETATM   16  C   UNL     1     -10.732  12.093  67.929  1.00  0.00    -0.237 C  
HETATM   17  C   UNL     1     -10.974  12.960  66.680  1.00  0.00    -0.302 C  
HETATM   18  C   UNL     1      -8.475  13.004  68.230  1.00  0.00    -0.159 C  
HETATM   19  C   UNL     1      -8.492  13.727  66.895  1.00  0.00    -0.081 C  
HETATM   20  C   UNL     1      -9.266  11.691  68.165  1.00  0.00    -0.184 C  
BRANCH  20  21
HETATM   21  C   UNL     1      -8.648  10.672  67.202  1.00  0.00    -0.127 A  
HETATM   22  C   UNL     1      -7.413   8.864  65.416  1.00  0.00    -0.086 A  
HETATM   23  C   UNL     1      -7.257  10.449  67.228  1.00  0.00    -0.089 A  
HETATM   24  C   UNL     1      -6.643   9.559  66.340  1.00  0.00    -0.071 A  
HETATM   25  C   UNL     1      -8.791   9.045  65.384  1.00  0.00    -0.237 A  
HETATM   26 CL   UNL     1      -6.668   7.768  64.319  1.00  0.00    -0.056 Cl 
HETATM   27  C   UNL     1      -9.401   9.927  66.282  1.00  0.00    -0.224 A  
ENDBRANCH  20  21
ENDBRANCH   4  15
TORSDOF 2
ENDMDL
MODEL       95
REMARK 921   NORMALIZED FREE ENERGY PREDICTED BY IDOCK:   -4.28 KCAL/MOL
REMARK 922        TOTAL FREE ENERGY PREDICTED BY IDOCK:   -5.66 KCAL/MOL
REMARK 923 INTER-LIGAND FREE ENERGY PREDICTED BY IDOCK:   -5.48 KCAL/MOL
REMARK 924 INTRA-LIGAND FREE ENERGY PREDICTED BY IDOCK:   -0.18 KCAL/MOL
REMARK 927      BINDING AFFINITY PREDICTED BY RF-SCORE:    0.00 PKD
ROOT
HETATM    1  O   UNL     1     -10.898   8.431  71.093  1.00  0.00    -0.224 OA 
HETATM    2  C   UNL     1     -10.501   7.558  70.096  1.00  0.00    -0.222 C  
HETATM    3  H   UNL     1     -11.026   8.175  71.999  1.00  0.00     0.000 HD 
HETATM    4  C   UNL     1     -10.320   7.922  68.810  1.00  0.00    -0.220 C  
HETATM    5  C   UNL     1      -9.982   6.845  67.802  1.00  0.00    -0.148 C  
HETATM    6  C   UNL     1      -9.864   5.133  69.584  1.00  0.00    -0.286 A  
HETATM    7  C   UNL     1      -9.557   3.829  70.001  1.00  0.00    -0.259 A  
HETATM    8  C   UNL     1      -9.835   5.450  68.238  1.00  0.00    -0.196 A  
HETATM    9  O   UNL     1      -9.797   7.108  66.617  1.00  0.00    -0.194 OA 
HETATM   10  C   UNL     1      -9.592   4.446  67.288  1.00  0.00    -0.220 A  
HETATM   11  C   UNL     1     -10.239   6.159  70.570  1.00  0.00    -0.199 C  
HETATM   12  C   UNL     1      -9.313   3.142  67.700  1.00  0.00    -0.247 A  
HETATM   13  O   UNL     1     -10.335   5.847  71.755  1.00  0.00    -0.204 OA 
HETATM   14  C   UNL     1      -9.269   2.839  69.059  1.00  0.00    -0.221 A  
ENDROOT
BRANCH   4  15
HETATM   15  C   UNL     1     -10.284   9.338  68.193  1.00  0.00    -0.246 C  
HETATM   16  C   UNL     1      -8.898  11.465  68.952  1.00  0.00    -0.010 C  
HETATM   17  C   UNL     1      -8.955  10.146  68.160  1.00  0.00    -0.122 C  
HETATM   18  C   UNL     1     -11.291  11.351  69.479  1.00  0.00    -0.357 C  
HETATM   19  C   UNL     1     -11.533  10.182  68.540  1.00  0.00    -0.098 C  
HETATM   20  C   UNL     1     -10.200  12.285  68.939  1.00  0.00    -0.041 C  
BRANCH  20  21
HETATM   21  C   UNL     1     -10.596  12.964  67.624  1.00  0.00    -0.232 A  
HETATM   22  C   UNL     1     -11.289  14.319  65.243  1.00  0.00    -0.336 A  
HETATM   23  C   UNL     1      -9.803  14.014  67.120  1.00  0.00    -0.240 A  
HETATM   24  C   UNL     1     -10.149  14.691  65.944  1.00  0.00    -0.341 A  
HETATM   25  C   UNL     1     -12.076  13.270  65.702  1.00  0.00    -0.488 A  
HETATM   26 CL   UNL     1     -11.721  15.144  63.797  1.00  0.00     0.318 Cl 
HETATM   27  C   UNL     1     -11.720  12.588  66.872  1.00  0.00    -0.447 A  
ENDBRANCH  20  21
ENDBRANCH   4  15
TORSDOF 2
ENDMDL
MODEL       96
REMARK 921   NORMALIZED FREE ENERGY PREDICTED BY IDOCK:   -4.26 KCAL/MOL
REMARK 922        TOTAL FREE ENERGY PREDICTED BY IDOCK:   -5.63 KCAL/MOL
REMARK 923 INTER-LIGAND FREE ENERGY PREDICTED BY IDOCK:   -5.50 KCAL/MOL
REMARK 924 INTRA-LIGAND FREE ENERGY PREDICTED BY IDOCK:   -0.12 KCAL/MOL
REMARK 927      BINDING AFFINITY PREDICTED BY RF-SCORE:    0.00 PKD
ROOT
HETATM    1  O   UNL     1     -10.525   5.137  71.824  1.00  0.00    -0.213 OA 
HETATM    2  C   UNL     1     -10.200   4.943  70.493  1.00  0.00    -0.218 C  
HETATM    3  H   UNL     1     -10.480   4.455  72.483  1.00  0.00     0.000 HD 
HETATM    4  C   UNL     1     -10.265   5.911  69.557  1.00  0.00    -0.288 C  
HETATM    5  C   UNL     1      -9.979   5.537  68.119  1.00  0.00    -0.153 C  
HETATM    6  C   UNL     1      -9.398   3.224  68.776  1.00  0.00    -0.235 A  
HETATM    7  C   UNL     1      -8.892   1.956  68.450  1.00  0.00    -0.140 A  
HETATM    8  C   UNL     1      -9.617   4.155  67.777  1.00  0.00    -0.208 A  
HETATM    9  O   UNL     1     -10.013   6.371  67.218  1.00  0.00    -0.128 OA 
HETATM   10  C   UNL     1      -9.421   3.799  66.434  1.00  0.00    -0.197 A  
HETATM   11  C   UNL     1      -9.719   3.558  70.173  1.00  0.00    -0.085 C  
HETATM   12  C   UNL     1      -8.943   2.529  66.105  1.00  0.00    -0.123 A  
HETATM   13  O   UNL     1      -9.593   2.698  71.041  1.00  0.00    -0.148 OA 
HETATM   14  C   UNL     1      -8.653   1.616  67.117  1.00  0.00    -0.109 A  
ENDROOT
BRANCH   4  15
HETATM   15  C   UNL     1     -10.478   7.431  69.739  1.00  0.00    -0.235 C  
HETATM   16  C   UNL     1     -10.151   8.924  71.902  1.00  0.00    -0.393 C  
HETATM   17  C   UNL     1      -9.534   8.251  70.664  1.00  0.00    -0.181 C  
HETATM   18  C   UNL     1     -12.423   8.313  71.208  1.00  0.00    -0.264 C  
HETATM   19  C   UNL     1     -11.970   7.826  69.843  1.00  0.00     0.585 C  
HETATM   20  C   UNL     1     -11.567   9.490  71.694  1.00  0.00    -0.451 C  
BRANCH  20  21
HETATM   21  C   UNL     1     -11.710  10.733  70.809  1.00  0.00    -0.400 A  
HETATM   22  C   UNL     1     -11.860  13.008  69.141  1.00  0.00    -0.310 A  
HETATM   23  C   UNL     1     -11.089  10.758  69.545  1.00  0.00    -0.334 A  
HETATM   24  C   UNL     1     -11.157  11.887  68.720  1.00  0.00    -0.296 A  
HETATM   25  C   UNL     1     -12.504  13.003  70.373  1.00  0.00    -0.266 A  
HETATM   26 CL   UNL     1     -11.950  14.401  68.135  1.00  0.00    -0.351 Cl 
HETATM   27  C   UNL     1     -12.443  11.868  71.189  1.00  0.00    -0.365 A  
ENDBRANCH  20  21
ENDBRANCH   4  15
TORSDOF 2
ENDMDL
MODEL       97
REMARK 921   NORMALIZED FREE ENERGY PREDICTED BY IDOCK:   -4.24 KCAL/MOL
REMARK 922        TOTAL FREE ENERGY PREDICTED BY IDOCK:   -5.61 KCAL/MOL
REMARK 923 INTER-LIGAND FREE ENERGY PREDICTED BY IDOCK:   -5.62 KCAL/MOL
REMARK 924 INTRA-LIGAND FREE ENERGY PREDICTED BY IDOCK:    0.00 KCAL/MOL
REMARK 927      BINDING AFFINITY PREDICTED BY RF-SCORE:    0.00 PKD
ROOT
HETATM    1  O   UNL     1      -8.202   8.239  69.410  1.00  0.00    -0.113 OA 
HETATM    2  C   UNL     1      -8.266   8.470  68.047  1.00  0.00    -0.120 C  
HETATM    3  H   UNL     1      -7.621   7.602  69.810  1.00  0.00     0.000 HD 
HETATM    4  C   UNL     1      -9.090   9.374  67.479  1.00  0.00    -0.136 C  
HETATM    5  C   UNL     1      -9.132   9.453  65.968  1.00  0.00    -0.183 C  
HETATM    6  C   UNL     1      -7.323   7.779  65.771  1.00  0.00    -0.076 A  
HETATM    7  C   UNL     1      -6.396   7.073  64.988  1.00  0.00    -0.037 A  
HETATM    8  C   UNL     1      -8.273   8.577  65.162  1.00  0.00    -0.153 A  
HETATM    9  O   UNL     1      -9.854  10.259  65.386  1.00  0.00    -0.255 OA 
HETATM   10  C   UNL     1      -8.368   8.606  63.762  1.00  0.00    -0.116 A  
HETATM   11  C   UNL     1      -7.301   7.654  67.238  1.00  0.00    -0.091 C  
HETATM   12  C   UNL     1      -7.465   7.884  62.981  1.00  0.00    -0.118 A  
HETATM   13  O   UNL     1      -6.502   6.884  67.764  1.00  0.00    -0.046 OA 
HETATM   14  C   UNL     1      -6.461   7.138  63.595  1.00  0.00    -0.044 A  
ENDROOT
BRANCH   4  15
HETATM   15  C   UNL     1      -9.947  10.470  68.151  1.00  0.00    -0.172 C  
HETATM   16  C   UNL     1     -11.645  12.182  67.056  1.00  0.00    -0.406 C  
HETATM   17  C   UNL     1     -11.379  10.779  67.629  1.00  0.00    -0.328 C  
HETATM   18  C   UNL     1      -9.427  12.975  67.737  1.00  0.00    -0.209 C  
HETATM   19  C   UNL     1      -9.129  11.723  68.543  1.00  0.00    -0.144 C  
HETATM   20  C   UNL     1     -10.919  13.328  67.783  1.00  0.00    -0.278 C  
BRANCH  20  21
HETATM   21  C   UNL     1     -11.401  13.690  69.191  1.00  0.00    -0.335 A  
HETATM   22  C   UNL     1     -12.186  14.414  71.807  1.00  0.00    -0.278 A  
HETATM   23  C   UNL     1     -11.055  14.940  69.742  1.00  0.00    -0.300 A  
HETATM   24  C   UNL     1     -11.437  15.298  71.040  1.00  0.00    -0.396 A  
HETATM   25  C   UNL     1     -12.564  13.185  71.281  1.00  0.00    -0.382 A  
HETATM   26 CL   UNL     1     -12.662  14.845  73.403  1.00  0.00    -0.619 Cl 
HETATM   27  C   UNL     1     -12.189  12.836  69.978  1.00  0.00    -0.279 A  
ENDBRANCH  20  21
ENDBRANCH   4  15
TORSDOF 2
ENDMDL
MODEL       98
REMARK 921   NORMALIZED FREE ENERGY PREDICTED BY IDOCK:   -4.24 KCAL/MOL
REMARK 922        TOTAL FREE ENERGY PREDICTED BY IDOCK:   -5.61 KCAL/MOL
REMARK 923 INTER-LIGAND FREE ENERGY PREDICTED BY IDOCK:   -5.29 KCAL/MOL
REMARK 924 INTRA-LIGAND FREE ENERGY PREDICTED BY IDOCK:   -0.33 KCAL/MOL
REMARK 927      BINDING AFFINITY PREDICTED BY RF-SCORE:    0.00 PKD
ROOT
HETATM    1  O   UNL     1      -8.028  11.281  69.890  1.00  0.00    -0.096 OA 
HETATM    2  C   UNL     1      -8.633  11.047  68.668  1.00  0.00    -0.157 C  
HETATM    3  H   UNL     1      -7.840  12.149  70.228  1.00  0.00     0.000 HD 
HETATM    4  C   UNL     1      -8.900   9.815  68.188  1.00  0.00    -0.119 C  
HETATM    5  C   UNL     1      -9.473   9.698  66.793  1.00  0.00    -0.161 C  
HETATM    6  C   UNL     1      -9.616  12.159  66.584  1.00  0.00    -0.226 A  
HETATM    7  C   UNL     1     -10.038  13.299  65.883  1.00  0.00    -0.296 A  
HETATM    8  C   UNL     1      -9.746  10.909  66.007  1.00  0.00    -0.268 A  
HETATM    9  O   UNL     1      -9.746   8.608  66.298  1.00  0.00    -0.244 OA 
HETATM   10  C   UNL     1     -10.210  10.792  64.688  1.00  0.00    -0.419 A  
HETATM   11  C   UNL     1      -9.016  12.291  67.921  1.00  0.00    -0.186 C  
HETATM   12  C   UNL     1     -10.604  11.928  63.978  1.00  0.00    -0.422 A  
HETATM   13  O   UNL     1      -8.837  13.411  68.392  1.00  0.00    -0.178 OA 
HETATM   14  C   UNL     1     -10.544  13.179  64.586  1.00  0.00    -0.410 A  
ENDROOT
BRANCH   4  15
HETATM   15  C   UNL     1      -8.824   8.450  68.910  1.00  0.00    -0.143 C  
HETATM   16  C   UNL     1      -8.701   6.012  67.883  1.00  0.00    -0.112 C  
HETATM   17  C   UNL     1      -7.969   7.294  68.316  1.00  0.00    -0.124 C  
HETATM   18  C   UNL     1     -10.826   6.806  68.816  1.00  0.00    -0.280 C  
HETATM   19  C   UNL     1     -10.181   8.000  69.499  1.00  0.00    -0.209 C  
HETATM   20  C   UNL     1      -9.878   5.600  68.786  1.00  0.00    -0.193 C  
BRANCH  20  21
HETATM   21  C   UNL     1      -9.545   5.071  70.184  1.00  0.00    -0.257 A  
HETATM   22  C   UNL     1      -8.860   4.012  72.713  1.00  0.00    -0.102 A  
HETATM   23  C   UNL     1      -8.240   4.617  70.461  1.00  0.00    -0.085 A  
HETATM   24  C   UNL     1      -7.901   4.087  71.711  1.00  0.00    -0.071 A  
HETATM   25  C   UNL     1     -10.149   4.475  72.476  1.00  0.00    -0.233 A  
HETATM   26 CL   UNL     1      -8.453   3.362  74.252  1.00  0.00    -0.083 Cl 
HETATM   27  C   UNL     1     -10.481   5.015  71.229  1.00  0.00    -0.213 A  
ENDBRANCH  20  21
ENDBRANCH   4  15
TORSDOF 2
ENDMDL
MODEL       99
REMARK 921   NORMALIZED FREE ENERGY PREDICTED BY IDOCK:   -4.24 KCAL/MOL
REMARK 922        TOTAL FREE ENERGY PREDICTED BY IDOCK:   -5.61 KCAL/MOL
REMARK 923 INTER-LIGAND FREE ENERGY PREDICTED BY IDOCK:   -6.11 KCAL/MOL
REMARK 924 INTRA-LIGAND FREE ENERGY PREDICTED BY IDOCK:    0.50 KCAL/MOL
REMARK 927      BINDING AFFINITY PREDICTED BY RF-SCORE:    0.00 PKD
ROOT
HETATM    1  O   UNL     1     -11.662  13.461  70.279  1.00  0.00    -0.490 OA 
HETATM    2  C   UNL     1     -11.049  12.785  69.239  1.00  0.00    -0.133 C  
HETATM    3  H   UNL     1     -12.246  13.048  70.905  1.00  0.00     0.000 HD 
HETATM    4  C   UNL     1     -10.221  13.371  68.350  1.00  0.00    -0.251 C  
HETATM    5  C   UNL     1      -9.698  12.536  67.202  1.00  0.00    -0.205 C  
HETATM    6  C   UNL     1     -10.790  10.508  68.102  1.00  0.00    -0.300 A  
HETATM    7  C   UNL     1     -11.001   9.121  68.066  1.00  0.00    -0.032 A  
HETATM    8  C   UNL     1     -10.075  11.121  67.089  1.00  0.00    -0.223 A  
HETATM    9  O   UNL     1      -8.934  13.005  66.362  1.00  0.00    -0.133 OA 
HETATM   10  C   UNL     1      -9.644  10.372  65.984  1.00  0.00    -0.251 A  
HETATM   11  C   UNL     1     -11.346  11.314  69.199  1.00  0.00    -0.282 C  
HETATM   12  C   UNL     1      -9.877   8.997  65.933  1.00  0.00    -0.257 A  
HETATM   13  O   UNL     1     -12.044  10.771  70.052  1.00  0.00    -0.302 OA 
HETATM   14  C   UNL     1     -10.533   8.366  66.988  1.00  0.00    -0.375 A  
ENDROOT
BRANCH   4  15
HETATM   15  C   UNL     1      -9.598  14.784  68.384  1.00  0.00    -0.213 C  
HETATM   16  C   UNL     1      -9.701  16.708  66.566  1.00  0.00    -0.291 C  
HETATM   17  C   UNL     1     -10.356  15.992  67.760  1.00  0.00    -0.279 C  
HETATM   18  C   UNL     1      -7.644  15.392  66.793  1.00  0.00     0.022 C  
HETATM   19  C   UNL     1      -8.075  14.782  68.115  1.00  0.00    -0.134 C  
HETATM   20  C   UNL     1      -8.169  16.826  66.641  1.00  0.00    -0.296 C  
BRANCH  20  21
HETATM   21  C   UNL     1      -7.583  17.786  67.681  1.00  0.00    -0.215 A  
HETATM   22  C   UNL     1      -6.436  19.467  69.641  1.00  0.00    -0.315 A  
HETATM   23  C   UNL     1      -6.229  17.662  68.054  1.00  0.00    -0.158 A  
HETATM   24  C   UNL     1      -5.662  18.490  69.029  1.00  0.00    -0.210 A  
HETATM   25  C   UNL     1      -7.767  19.629  69.276  1.00  0.00    -0.159 A  
HETATM   26 CL   UNL     1      -5.748  20.489  70.842  1.00  0.00    -0.271 Cl 
HETATM   27  C   UNL     1      -8.327  18.807  68.291  1.00  0.00    -0.360 A  
ENDBRANCH  20  21
ENDBRANCH   4  15
TORSDOF 2
ENDMDL
MODEL      100
REMARK 921   NORMALIZED FREE ENERGY PREDICTED BY IDOCK:   -4.23 KCAL/MOL
REMARK 922        TOTAL FREE ENERGY PREDICTED BY IDOCK:   -5.61 KCAL/MOL
REMARK 923 INTER-LIGAND FREE ENERGY PREDICTED BY IDOCK:   -4.73 KCAL/MOL
REMARK 924 INTRA-LIGAND FREE ENERGY PREDICTED BY IDOCK:   -0.88 KCAL/MOL
REMARK 927      BINDING AFFINITY PREDICTED BY RF-SCORE:    0.00 PKD
ROOT
HETATM    1  O   UNL     1      -6.392   6.641  66.768  1.00  0.00    -0.039 OA 
HETATM    2  C   UNL     1      -7.409   5.943  66.142  1.00  0.00    -0.081 C  
HETATM    3  H   UNL     1      -5.488   6.633  66.474  1.00  0.00     0.000 HD 
HETATM    4  C   UNL     1      -8.692   5.953  66.559  1.00  0.00    -0.126 C  
HETATM    5  C   UNL     1      -9.685   5.065  65.843  1.00  0.00    -0.166 C  
HETATM    6  C   UNL     1      -7.969   4.372  64.202  1.00  0.00    -0.091 A  
HETATM    7  C   UNL     1      -7.614   3.704  63.019  1.00  0.00    -0.058 A  
HETATM    8  C   UNL     1      -9.248   4.239  64.710  1.00  0.00    -0.156 A  
HETATM    9  O   UNL     1     -10.869   5.032  66.167  1.00  0.00    -0.294 OA 
HETATM   10  C   UNL     1     -10.157   3.364  64.095  1.00  0.00    -0.192 A  
HETATM   11  C   UNL     1      -6.979   5.194  64.915  1.00  0.00    -0.054 C  
HETATM   12  C   UNL     1      -9.798   2.678  62.934  1.00  0.00    -0.094 A  
HETATM   13  O   UNL     1      -5.825   5.244  64.496  1.00  0.00    -0.020 OA 
HETATM   14  C   UNL     1      -8.534   2.869  62.381  1.00  0.00    -0.074 A  
ENDROOT
BRANCH   4  15
HETATM   15  C   UNL     1      -9.364   6.854  67.620  1.00  0.00    -0.124 C  
HETATM   16  C   UNL     1      -8.678   9.275  68.446  1.00  0.00    -0.129 C  
HETATM   17  C   UNL     1      -9.417   8.396  67.422  1.00  0.00    -0.185 C  
HETATM   18  C   UNL     1      -8.171   7.343  69.869  1.00  0.00    -0.132 C  
HETATM   19  C   UNL     1      -9.064   6.409  69.071  1.00  0.00    -0.130 C  
HETATM   20  C   UNL     1      -8.737   8.768  69.898  1.00  0.00    -0.135 C  
BRANCH  20  21
HETATM   21  C   UNL     1     -10.082   8.859  70.625  1.00  0.00    -0.262 A  
HETATM   22  C   UNL     1     -12.562   9.144  71.949  1.00  0.00    -0.388 A  
HETATM   23  C   UNL     1     -11.042   9.797  70.193  1.00  0.00    -0.335 A  
HETATM   24  C   UNL     1     -12.267   9.944  70.852  1.00  0.00    -0.420 A  
HETATM   25  C   UNL     1     -11.645   8.194  72.382  1.00  0.00    -0.463 A  
HETATM   26 CL   UNL     1     -14.066   9.318  72.766  1.00  0.00    -0.291 Cl 
HETATM   27  C   UNL     1     -10.426   8.042  71.713  1.00  0.00    -0.287 A  
ENDBRANCH  20  21
ENDBRANCH   4  15
TORSDOF 2
ENDMDL
MODEL      101
REMARK 921   NORMALIZED FREE ENERGY PREDICTED BY IDOCK:   -4.23 KCAL/MOL
REMARK 922        TOTAL FREE ENERGY PREDICTED BY IDOCK:   -5.60 KCAL/MOL
REMARK 923 INTER-LIGAND FREE ENERGY PREDICTED BY IDOCK:   -4.78 KCAL/MOL
REMARK 924 INTRA-LIGAND FREE ENERGY PREDICTED BY IDOCK:   -0.82 KCAL/MOL
REMARK 927      BINDING AFFINITY PREDICTED BY RF-SCORE:    0.00 PKD
ROOT
HETATM    1  O   UNL     1      -6.437  10.627  68.515  1.00  0.00    -0.054 OA 
HETATM    2  C   UNL     1      -7.754  10.964  68.256  1.00  0.00    -0.111 C  
HETATM    3  H   UNL     1      -5.694  11.143  68.226  1.00  0.00     0.000 HD 
HETATM    4  C   UNL     1      -8.809  10.231  68.666  1.00  0.00    -0.137 C  
HETATM    5  C   UNL     1     -10.192  10.661  68.228  1.00  0.00    -0.166 C  
HETATM    6  C   UNL     1      -9.281  12.681  67.130  1.00  0.00    -0.214 A  
HETATM    7  C   UNL     1      -9.480  13.909  66.479  1.00  0.00    -0.288 A  
HETATM    8  C   UNL     1     -10.361  11.860  67.397  1.00  0.00    -0.228 A  
HETATM    9  O   UNL     1     -11.197  10.043  68.572  1.00  0.00    -0.211 OA 
HETATM   10  C   UNL     1     -11.638  12.213  66.935  1.00  0.00    -0.408 A  
HETATM   11  C   UNL     1      -7.924  12.254  67.507  1.00  0.00    -0.166 C  
HETATM   12  C   UNL     1     -11.835  13.420  66.264  1.00  0.00    -0.438 A  
HETATM   13  O   UNL     1      -6.964  12.955  67.197  1.00  0.00    -0.103 OA 
HETATM   14  C   UNL     1     -10.759  14.281  66.060  1.00  0.00    -0.304 A  
ENDROOT
BRANCH   4  15
HETATM   15  C   UNL     1      -8.846   9.043  69.652  1.00  0.00    -0.145 C  
HETATM   16  C   UNL     1      -6.989   8.208  71.347  1.00  0.00    -0.059 C  
HETATM   17  C   UNL     1      -8.163   9.156  71.046  1.00  0.00    -0.186 C  
HETATM   18  C   UNL     1      -7.341   6.969  69.260  1.00  0.00    -0.092 C  
HETATM   19  C   UNL     1      -8.652   7.674  68.959  1.00  0.00    -0.136 C  
HETATM   20  C   UNL     1      -7.136   6.789  70.770  1.00  0.00    -0.068 C  
BRANCH  20  21
HETATM   21  C   UNL     1      -8.185   5.872  71.406  1.00  0.00    -0.123 A  
HETATM   22  C   UNL     1     -10.059   4.187  72.683  1.00  0.00    -0.165 A  
HETATM   23  C   UNL     1      -8.575   6.088  72.743  1.00  0.00    -0.124 A  
HETATM   24  C   UNL     1      -9.499   5.251  73.379  1.00  0.00    -0.141 A  
HETATM   25  C   UNL     1      -9.712   3.964  71.357  1.00  0.00    -0.246 A  
HETATM   26 CL   UNL     1     -11.195   3.152  73.457  1.00  0.00    -0.317 Cl 
HETATM   27  C   UNL     1      -8.797   4.811  70.721  1.00  0.00    -0.153 A  
ENDBRANCH  20  21
ENDBRANCH   4  15
TORSDOF 2
ENDMDL
MODEL      102
REMARK 921   NORMALIZED FREE ENERGY PREDICTED BY IDOCK:   -4.21 KCAL/MOL
REMARK 922        TOTAL FREE ENERGY PREDICTED BY IDOCK:   -5.58 KCAL/MOL
REMARK 923 INTER-LIGAND FREE ENERGY PREDICTED BY IDOCK:   -4.64 KCAL/MOL
REMARK 924 INTRA-LIGAND FREE ENERGY PREDICTED BY IDOCK:   -0.94 KCAL/MOL
REMARK 927      BINDING AFFINITY PREDICTED BY RF-SCORE:    0.00 PKD
ROOT
HETATM    1  O   UNL     1      -8.395   7.600  68.483  1.00  0.00    -0.127 OA 
HETATM    2  C   UNL     1      -8.073   7.352  67.160  1.00  0.00    -0.114 C  
HETATM    3  H   UNL     1      -8.197   7.004  69.195  1.00  0.00     0.000 HD 
HETATM    4  C   UNL     1      -8.355   8.198  66.149  1.00  0.00    -0.126 C  
HETATM    5  C   UNL     1      -8.038   7.757  64.737  1.00  0.00    -0.131 C  
HETATM    6  C   UNL     1      -6.991   5.673  65.561  1.00  0.00    -0.065 A  
HETATM    7  C   UNL     1      -6.251   4.505  65.322  1.00  0.00    -0.034 A  
HETATM    8  C   UNL     1      -7.418   6.447  64.498  1.00  0.00    -0.089 A  
HETATM    9  O   UNL     1      -8.262   8.481  63.770  1.00  0.00    -0.161 OA 
HETATM   10  C   UNL     1      -7.191   6.014  63.182  1.00  0.00    -0.055 A  
HETATM   11  C   UNL     1      -7.335   6.065  66.937  1.00  0.00    -0.076 C  
HETATM   12  C   UNL     1      -6.479   4.838  62.942  1.00  0.00    -0.026 A  
HETATM   13  O   UNL     1      -7.016   5.330  67.869  1.00  0.00    -0.062 OA 
HETATM   14  C   UNL     1      -5.985   4.097  64.013  1.00  0.00    -0.014 A  
ENDROOT
BRANCH   4  15
HETATM   15  C   UNL     1      -8.862   9.657  66.211  1.00  0.00    -0.172 C  
HETATM   16  C   UNL     1      -8.651  11.426  68.171  1.00  0.00    -0.153 C  
HETATM   17  C   UNL     1      -8.026  10.748  66.939  1.00  0.00    -0.133 C  
HETATM   18  C   UNL     1     -10.800  10.303  67.806  1.00  0.00    -0.346 C  
HETATM   19  C   UNL     1     -10.387   9.759  66.449  1.00  0.00    -0.247 C  
HETATM   20  C   UNL     1     -10.167  11.674  68.076  1.00  0.00    -0.202 C  
BRANCH  20  21
HETATM   21  C   UNL     1     -10.647  12.753  67.101  1.00  0.00    -0.249 A  
HETATM   22  C   UNL     1     -11.618  14.667  65.264  1.00  0.00    -0.354 A  
HETATM   23  C   UNL     1     -12.025  12.879  66.831  1.00  0.00    -0.402 A  
HETATM   24  C   UNL     1     -12.507  13.823  65.917  1.00  0.00    -0.512 A  
HETATM   25  C   UNL     1     -10.257  14.582  65.528  1.00  0.00    -0.394 A  
HETATM   26 CL   UNL     1     -12.201  15.830  64.138  1.00  0.00    -0.095 Cl 
HETATM   27  C   UNL     1      -9.781  13.646  66.452  1.00  0.00    -0.300 A  
ENDBRANCH  20  21
ENDBRANCH   4  15
TORSDOF 2
ENDMDL
MODEL      103
REMARK 921   NORMALIZED FREE ENERGY PREDICTED BY IDOCK:   -4.20 KCAL/MOL
REMARK 922        TOTAL FREE ENERGY PREDICTED BY IDOCK:   -5.56 KCAL/MOL
REMARK 923 INTER-LIGAND FREE ENERGY PREDICTED BY IDOCK:   -5.24 KCAL/MOL
REMARK 924 INTRA-LIGAND FREE ENERGY PREDICTED BY IDOCK:   -0.32 KCAL/MOL
REMARK 927      BINDING AFFINITY PREDICTED BY RF-SCORE:    0.00 PKD
ROOT
HETATM    1  O   UNL     1     -12.368  10.597  68.510  1.00  0.00    -0.814 OA 
HETATM    2  C   UNL     1     -11.182  11.280  68.308  1.00  0.00    -0.267 C  
HETATM    3  H   UNL     1     -13.215  10.911  68.217  1.00  0.00     0.000 HD 
HETATM    4  C   UNL     1      -9.980  10.834  68.724  1.00  0.00    -0.201 C  
HETATM    5  C   UNL     1      -8.776  11.729  68.527  1.00  0.00    -0.118 C  
HETATM    6  C   UNL     1     -10.143  13.397  67.315  1.00  0.00    -0.238 A  
HETATM    7  C   UNL     1     -10.237  14.571  66.551  1.00  0.00    -0.282 A  
HETATM    8  C   UNL     1      -8.931  13.037  67.876  1.00  0.00    -0.200 A  
HETATM    9  O   UNL     1      -7.651  11.381  68.876  1.00  0.00    -0.124 OA 
HETATM   10  C   UNL     1      -7.825  13.892  67.760  1.00  0.00    -0.172 A  
HETATM   11  C   UNL     1     -11.332  12.560  67.539  1.00  0.00    -0.312 C  
HETATM   12  C   UNL     1      -7.924  15.074  67.024  1.00  0.00    -0.197 A  
HETATM   13  O   UNL     1     -12.418  12.929  67.099  1.00  0.00    -0.248 OA 
HETATM   14  C   UNL     1      -9.124  15.400  66.397  1.00  0.00    -0.350 A  
ENDROOT
BRANCH   4  15
HETATM   15  C   UNL     1      -9.597   9.446  69.285  1.00  0.00    -0.171 C  
HETATM   16  C   UNL     1      -7.483   8.738  70.716  1.00  0.00    -0.087 C  
HETATM   17  C   UNL     1      -8.905   9.323  70.673  1.00  0.00    -0.287 C  
HETATM   18  C   UNL     1      -7.554   8.167  68.331  1.00  0.00    -0.105 C  
HETATM   19  C   UNL     1      -9.033   8.491  68.207  1.00  0.00    -0.139 C  
HETATM   20  C   UNL     1      -7.221   7.597  69.717  1.00  0.00    -0.079 C  
BRANCH  20  21
HETATM   21  C   UNL     1      -7.902   6.251  69.985  1.00  0.00    -0.106 A  
HETATM   22  C   UNL     1      -9.127   3.779  70.595  1.00  0.00    -0.111 A  
HETATM   23  C   UNL     1      -8.584   6.050  71.202  1.00  0.00    -0.129 A  
HETATM   24  C   UNL     1      -9.186   4.824  71.508  1.00  0.00    -0.186 A  
HETATM   25  C   UNL     1      -8.483   3.956  69.376  1.00  0.00    -0.093 A  
HETATM   26 CL   UNL     1      -9.863   2.268  70.962  1.00  0.00    -0.147 Cl 
HETATM   27  C   UNL     1      -7.893   5.187  69.069  1.00  0.00    -0.081 A  
ENDBRANCH  20  21
ENDBRANCH   4  15
TORSDOF 2
ENDMDL
MODEL      104
REMARK 921   NORMALIZED FREE ENERGY PREDICTED BY IDOCK:   -4.19 KCAL/MOL
REMARK 922        TOTAL FREE ENERGY PREDICTED BY IDOCK:   -5.56 KCAL/MOL
REMARK 923 INTER-LIGAND FREE ENERGY PREDICTED BY IDOCK:   -4.71 KCAL/MOL
REMARK 924 INTRA-LIGAND FREE ENERGY PREDICTED BY IDOCK:   -0.85 KCAL/MOL
REMARK 927      BINDING AFFINITY PREDICTED BY RF-SCORE:    0.00 PKD
ROOT
HETATM    1  O   UNL     1     -10.093  11.046  66.881  1.00  0.00    -0.197 OA 
HETATM    2  C   UNL     1     -10.654  10.734  68.106  1.00  0.00    -0.203 C  
HETATM    3  H   UNL     1     -10.185  11.893  66.459  1.00  0.00     0.000 HD 
HETATM    4  C   UNL     1     -10.525   9.532  68.705  1.00  0.00    -0.237 C  
HETATM    5  C   UNL     1     -11.274   9.292  69.997  1.00  0.00    -0.168 C  
HETATM    6  C   UNL     1     -12.079  11.630  70.033  1.00  0.00    -0.395 A  
HETATM    7  C   UNL     1     -12.733  12.683  70.692  1.00  0.00    -0.141 A  
HETATM    8  C   UNL     1     -12.096  10.360  70.580  1.00  0.00    -0.443 A  
HETATM    9  O   UNL     1     -11.195   8.223  70.598  1.00  0.00    -0.257 OA 
HETATM   10  C   UNL     1     -12.845  10.108  71.740  1.00  0.00    -0.554 A  
HETATM   11  C   UNL     1     -11.395  11.868  68.752  1.00  0.00    -0.274 C  
HETATM   12  C   UNL     1     -13.518  11.148  72.382  1.00  0.00     0.208 A  
HETATM   13  O   UNL     1     -11.451  12.982  68.238  1.00  0.00    -0.270 OA 
HETATM   14  C   UNL     1     -13.440  12.442  71.872  1.00  0.00    -0.366 A  
ENDROOT
BRANCH   4  15
HETATM   15  C   UNL     1      -9.601   8.351  68.331  1.00  0.00    -0.157 C  
HETATM   16  C   UNL     1      -7.205   8.386  67.202  1.00  0.00    -0.084 C  
HETATM   17  C   UNL     1      -8.058   8.484  68.479  1.00  0.00    -0.122 C  
HETATM   18  C   UNL     1      -9.153   7.777  65.843  1.00  0.00    -0.122 C  
HETATM   19  C   UNL     1     -10.056   7.607  67.053  1.00  0.00    -0.338 C  
HETATM   20  C   UNL     1      -7.709   7.370  66.161  1.00  0.00    -0.094 C  
BRANCH  20  21
HETATM   21  C   UNL     1      -7.571   5.883  66.500  1.00  0.00    -0.095 A  
HETATM   22  C   UNL     1      -7.198   3.153  67.128  1.00  0.00    -0.058 A  
HETATM   23  C   UNL     1      -6.565   5.466  67.396  1.00  0.00    -0.053 A  
HETATM   24  C   UNL     1      -6.375   4.114  67.703  1.00  0.00    -0.037 A  
HETATM   25  C   UNL     1      -8.213   3.537  66.261  1.00  0.00    -0.100 A  
HETATM   26 CL   UNL     1      -6.972   1.489  67.499  1.00  0.00    -0.035 Cl 
HETATM   27  C   UNL     1      -8.408   4.891  65.966  1.00  0.00    -0.113 A  
ENDBRANCH  20  21
ENDBRANCH   4  15
TORSDOF 2
ENDMDL
MODEL      105
REMARK 921   NORMALIZED FREE ENERGY PREDICTED BY IDOCK:   -4.16 KCAL/MOL
REMARK 922        TOTAL FREE ENERGY PREDICTED BY IDOCK:   -5.52 KCAL/MOL
REMARK 923 INTER-LIGAND FREE ENERGY PREDICTED BY IDOCK:   -4.81 KCAL/MOL
REMARK 924 INTRA-LIGAND FREE ENERGY PREDICTED BY IDOCK:   -0.71 KCAL/MOL
REMARK 927      BINDING AFFINITY PREDICTED BY RF-SCORE:    0.00 PKD
ROOT
HETATM    1  O   UNL     1      -7.240   8.015  70.221  1.00  0.00    -0.051 OA 
HETATM    2  C   UNL     1      -7.716   7.008  69.401  1.00  0.00    -0.108 C  
HETATM    3  H   UNL     1      -6.664   7.865  70.962  1.00  0.00     0.000 HD 
HETATM    4  C   UNL     1      -8.533   7.222  68.349  1.00  0.00    -0.125 C  
HETATM    5  C   UNL     1      -9.060   6.020  67.597  1.00  0.00    -0.109 C  
HETATM    6  C   UNL     1      -7.696   4.485  68.975  1.00  0.00    -0.070 A  
HETATM    7  C   UNL     1      -7.199   3.199  69.238  1.00  0.00    -0.045 A  
HETATM    8  C   UNL     1      -8.661   4.665  68.002  1.00  0.00    -0.107 A  
HETATM    9  O   UNL     1      -9.802   6.143  66.626  1.00  0.00    -0.157 OA 
HETATM   10  C   UNL     1      -9.208   3.553  67.345  1.00  0.00    -0.226 A  
HETATM   11  C   UNL     1      -7.210   5.639  69.749  1.00  0.00    -0.069 C  
HETATM   12  C   UNL     1      -8.736   2.269  67.623  1.00  0.00    -0.139 A  
HETATM   13  O   UNL     1      -6.409   5.457  70.662  1.00  0.00    -0.025 OA 
HETATM   14  C   UNL     1      -7.711   2.095  68.551  1.00  0.00    -0.053 A  
ENDROOT
BRANCH   4  15
HETATM   15  C   UNL     1      -8.941   8.557  67.688  1.00  0.00    -0.141 C  
HETATM   16  C   UNL     1      -7.929  10.980  68.031  1.00  0.00    -0.115 C  
HETATM   17  C   UNL     1      -7.861   9.616  67.324  1.00  0.00    -0.095 C  
HETATM   18  C   UNL     1     -10.070  10.422  69.090  1.00  0.00    -0.236 C  
HETATM   19  C   UNL     1     -10.243   9.152  68.275  1.00  0.00    -0.242 C  
HETATM   20  C   UNL     1      -9.351  11.511  68.282  1.00  0.00    -0.190 C  
BRANCH  20  21
HETATM   21  C   UNL     1     -10.157  11.978  67.066  1.00  0.00    -0.221 A  
HETATM   22  C   UNL     1     -11.540  12.869  64.769  1.00  0.00    -0.331 A  
HETATM   23  C   UNL     1      -9.637  11.778  65.771  1.00  0.00    -0.253 A  
HETATM   24  C   UNL     1     -10.317  12.224  64.633  1.00  0.00    -0.330 A  
HETATM   25  C   UNL     1     -12.090  13.058  66.031  1.00  0.00    -0.493 A  
HETATM   26 CL   UNL     1     -12.385  13.422  63.376  1.00  0.00    -0.476 Cl 
HETATM   27  C   UNL     1     -11.411  12.599  67.165  1.00  0.00    -0.406 A  
ENDBRANCH  20  21
ENDBRANCH   4  15
TORSDOF 2
ENDMDL
MODEL      106
REMARK 921   NORMALIZED FREE ENERGY PREDICTED BY IDOCK:   -4.13 KCAL/MOL
REMARK 922        TOTAL FREE ENERGY PREDICTED BY IDOCK:   -5.49 KCAL/MOL
REMARK 923 INTER-LIGAND FREE ENERGY PREDICTED BY IDOCK:   -5.51 KCAL/MOL
REMARK 924 INTRA-LIGAND FREE ENERGY PREDICTED BY IDOCK:    0.01 KCAL/MOL
REMARK 927      BINDING AFFINITY PREDICTED BY RF-SCORE:    0.00 PKD
ROOT
HETATM    1  O   UNL     1     -11.408  10.776  68.450  1.00  0.00    -0.268 OA 
HETATM    2  C   UNL     1     -10.489  10.327  67.518  1.00  0.00    -0.244 C  
HETATM    3  H   UNL     1     -11.948  10.200  68.979  1.00  0.00     0.000 HD 
HETATM    4  C   UNL     1      -9.723  11.145  66.768  1.00  0.00    -0.220 C  
HETATM    5  C   UNL     1      -8.832  10.524  65.715  1.00  0.00    -0.175 C  
HETATM    6  C   UNL     1      -9.468   8.246  66.436  1.00  0.00    -0.287 A  
HETATM    7  C   UNL     1      -9.296   6.854  66.370  1.00  0.00    -0.183 A  
HETATM    8  C   UNL     1      -8.799   9.065  65.546  1.00  0.00    -0.233 A  
HETATM    9  O   UNL     1      -8.103  11.210  65.002  1.00  0.00     0.149 OA 
HETATM   10  C   UNL     1      -8.025   8.500  64.521  1.00  0.00    -0.145 A  
HETATM   11  C   UNL     1     -10.376   8.833  67.434  1.00  0.00    -0.280 C  
HETATM   12  C   UNL     1      -7.874   7.115  64.436  1.00  0.00    -0.115 A  
HETATM   13  O   UNL     1     -11.023   8.092  68.169  1.00  0.00     0.009 OA 
HETATM   14  C   UNL     1      -8.489   6.293  65.378  1.00  0.00    -0.131 A  
ENDROOT
BRANCH   4  15
HETATM   15  C   UNL     1      -9.510  12.670  66.896  1.00  0.00    -0.229 C  
HETATM   16  C   UNL     1      -8.020  14.019  68.621  1.00  0.00    -0.122 C  
HETATM   17  C   UNL     1      -8.119  13.238  67.299  1.00  0.00    -0.150 C  
HETATM   18  C   UNL     1     -10.451  13.956  68.940  1.00  0.00    -0.199 C  
HETATM   19  C   UNL     1     -10.708  13.397  67.552  1.00  0.00    -0.263 C  
HETATM   20  C   UNL     1      -9.240  14.898  68.948  1.00  0.00    -0.192 C  
BRANCH  20  21
HETATM   21  C   UNL     1      -9.457  16.152  68.095  1.00  0.00    -0.209 A  
HETATM   22  C   UNL     1      -9.974  18.456  66.544  1.00  0.00    -0.379 A  
HETATM   23  C   UNL     1     -10.447  17.083  68.470  1.00  0.00    -0.373 A  
HETATM   24  C   UNL     1     -10.708  18.221  67.699  1.00  0.00    -0.373 A  
HETATM   25  C   UNL     1      -8.974  17.570  66.163  1.00  0.00    -0.156 A  
HETATM   26 CL   UNL     1     -10.288  19.853  65.590  1.00  0.00    -0.507 Cl 
HETATM   27  C   UNL     1      -8.708  16.439  66.943  1.00  0.00    -0.233 A  
ENDBRANCH  20  21
ENDBRANCH   4  15
TORSDOF 2
ENDMDL
MODEL      107
REMARK 921   NORMALIZED FREE ENERGY PREDICTED BY IDOCK:   -4.01 KCAL/MOL
REMARK 922        TOTAL FREE ENERGY PREDICTED BY IDOCK:   -5.35 KCAL/MOL
REMARK 923 INTER-LIGAND FREE ENERGY PREDICTED BY IDOCK:   -5.25 KCAL/MOL
REMARK 924 INTRA-LIGAND FREE ENERGY PREDICTED BY IDOCK:   -0.11 KCAL/MOL
REMARK 927      BINDING AFFINITY PREDICTED BY RF-SCORE:    0.00 PKD
ROOT
HETATM    1  O   UNL     1      -6.338   9.204  66.710  1.00  0.00    -0.064 OA 
HETATM    2  C   UNL     1      -7.500   8.455  66.650  1.00  0.00    -0.082 C  
HETATM    3  H   UNL     1      -5.486   8.878  66.447  1.00  0.00     0.000 HD 
HETATM    4  C   UNL     1      -8.710   8.918  67.024  1.00  0.00    -0.130 C  
HETATM    5  C   UNL     1      -9.881   7.960  67.002  1.00  0.00    -0.225 C  
HETATM    6  C   UNL     1      -8.475   6.173  66.029  1.00  0.00    -0.141 A  
HETATM    7  C   UNL     1      -8.350   4.897  65.456  1.00  0.00    -0.123 A  
HETATM    8  C   UNL     1      -9.688   6.573  66.560  1.00  0.00    -0.177 A  
HETATM    9  O   UNL     1     -11.011   8.318  67.323  1.00  0.00    -0.135 OA 
HETATM   10  C   UNL     1     -10.761   5.670  66.610  1.00  0.00    -0.339 A  
HETATM   11  C   UNL     1      -7.315   7.076  66.087  1.00  0.00    -0.075 C  
HETATM   12  C   UNL     1     -10.631   4.392  66.065  1.00  0.00    -0.013 A  
HETATM   13  O   UNL     1      -6.225   6.682  65.681  1.00  0.00    -0.036 OA 
HETATM   14  C   UNL     1      -9.433   4.015  65.464  1.00  0.00    -0.176 A  
ENDROOT
BRANCH   4  15
HETATM   15  C   UNL     1      -9.136  10.362  67.371  1.00  0.00    -0.144 C  
HETATM   16  C   UNL     1     -11.460  11.256  68.275  1.00  0.00    -0.378 C  
HETATM   17  C   UNL     1     -10.085  10.633  68.574  1.00  0.00    -0.185 C  
HETATM   18  C   UNL     1     -10.889  11.596  65.914  1.00  0.00    -0.339 C  
HETATM   19  C   UNL     1      -9.431  11.224  66.121  1.00  0.00    -0.232 C  
HETATM   20  C   UNL     1     -11.467  12.303  67.147  1.00  0.00    -0.419 C  
BRANCH  20  21
HETATM   21  C   UNL     1     -10.795  13.650  67.429  1.00  0.00    -0.282 A  
HETATM   22  C   UNL     1      -9.644  16.162  68.023  1.00  0.00    -0.220 A  
HETATM   23  C   UNL     1     -10.847  14.193  68.728  1.00  0.00    -0.271 A  
HETATM   24  C   UNL     1     -10.284  15.440  69.022  1.00  0.00    -0.233 A  
HETATM   25  C   UNL     1      -9.554  15.640  66.738  1.00  0.00    -0.257 A  
HETATM   26 CL   UNL     1      -8.948  17.695  68.375  1.00  0.00    -0.275 Cl 
HETATM   27  C   UNL     1     -10.109  14.388  66.451  1.00  0.00    -0.294 A  
ENDBRANCH  20  21
ENDBRANCH   4  15
TORSDOF 2
ENDMDL
MODEL      108
REMARK 921   NORMALIZED FREE ENERGY PREDICTED BY IDOCK:   -3.99 KCAL/MOL
REMARK 922        TOTAL FREE ENERGY PREDICTED BY IDOCK:   -5.34 KCAL/MOL
REMARK 923 INTER-LIGAND FREE ENERGY PREDICTED BY IDOCK:   -4.45 KCAL/MOL
REMARK 924 INTRA-LIGAND FREE ENERGY PREDICTED BY IDOCK:   -0.89 KCAL/MOL
REMARK 927      BINDING AFFINITY PREDICTED BY RF-SCORE:    0.00 PKD
ROOT
HETATM    1  O   UNL     1      -9.270   5.974  66.946  1.00  0.00    -0.121 OA 
HETATM    2  C   UNL     1      -9.297   5.900  68.327  1.00  0.00    -0.116 C  
HETATM    3  H   UNL     1      -9.335   5.217  66.376  1.00  0.00     0.000 HD 
HETATM    4  C   UNL     1      -9.204   6.975  69.137  1.00  0.00    -0.138 C  
HETATM    5  C   UNL     1      -9.146   6.743  70.631  1.00  0.00    -0.155 C  
HETATM    6  C   UNL     1      -9.473   4.310  70.324  1.00  0.00    -0.245 A  
HETATM    7  C   UNL     1      -9.703   3.035  70.863  1.00  0.00    -0.155 A  
HETATM    8  C   UNL     1      -9.214   5.377  71.166  1.00  0.00    -0.175 A  
HETATM    9  O   UNL     1      -9.069   7.677  71.425  1.00  0.00    -0.132 OA 
HETATM   10  C   UNL     1      -9.088   5.163  72.547  1.00  0.00    -0.142 A  
HETATM   11  C   UNL     1      -9.485   4.512  68.867  1.00  0.00    -0.160 C  
HETATM   12  C   UNL     1      -9.289   3.890  73.083  1.00  0.00    -0.127 A  
HETATM   13  O   UNL     1      -9.640   3.545  68.127  1.00  0.00    -0.174 OA 
HETATM   14  C   UNL     1      -9.623   2.830  72.243  1.00  0.00    -0.198 A  
ENDROOT
BRANCH   4  15
HETATM   15  C   UNL     1      -9.271   8.476  68.776  1.00  0.00    -0.142 C  
HETATM   16  C   UNL     1     -10.283   9.642  66.623  1.00  0.00    -0.302 C  
HETATM   17  C   UNL     1     -10.508   9.049  68.025  1.00  0.00    -0.270 C  
HETATM   18  C   UNL     1      -7.849   9.417  66.824  1.00  0.00    -0.105 C  
HETATM   19  C   UNL     1      -7.915   9.045  68.295  1.00  0.00    -0.104 C  
HETATM   20  C   UNL     1      -8.959  10.407  66.447  1.00  0.00    -0.166 C  
BRANCH  20  21
HETATM   21  C   UNL     1      -8.821  11.755  67.160  1.00  0.00    -0.173 A  
HETATM   22  C   UNL     1      -8.674  14.273  68.435  1.00  0.00    -0.181 A  
HETATM   23  C   UNL     1      -9.956  12.348  67.748  1.00  0.00    -0.205 A  
HETATM   24  C   UNL     1      -9.886  13.598  68.374  1.00  0.00    -0.223 A  
HETATM   25  C   UNL     1      -7.532  13.701  67.886  1.00  0.00    -0.158 A  
HETATM   26 CL   UNL     1      -8.578  15.809  69.202  1.00  0.00    -0.242 Cl 
HETATM   27  C   UNL     1      -7.604  12.446  67.271  1.00  0.00    -0.141 A  
ENDBRANCH  20  21
ENDBRANCH   4  15
TORSDOF 2
ENDMDL
MODEL      109
REMARK 921   NORMALIZED FREE ENERGY PREDICTED BY IDOCK:   -3.97 KCAL/MOL
REMARK 922        TOTAL FREE ENERGY PREDICTED BY IDOCK:   -5.31 KCAL/MOL
REMARK 923 INTER-LIGAND FREE ENERGY PREDICTED BY IDOCK:   -5.64 KCAL/MOL
REMARK 924 INTRA-LIGAND FREE ENERGY PREDICTED BY IDOCK:    0.33 KCAL/MOL
REMARK 927      BINDING AFFINITY PREDICTED BY RF-SCORE:    0.00 PKD
ROOT
HETATM    1  O   UNL     1      -9.122   9.177  63.891  1.00  0.00    -0.432 OA 
HETATM    2  C   UNL     1      -8.704   8.819  65.160  1.00  0.00    -0.167 C  
HETATM    3  H   UNL     1      -9.121   8.585  63.148  1.00  0.00     0.000 HD 
HETATM    4  C   UNL     1      -8.706   9.660  66.214  1.00  0.00    -0.156 C  
HETATM    5  C   UNL     1      -8.127   9.168  67.522  1.00  0.00    -0.104 C  
HETATM    6  C   UNL     1      -7.764   6.910  66.581  1.00  0.00    -0.105 A  
HETATM    7  C   UNL     1      -7.413   5.561  66.750  1.00  0.00    -0.087 A  
HETATM    8  C   UNL     1      -7.603   7.799  67.627  1.00  0.00    -0.113 A  
HETATM    9  O   UNL     1      -8.104   9.879  68.524  1.00  0.00    -0.098 OA 
HETATM   10  C   UNL     1      -7.004   7.373  68.822  1.00  0.00    -0.078 A  
HETATM   11  C   UNL     1      -8.281   7.385  65.287  1.00  0.00    -0.127 C  
HETATM   12  C   UNL     1      -6.629   6.038  68.983  1.00  0.00    -0.051 A  
HETATM   13  O   UNL     1      -8.348   6.603  64.342  1.00  0.00    -0.044 OA 
HETATM   14  C   UNL     1      -6.858   5.126  67.955  1.00  0.00    -0.060 A  
ENDROOT
BRANCH   4  15
HETATM   15  C   UNL     1      -9.339  11.063  66.340  1.00  0.00    -0.204 C  
HETATM   16  C   UNL     1     -11.723  11.753  67.266  1.00  0.00    -0.293 C  
HETATM   17  C   UNL     1     -10.251  11.408  67.553  1.00  0.00    -0.210 C  
HETATM   18  C   UNL     1     -11.346  11.734  64.843  1.00  0.00    -0.299 C  
HETATM   19  C   UNL     1      -9.838  11.627  64.989  1.00  0.00    -0.280 C  
HETATM   20  C   UNL     1     -11.960  12.562  65.979  1.00  0.00    -0.456 C  
BRANCH  20  21
HETATM   21  C   UNL     1     -11.499  14.023  65.965  1.00  0.00    -0.340 A  
HETATM   22  C   UNL     1     -10.698  16.731  66.048  1.00  0.00    -0.138 A  
HETATM   23  C   UNL     1     -11.057  14.621  67.162  1.00  0.00    -0.328 A  
HETATM   24  C   UNL     1     -10.666  15.964  67.206  1.00  0.00    -0.306 A  
HETATM   25  C   UNL     1     -11.106  16.161  64.848  1.00  0.00    -0.336 A  
HETATM   26 CL   UNL     1     -10.219  18.383  66.093  1.00  0.00    -0.415 Cl 
HETATM   27  C   UNL     1     -11.485  14.815  64.806  1.00  0.00    -0.410 A  
ENDBRANCH  20  21
ENDBRANCH   4  15
TORSDOF 2
ENDMDL
MODEL      110
REMARK 921   NORMALIZED FREE ENERGY PREDICTED BY IDOCK:   -3.92 KCAL/MOL
REMARK 922        TOTAL FREE ENERGY PREDICTED BY IDOCK:   -5.25 KCAL/MOL
REMARK 923 INTER-LIGAND FREE ENERGY PREDICTED BY IDOCK:   -5.04 KCAL/MOL
REMARK 924 INTRA-LIGAND FREE ENERGY PREDICTED BY IDOCK:   -0.21 KCAL/MOL
REMARK 927      BINDING AFFINITY PREDICTED BY RF-SCORE:    0.00 PKD
ROOT
HETATM    1  O   UNL     1     -10.180  12.406  66.077  1.00  0.00    -0.236 OA 
HETATM    2  C   UNL     1     -10.640  12.494  67.379  1.00  0.00    -0.223 C  
HETATM    3  H   UNL     1     -10.319  13.079  65.422  1.00  0.00     0.000 HD 
HETATM    4  C   UNL     1     -10.444  11.538  68.310  1.00  0.00    -0.219 C  
HETATM    5  C   UNL     1     -11.088  11.717  69.667  1.00  0.00    -0.070 C  
HETATM    6  C   UNL     1     -11.929  13.956  69.037  1.00  0.00    -0.402 A  
HETATM    7  C   UNL     1     -12.549  15.167  69.384  1.00  0.00     0.040 A  
HETATM    8  C   UNL     1     -11.882  12.920  69.951  1.00  0.00    -0.373 A  
HETATM    9  O   UNL     1     -10.944  10.888  70.562  1.00  0.00    -0.070 OA 
HETATM   10  C   UNL     1     -12.535  13.047  71.187  1.00  0.00    -0.364 A  
HETATM   11  C   UNL     1     -11.349  13.778  67.696  1.00  0.00    -0.304 C  
HETATM   12  C   UNL     1     -13.175  14.240  71.524  1.00  0.00    -0.420 A  
HETATM   13  O   UNL     1     -11.464  14.677  66.867  1.00  0.00    -0.347 OA 
HETATM   14  C   UNL     1     -13.159  15.310  70.633  1.00  0.00    -0.407 A  
ENDROOT
BRANCH   4  15
HETATM   15  C   UNL     1      -9.531  10.293  68.250  1.00  0.00    -0.147 C  
HETATM   16  C   UNL     1      -8.374   9.157  66.155  1.00  0.00    -0.123 C  
HETATM   17  C   UNL     1      -8.341  10.238  67.250  1.00  0.00    -0.121 C  
HETATM   18  C   UNL     1     -10.366   8.109  67.130  1.00  0.00    -0.391 C  
HETATM   19  C   UNL     1     -10.310   8.963  68.385  1.00  0.00    -0.237 C  
HETATM   20  C   UNL     1      -8.960   7.805  66.597  1.00  0.00    -0.175 C  
BRANCH  20  21
HETATM   21  C   UNL     1      -8.129   6.957  67.565  1.00  0.00    -0.116 A  
HETATM   22  C   UNL     1      -6.501   5.412  69.283  1.00  0.00    -0.038 A  
HETATM   23  C   UNL     1      -6.798   7.326  67.844  1.00  0.00    -0.070 A  
HETATM   24  C   UNL     1      -5.988   6.559  68.689  1.00  0.00    -0.021 A  
HETATM   25  C   UNL     1      -7.817   5.037  69.046  1.00  0.00    -0.080 A  
HETATM   26 CL   UNL     1      -5.513   4.463  70.323  1.00  0.00    -0.011 Cl 
HETATM   27  C   UNL     1      -8.627   5.813  68.210  1.00  0.00    -0.112 A  
ENDBRANCH  20  21
ENDBRANCH   4  15
TORSDOF 2
ENDMDL
MODEL      111
REMARK 921   NORMALIZED FREE ENERGY PREDICTED BY IDOCK:   -3.91 KCAL/MOL
REMARK 922        TOTAL FREE ENERGY PREDICTED BY IDOCK:   -5.24 KCAL/MOL
REMARK 923 INTER-LIGAND FREE ENERGY PREDICTED BY IDOCK:   -4.90 KCAL/MOL
REMARK 924 INTRA-LIGAND FREE ENERGY PREDICTED BY IDOCK:   -0.34 KCAL/MOL
REMARK 927      BINDING AFFINITY PREDICTED BY RF-SCORE:    0.00 PKD
ROOT
HETATM    1  O   UNL     1     -11.009   8.813  68.740  1.00  0.00    -0.432 OA 
HETATM    2  C   UNL     1     -10.701  10.136  68.479  1.00  0.00    -0.230 C  
HETATM    3  H   UNL     1     -11.717   8.539  69.311  1.00  0.00     0.000 HD 
HETATM    4  C   UNL     1      -9.696  10.526  67.669  1.00  0.00    -0.187 C  
HETATM    5  C   UNL     1      -9.405  12.006  67.551  1.00  0.00    -0.179 C  
HETATM    6  C   UNL     1     -11.345  12.562  68.980  1.00  0.00    -0.342 A  
HETATM    7  C   UNL     1     -12.211  13.512  69.542  1.00  0.00    -0.289 A  
HETATM    8  C   UNL     1     -10.222  12.977  68.289  1.00  0.00    -0.246 A  
HETATM    9  O   UNL     1      -8.509  12.429  66.824  1.00  0.00    -0.174 OA 
HETATM   10  C   UNL     1      -9.902  14.342  68.231  1.00  0.00    -0.229 A  
HETATM   11  C   UNL     1     -11.614  11.124  69.145  1.00  0.00    -0.324 C  
HETATM   12  C   UNL     1     -10.748  15.288  68.812  1.00  0.00    -0.241 A  
HETATM   13  O   UNL     1     -12.572  10.766  69.825  1.00  0.00    -0.264 OA 
HETATM   14  C   UNL     1     -11.917  14.874  69.445  1.00  0.00    -0.336 A  
ENDROOT
BRANCH   4  15
HETATM   15  C   UNL     1      -8.835   9.676  66.707  1.00  0.00    -0.148 C  
HETATM   16  C   UNL     1      -6.480  10.230  65.629  1.00  0.00    -0.118 C  
HETATM   17  C   UNL     1      -7.283   9.689  66.824  1.00  0.00    -0.090 C  
HETATM   18  C   UNL     1      -8.498  10.420  64.247  1.00  0.00    -0.159 C  
HETATM   19  C   UNL     1      -9.363   9.682  65.254  1.00  0.00    -0.322 C  
HETATM   20  C   UNL     1      -7.060   9.883  64.246  1.00  0.00    -0.131 C  
BRANCH  20  21
HETATM   21  C   UNL     1      -6.971   8.425  63.787  1.00  0.00    -0.080 A  
HETATM   22  C   UNL     1      -6.926   5.734  62.925  1.00  0.00    -0.047 A  
HETATM   23  C   UNL     1      -7.820   7.969  62.759  1.00  0.00    -0.140 A  
HETATM   24  C   UNL     1      -7.803   6.635  62.335  1.00  0.00    -0.103 A  
HETATM   25  C   UNL     1      -6.059   6.161  63.925  1.00  0.00    -0.025 A  
HETATM   26 CL   UNL     1      -6.897   4.093  62.412  1.00  0.00    -0.030 Cl 
HETATM   27  C   UNL     1      -6.072   7.498  64.337  1.00  0.00    -0.038 A  
ENDBRANCH  20  21
ENDBRANCH   4  15
TORSDOF 2
ENDMDL
MODEL      112
REMARK 921   NORMALIZED FREE ENERGY PREDICTED BY IDOCK:   -3.90 KCAL/MOL
REMARK 922        TOTAL FREE ENERGY PREDICTED BY IDOCK:   -5.23 KCAL/MOL
REMARK 923 INTER-LIGAND FREE ENERGY PREDICTED BY IDOCK:   -5.95 KCAL/MOL
REMARK 924 INTRA-LIGAND FREE ENERGY PREDICTED BY IDOCK:    0.71 KCAL/MOL
REMARK 927      BINDING AFFINITY PREDICTED BY RF-SCORE:    0.00 PKD
ROOT
HETATM    1  O   UNL     1      -8.863  11.662  63.376  1.00  0.00    -0.458 OA 
HETATM    2  C   UNL     1      -8.853  10.690  64.360  1.00  0.00    -0.173 C  
HETATM    3  H   UNL     1      -8.706  11.484  62.456  1.00  0.00     0.000 HD 
HETATM    4  C   UNL     1      -9.074  10.943  65.666  1.00  0.00    -0.223 C  
HETATM    5  C   UNL     1      -8.933   9.802  66.650  1.00  0.00    -0.142 C  
HETATM    6  C   UNL     1      -8.529   8.193  64.816  1.00  0.00    -0.064 A  
HETATM    7  C   UNL     1      -8.365   6.873  64.367  1.00  0.00     0.114 A  
HETATM    8  C   UNL     1      -8.588   8.457  66.172  1.00  0.00    -0.157 A  
HETATM    9  O   UNL     1      -9.128   9.962  67.852  1.00  0.00    -0.131 OA 
HETATM   10  C   UNL     1      -8.390   7.420  67.095  1.00  0.00    -0.118 A  
HETATM   11  C   UNL     1      -8.615   9.299  63.849  1.00  0.00    -0.192 C  
HETATM   12  C   UNL     1      -8.200   6.110  66.652  1.00  0.00    -0.110 A  
HETATM   13  O   UNL     1      -8.485   9.062  62.651  1.00  0.00    -0.191 OA 
HETATM   14  C   UNL     1      -8.214   5.833  65.287  1.00  0.00    -0.139 A  
ENDROOT
BRANCH   4  15
HETATM   15  C   UNL     1      -9.586  12.239  66.334  1.00  0.00    -0.242 C  
HETATM   16  C   UNL     1     -11.960  12.761  67.386  1.00  0.00    -0.335 C  
HETATM   17  C   UNL     1     -10.550  12.166  67.552  1.00  0.00    -0.240 C  
HETATM   18  C   UNL     1     -11.407  13.676  65.179  1.00  0.00    -0.319 C  
HETATM   19  C   UNL     1      -9.930  13.351  65.316  1.00  0.00    -0.195 C  
HETATM   20  C   UNL     1     -12.027  14.041  66.534  1.00  0.00    -0.470 C  
BRANCH  20  21
HETATM   21  C   UNL     1     -11.437  15.321  67.133  1.00  0.00    -0.202 A  
HETATM   22  C   UNL     1     -10.253  17.669  68.166  1.00  0.00    -0.371 A  
HETATM   23  C   UNL     1     -10.706  16.199  66.308  1.00  0.00    -0.213 A  
HETATM   24  C   UNL     1     -10.114  17.359  66.819  1.00  0.00    -0.313 A  
HETATM   25  C   UNL     1     -10.989  16.835  68.998  1.00  0.00    -0.239 A  
HETATM   26 CL   UNL     1      -9.528  19.093  68.804  1.00  0.00    -0.444 Cl 
HETATM   27  C   UNL     1     -11.590  15.683  68.480  1.00  0.00    -0.378 A  
ENDBRANCH  20  21
ENDBRANCH   4  15
TORSDOF 2
ENDMDL
MODEL      113
REMARK 921   NORMALIZED FREE ENERGY PREDICTED BY IDOCK:   -3.90 KCAL/MOL
REMARK 922        TOTAL FREE ENERGY PREDICTED BY IDOCK:   -5.23 KCAL/MOL
REMARK 923 INTER-LIGAND FREE ENERGY PREDICTED BY IDOCK:   -4.88 KCAL/MOL
REMARK 924 INTRA-LIGAND FREE ENERGY PREDICTED BY IDOCK:   -0.36 KCAL/MOL
REMARK 927      BINDING AFFINITY PREDICTED BY RF-SCORE:    0.00 PKD
ROOT
HETATM    1  O   UNL     1     -11.893   9.201  70.272  1.00  0.00    -0.465 OA 
HETATM    2  C   UNL     1     -10.946   8.360  69.715  1.00  0.00    -0.127 C  
HETATM    3  H   UNL     1     -12.543   8.919  70.905  1.00  0.00     0.000 HD 
HETATM    4  C   UNL     1     -10.025   8.761  68.816  1.00  0.00    -0.197 C  
HETATM    5  C   UNL     1      -9.114   7.715  68.210  1.00  0.00    -0.136 C  
HETATM    6  C   UNL     1     -10.070   5.957  69.663  1.00  0.00    -0.260 A  
HETATM    7  C   UNL     1     -10.052   4.644  70.160  1.00  0.00    -0.283 A  
HETATM    8  C   UNL     1      -9.230   6.311  68.623  1.00  0.00    -0.124 A  
HETATM    9  O   UNL     1      -8.247   8.013  67.392  1.00  0.00    -0.120 OA 
HETATM   10  C   UNL     1      -8.432   5.335  68.006  1.00  0.00    -0.097 A  
HETATM   11  C   UNL     1     -10.996   6.951  70.228  1.00  0.00    -0.281 C  
HETATM   12  C   UNL     1      -8.431   4.023  68.482  1.00  0.00    -0.106 A  
HETATM   13  O   UNL     1     -11.790   6.606  71.099  1.00  0.00    -0.332 OA 
HETATM   14  C   UNL     1      -9.222   3.684  69.577  1.00  0.00    -0.225 A  
ENDROOT
BRANCH   4  15
HETATM   15  C   UNL     1      -9.653  10.194  68.373  1.00  0.00    -0.150 C  
HETATM   16  C   UNL     1      -8.443  11.009  66.163  1.00  0.00    -0.168 C  
HETATM   17  C   UNL     1      -9.745  10.603  66.875  1.00  0.00    -0.213 C  
HETATM   18  C   UNL     1      -7.169  10.925  68.257  1.00  0.00    -0.084 C  
HETATM   19  C   UNL     1      -8.414  10.753  69.111  1.00  0.00    -0.105 C  
HETATM   20  C   UNL     1      -7.449  11.803  67.030  1.00  0.00    -0.137 C  
BRANCH  20  21
HETATM   21  C   UNL     1      -7.826  13.240  67.401  1.00  0.00    -0.159 A  
HETATM   22  C   UNL     1      -8.474  15.874  68.193  1.00  0.00    -0.167 A  
HETATM   23  C   UNL     1      -6.969  13.989  68.233  1.00  0.00    -0.107 A  
HETATM   24  C   UNL     1      -7.292  15.291  68.632  1.00  0.00    -0.120 A  
HETATM   25  C   UNL     1      -9.326  15.170  67.352  1.00  0.00    -0.200 A  
HETATM   26 CL   UNL     1      -8.879  17.474  68.678  1.00  0.00    -0.275 Cl 
HETATM   27  C   UNL     1      -8.994  13.872  66.946  1.00  0.00    -0.236 A  
ENDBRANCH  20  21
ENDBRANCH   4  15
TORSDOF 2
ENDMDL
MODEL      114
REMARK 921   NORMALIZED FREE ENERGY PREDICTED BY IDOCK:   -3.83 KCAL/MOL
REMARK 922        TOTAL FREE ENERGY PREDICTED BY IDOCK:   -5.16 KCAL/MOL
REMARK 923 INTER-LIGAND FREE ENERGY PREDICTED BY IDOCK:   -4.33 KCAL/MOL
REMARK 924 INTRA-LIGAND FREE ENERGY PREDICTED BY IDOCK:   -0.83 KCAL/MOL
REMARK 927      BINDING AFFINITY PREDICTED BY RF-SCORE:    0.00 PKD
ROOT
HETATM    1  O   UNL     1      -5.768  15.316  68.588  1.00  0.00    -0.085 OA 
HETATM    2  C   UNL     1      -7.028  15.835  68.350  1.00  0.00    -0.116 C  
HETATM    3  H   UNL     1      -5.003  15.850  68.768  1.00  0.00     0.000 HD 
HETATM    4  C   UNL     1      -8.114  15.077  68.094  1.00  0.00    -0.131 C  
HETATM    5  C   UNL     1      -9.411  15.777  67.752  1.00  0.00    -0.206 C  
HETATM    6  C   UNL     1      -8.389  17.993  68.154  1.00  0.00    -0.273 A  
HETATM    7  C   UNL     1      -8.511  19.385  68.287  1.00  0.00    -0.376 A  
HETATM    8  C   UNL     1      -9.471  17.244  67.729  1.00  0.00    -0.255 A  
HETATM    9  O   UNL     1     -10.439  15.147  67.516  1.00  0.00    -0.251 OA 
HETATM   10  C   UNL     1     -10.657  17.886  67.342  1.00  0.00    -0.370 A  
HETATM   11  C   UNL     1      -7.107  17.331  68.443  1.00  0.00    -0.209 C  
HETATM   12  C   UNL     1     -10.772  19.273  67.448  1.00  0.00    -0.594 A  
HETATM   13  O   UNL     1      -6.132  18.013  68.747  1.00  0.00    -0.189 OA 
HETATM   14  C   UNL     1      -9.708  20.020  67.946  1.00  0.00    -0.517 A  
ENDROOT
BRANCH   4  15
HETATM   15  C   UNL     1      -8.284  13.546  68.216  1.00  0.00    -0.157 C  
HETATM   16  C   UNL     1      -6.666  11.758  69.311  1.00  0.00    -0.110 C  
HETATM   17  C   UNL     1      -7.786  12.798  69.486  1.00  0.00     0.842 C  
HETATM   18  C   UNL     1      -6.753  11.947  66.868  1.00  0.00    -0.076 C  
HETATM   19  C   UNL     1      -8.011  12.798  66.890  1.00  0.00     0.042 C  
HETATM   20  C   UNL     1      -6.746  10.930  68.016  1.00  0.00    -0.063 C  
BRANCH  20  21
HETATM   21  C   UNL     1      -7.873   9.899  67.904  1.00  0.00    -0.090 A  
HETATM   22  C   UNL     1      -9.981   8.044  67.591  1.00  0.00    -0.180 A  
HETATM   23  C   UNL     1      -8.181   9.343  66.646  1.00  0.00    -0.112 A  
HETATM   24  C   UNL     1      -9.229   8.429  66.488  1.00  0.00    -0.238 A  
HETATM   25  C   UNL     1      -9.685   8.557  68.848  1.00  0.00    -0.172 A  
HETATM   26 CL   UNL     1     -11.271   6.921  67.407  1.00  0.00    -0.310 Cl 
HETATM   27  C   UNL     1      -8.629   9.461  69.003  1.00  0.00    -0.135 A  
ENDBRANCH  20  21
ENDBRANCH   4  15
TORSDOF 2
ENDMDL
MODEL      115
REMARK 921   NORMALIZED FREE ENERGY PREDICTED BY IDOCK:   -3.69 KCAL/MOL
REMARK 922        TOTAL FREE ENERGY PREDICTED BY IDOCK:   -5.00 KCAL/MOL
REMARK 923 INTER-LIGAND FREE ENERGY PREDICTED BY IDOCK:   -4.84 KCAL/MOL
REMARK 924 INTRA-LIGAND FREE ENERGY PREDICTED BY IDOCK:   -0.16 KCAL/MOL
REMARK 927      BINDING AFFINITY PREDICTED BY RF-SCORE:    0.00 PKD
ROOT
HETATM    1  O   UNL     1      -9.259  12.063  65.526  1.00  0.00    -0.417 OA 
HETATM    2  C   UNL     1      -8.871  11.605  66.772  1.00  0.00    -0.184 C  
HETATM    3  H   UNL     1      -9.839  11.585  64.944  1.00  0.00     0.000 HD 
HETATM    4  C   UNL     1      -8.048  12.284  67.597  1.00  0.00    -0.165 C  
HETATM    5  C   UNL     1      -7.624  11.621  68.890  1.00  0.00    -0.087 C  
HETATM    6  C   UNL     1      -9.096   9.683  68.447  1.00  0.00    -0.123 A  
HETATM    7  C   UNL     1      -9.691   8.484  68.868  1.00  0.00    -0.172 A  
HETATM    8  C   UNL     1      -8.127  10.284  69.230  1.00  0.00    -0.156 A  
HETATM    9  O   UNL     1      -6.883  12.186  69.689  1.00  0.00    -0.031 OA 
HETATM   10  C   UNL     1      -7.676   9.646  70.395  1.00  0.00    -0.178 A  
HETATM   11  C   UNL     1      -9.482  10.291  67.163  1.00  0.00    -0.158 C  
HETATM   12  C   UNL     1      -8.247   8.440  70.803  1.00  0.00    -0.129 A  
HETATM   13  O   UNL     1     -10.287   9.710  66.441  1.00  0.00    -0.237 OA 
HETATM   14  C   UNL     1      -9.274   7.872  70.053  1.00  0.00    -0.153 A  
ENDROOT
BRANCH   4  15
HETATM   15  C   UNL     1      -7.540  13.739  67.486  1.00  0.00    -0.185 C  
HETATM   16  C   UNL     1      -5.853  15.053  69.049  1.00  0.00    -0.096 C  
HETATM   17  C   UNL     1      -6.074  14.091  67.868  1.00  0.00    -0.155 C  
HETATM   18  C   UNL     1      -8.255  15.512  69.237  1.00  0.00    -0.255 C  
HETATM   19  C   UNL     1      -8.586  14.782  67.947  1.00  0.00    -0.166 C  
HETATM   20  C   UNL     1      -6.882  16.192  69.159  1.00  0.00    -0.196 C  
BRANCH  20  21
HETATM   21  C   UNL     1      -6.827  17.300  68.103  1.00  0.00    -0.182 A  
HETATM   22  C   UNL     1      -6.844  19.332  66.140  1.00  0.00    -0.230 A  
HETATM   23  C   UNL     1      -7.885  18.227  68.015  1.00  0.00    -0.274 A  
HETATM   24  C   UNL     1      -7.898  19.230  67.039  1.00  0.00    -0.267 A  
HETATM   25  C   UNL     1      -5.775  18.447  66.218  1.00  0.00    -0.195 A  
HETATM   26 CL   UNL     1      -6.851  20.562  64.936  1.00  0.00    -0.275 Cl 
HETATM   27  C   UNL     1      -5.761  17.453  67.202  1.00  0.00    -0.169 A  
ENDBRANCH  20  21
ENDBRANCH   4  15
TORSDOF 2
ENDMDL
MODEL      116
REMARK 921   NORMALIZED FREE ENERGY PREDICTED BY IDOCK:   -3.66 KCAL/MOL
REMARK 922        TOTAL FREE ENERGY PREDICTED BY IDOCK:   -4.97 KCAL/MOL
REMARK 923 INTER-LIGAND FREE ENERGY PREDICTED BY IDOCK:   -4.66 KCAL/MOL
REMARK 924 INTRA-LIGAND FREE ENERGY PREDICTED BY IDOCK:   -0.30 KCAL/MOL
REMARK 927      BINDING AFFINITY PREDICTED BY RF-SCORE:    0.00 PKD
ROOT
HETATM    1  O   UNL     1     -11.155   8.869  69.175  1.00  0.00    -0.429 OA 
HETATM    2  C   UNL     1     -10.757   9.932  68.385  1.00  0.00    -0.232 C  
HETATM    3  H   UNL     1     -11.906   8.896  69.757  1.00  0.00     0.000 HD 
HETATM    4  C   UNL     1      -9.691   9.893  67.559  1.00  0.00    -0.193 C  
HETATM    5  C   UNL     1      -9.307  11.161  66.827  1.00  0.00    -0.177 C  
HETATM    6  C   UNL     1     -11.279  12.349  67.729  1.00  0.00    -0.327 A  
HETATM    7  C   UNL     1     -12.115  13.477  67.756  1.00  0.00    -0.316 A  
HETATM    8  C   UNL     1     -10.100  12.383  67.007  1.00  0.00    -0.223 A  
HETATM    9  O   UNL     1      -8.353  11.193  66.055  1.00  0.00    -0.167 OA 
HETATM   10  C   UNL     1      -9.698  13.573  66.382  1.00  0.00    -0.296 A  
HETATM   11  C   UNL     1     -11.641  11.140  68.485  1.00  0.00    -0.314 C  
HETATM   12  C   UNL     1     -10.514  14.704  66.430  1.00  0.00    -0.296 A  
HETATM   13  O   UNL     1     -12.652  11.148  69.184  1.00  0.00    -0.358 OA 
HETATM   14  C   UNL     1     -11.736  14.648  67.095  1.00  0.00    -0.392 A  
ENDROOT
BRANCH   4  15
HETATM   15  C   UNL     1      -8.835   8.681  67.129  1.00  0.00    -0.138 C  
HETATM   16  C   UNL     1      -6.296   8.600  66.379  1.00  0.00    -0.061 C  
HETATM   17  C   UNL     1      -7.330   8.605  67.518  1.00  0.00    -0.089 C  
HETATM   18  C   UNL     1      -8.049   8.440  64.671  1.00  0.00    -0.156 C  
HETATM   19  C   UNL     1      -9.146   8.198  65.693  1.00  0.00    -0.092 C  
HETATM   20  C   UNL     1      -6.719   7.821  65.122  1.00  0.00    -0.051 C  
BRANCH  20  21
HETATM   21  C   UNL     1      -6.778   6.294  65.223  1.00  0.00    -0.047 A  
HETATM   22  C   UNL     1      -6.997   3.480  65.360  1.00  0.00    -0.057 A  
HETATM   23  C   UNL     1      -7.402   5.554  64.197  1.00  0.00    -0.058 A  
HETATM   24  C   UNL     1      -7.516   4.162  64.266  1.00  0.00    -0.071 A  
HETATM   25  C   UNL     1      -6.355   4.179  66.374  1.00  0.00    -0.036 A  
HETATM   26 CL   UNL     1      -7.133   1.767  65.454  1.00  0.00    -0.050 Cl 
HETATM   27  C   UNL     1      -6.232   5.571  66.295  1.00  0.00    -0.034 A  
ENDBRANCH  20  21
ENDBRANCH   4  15
TORSDOF 2
ENDMDL
MODEL      117
REMARK 921   NORMALIZED FREE ENERGY PREDICTED BY IDOCK:   -3.58 KCAL/MOL
REMARK 922        TOTAL FREE ENERGY PREDICTED BY IDOCK:   -4.88 KCAL/MOL
REMARK 923 INTER-LIGAND FREE ENERGY PREDICTED BY IDOCK:   -5.72 KCAL/MOL
REMARK 924 INTRA-LIGAND FREE ENERGY PREDICTED BY IDOCK:    0.84 KCAL/MOL
REMARK 927      BINDING AFFINITY PREDICTED BY RF-SCORE:    0.00 PKD
ROOT
HETATM    1  O   UNL     1      -7.234  10.285  68.275  1.00  0.00    -0.081 OA 
HETATM    2  C   UNL     1      -7.493   9.060  68.863  1.00  0.00    -0.075 C  
HETATM    3  H   UNL     1      -6.582  10.418  67.597  1.00  0.00     0.000 HD 
HETATM    4  C   UNL     1      -8.419   8.872  69.825  1.00  0.00    -0.131 C  
HETATM    5  C   UNL     1      -8.529   7.500  70.454  1.00  0.00    -0.141 C  
HETATM    6  C   UNL     1      -6.833   6.588  68.902  1.00  0.00    -0.069 A  
HETATM    7  C   UNL     1      -6.130   5.496  68.371  1.00  0.00    -0.022 A  
HETATM    8  C   UNL     1      -7.657   6.410  69.998  1.00  0.00    -0.096 A  
HETATM    9  O   UNL     1      -9.355   7.258  71.330  1.00  0.00    -0.155 OA 
HETATM   10  C   UNL     1      -7.714   5.160  70.634  1.00  0.00    -0.079 A  
HETATM   11  C   UNL     1      -6.679   7.927  68.310  1.00  0.00    -0.063 C  
HETATM   12  C   UNL     1      -6.995   4.079  70.124  1.00  0.00    -0.041 A  
HETATM   13  O   UNL     1      -5.888   8.088  67.385  1.00  0.00    -0.040 OA 
HETATM   14  C   UNL     1      -6.223   4.240  68.975  1.00  0.00    -0.031 A  
ENDROOT
BRANCH   4  15
HETATM   15  C   UNL     1      -9.514   9.840  70.327  1.00  0.00    -0.250 C  
HETATM   16  C   UNL     1     -12.055   9.353  70.893  1.00  0.00    -0.327 C  
HETATM   17  C   UNL     1     -10.585   9.355  71.346  1.00  0.00    -0.381 C  
HETATM   18  C   UNL     1     -11.498  10.483  68.788  1.00  0.00    -0.291 C  
HETATM   19  C   UNL     1     -10.066  10.760  69.213  1.00  0.00    -0.200 C  
HETATM   20  C   UNL     1     -12.456  10.531  69.986  1.00  0.00    -0.243 C  
BRANCH  20  21
HETATM   21  C   UNL     1     -12.539  11.920  70.625  1.00  0.00    -0.269 A  
HETATM   22  C   UNL     1     -12.803  14.457  71.841  1.00  0.00    -0.349 A  
HETATM   23  C   UNL     1     -13.221  12.081  71.847  1.00  0.00    -0.469 A  
HETATM   24  C   UNL     1     -13.359  13.338  72.448  1.00  0.00    -0.616 A  
HETATM   25  C   UNL     1     -12.103  14.325  70.648  1.00  0.00    -0.417 A  
HETATM   26 CL   UNL     1     -12.966  16.006  72.571  1.00  0.00    -0.502 Cl 
HETATM   27  C   UNL     1     -11.958  13.065  70.057  1.00  0.00    -0.383 A  
ENDBRANCH  20  21
ENDBRANCH   4  15
TORSDOF 2
ENDMDL
MODEL      118
REMARK 921   NORMALIZED FREE ENERGY PREDICTED BY IDOCK:   -3.53 KCAL/MOL
REMARK 922        TOTAL FREE ENERGY PREDICTED BY IDOCK:   -4.82 KCAL/MOL
REMARK 923 INTER-LIGAND FREE ENERGY PREDICTED BY IDOCK:   -4.65 KCAL/MOL
REMARK 924 INTRA-LIGAND FREE ENERGY PREDICTED BY IDOCK:   -0.17 KCAL/MOL
REMARK 927      BINDING AFFINITY PREDICTED BY RF-SCORE:    0.00 PKD
ROOT
HETATM    1  O   UNL     1     -10.727  11.809  65.646  1.00  0.00    -0.265 OA 
HETATM    2  C   UNL     1     -10.907  12.391  66.888  1.00  0.00    -0.251 C  
HETATM    3  H   UNL     1     -10.621  12.303  64.842  1.00  0.00     0.000 HD 
HETATM    4  C   UNL     1     -11.059  11.688  68.029  1.00  0.00    -0.299 C  
HETATM    5  C   UNL     1     -11.348  12.449  69.304  1.00  0.00    -0.254 C  
HETATM    6  C   UNL     1     -11.113  14.615  68.134  1.00  0.00    -0.285 A  
HETATM    7  C   UNL     1     -11.035  16.017  68.169  1.00  0.00    -0.339 A  
HETATM    8  C   UNL     1     -11.434  13.915  69.283  1.00  0.00    -0.348 A  
HETATM    9  O   UNL     1     -11.490  11.873  70.380  1.00  0.00    -0.106 OA 
HETATM   10  C   UNL     1     -11.773  14.610  70.454  1.00  0.00    -0.355 A  
HETATM   11  C   UNL     1     -10.876  13.891  66.876  1.00  0.00    -0.286 C  
HETATM   12  C   UNL     1     -11.722  16.005  70.483  1.00  0.00    -0.350 A  
HETATM   13  O   UNL     1     -10.667  14.527  65.846  1.00  0.00    -0.288 OA 
HETATM   14  C   UNL     1     -11.327  16.707  69.347  1.00  0.00     0.019 A  
ENDROOT
BRANCH   4  15
HETATM   15  C   UNL     1     -10.858  10.176  68.277  1.00  0.00    -0.297 C  
HETATM   16  C   UNL     1     -11.323   8.757  70.465  1.00  0.00    -0.255 C  
HETATM   17  C   UNL     1     -11.860   9.386  69.167  1.00  0.00     0.801 C  
HETATM   18  C   UNL     1      -9.012   9.349  69.898  1.00  0.00    -0.215 C  
HETATM   19  C   UNL     1      -9.376   9.789  68.490  1.00  0.00    -0.142 C  
HETATM   20  C   UNL     1      -9.897   8.188  70.367  1.00  0.00    -0.188 C  
BRANCH  20  21
HETATM   21  C   UNL     1      -9.698   6.916  69.537  1.00  0.00    -0.159 A  
HETATM   22  C   UNL     1      -9.409   4.514  68.077  1.00  0.00    -0.140 A  
HETATM   23  C   UNL     1     -10.795   6.065  69.299  1.00  0.00    -0.428 A  
HETATM   24  C   UNL     1     -10.653   4.872  68.581  1.00  0.00     0.215 A  
HETATM   25  C   UNL     1      -8.313   5.346  68.275  1.00  0.00    -0.098 A  
HETATM   26 CL   UNL     1      -9.223   3.049  67.194  1.00  0.00    -0.208 Cl 
HETATM   27  C   UNL     1      -8.463   6.543  68.983  1.00  0.00    -0.125 A  
ENDBRANCH  20  21
ENDBRANCH   4  15
TORSDOF 2
ENDMDL
MODEL      119
REMARK 921   NORMALIZED FREE ENERGY PREDICTED BY IDOCK:   -3.40 KCAL/MOL
REMARK 922        TOTAL FREE ENERGY PREDICTED BY IDOCK:   -4.68 KCAL/MOL
REMARK 923 INTER-LIGAND FREE ENERGY PREDICTED BY IDOCK:   -5.25 KCAL/MOL
REMARK 924 INTRA-LIGAND FREE ENERGY PREDICTED BY IDOCK:    0.57 KCAL/MOL
REMARK 927      BINDING AFFINITY PREDICTED BY RF-SCORE:    0.00 PKD
ROOT
HETATM    1  O   UNL     1     -11.105   6.351  68.977  1.00  0.00    -0.327 OA 
HETATM    2  C   UNL     1     -10.136   6.684  68.048  1.00  0.00    -0.154 C  
HETATM    3  H   UNL     1     -11.235   5.471  69.313  1.00  0.00     0.000 HD 
HETATM    4  C   UNL     1      -9.953   7.932  67.571  1.00  0.00    -0.250 C  
HETATM    5  C   UNL     1      -8.923   8.138  66.482  1.00  0.00    -0.158 C  
HETATM    6  C   UNL     1      -8.230   5.767  66.608  1.00  0.00    -0.106 A  
HETATM    7  C   UNL     1      -7.357   4.732  66.239  1.00  0.00    -0.078 A  
HETATM    8  C   UNL     1      -8.137   7.000  65.988  1.00  0.00    -0.122 A  
HETATM    9  O   UNL     1      -8.701   9.249  66.008  1.00  0.00    -0.140 OA 
HETATM   10  C   UNL     1      -7.235   7.183  64.929  1.00  0.00    -0.071 A  
HETATM   11  C   UNL     1      -9.260   5.538  67.634  1.00  0.00    -0.110 C  
HETATM   12  C   UNL     1      -6.383   6.147  64.543  1.00  0.00    -0.030 A  
HETATM   13  O   UNL     1      -9.383   4.418  68.123  1.00  0.00    -0.129 OA 
HETATM   14  C   UNL     1      -6.426   4.929  65.217  1.00  0.00    -0.036 A  
ENDROOT
BRANCH   4  15
HETATM   15  C   UNL     1     -10.567   9.262  68.061  1.00  0.00    -0.262 C  
HETATM   16  C   UNL     1     -10.634  11.623  66.863  1.00  0.00    -0.276 C  
HETATM   17  C   UNL     1     -11.255  10.229  67.055  1.00  0.00     0.047 C  
HETATM   18  C   UNL     1      -9.036  11.258  68.687  1.00  0.00    -0.148 C  
HETATM   19  C   UNL     1      -9.704   9.969  69.133  1.00  0.00    -0.217 C  
HETATM   20  C   UNL     1     -10.062  12.260  68.142  1.00  0.00    -0.211 C  
BRANCH  20  21
HETATM   21  C   UNL     1     -11.059  12.728  69.206  1.00  0.00    -0.193 A  
HETATM   22  C   UNL     1     -12.958  13.490  71.155  1.00  0.00    -0.262 A  
HETATM   23  C   UNL     1     -11.617  11.788  70.095  1.00  0.00    -0.281 A  
HETATM   24  C   UNL     1     -12.562  12.162  71.057  1.00  0.00    -0.359 A  
HETATM   25  C   UNL     1     -12.406  14.444  70.309  1.00  0.00    -0.410 A  
HETATM   26 CL   UNL     1     -14.120  13.960  72.334  1.00  0.00    -0.621 Cl 
HETATM   27  C   UNL     1     -11.453  14.067  69.357  1.00  0.00    -0.343 A  
ENDBRANCH  20  21
ENDBRANCH   4  15
TORSDOF 2
ENDMDL
MODEL      120
REMARK 921   NORMALIZED FREE ENERGY PREDICTED BY IDOCK:   -3.18 KCAL/MOL
REMARK 922        TOTAL FREE ENERGY PREDICTED BY IDOCK:   -4.43 KCAL/MOL
REMARK 923 INTER-LIGAND FREE ENERGY PREDICTED BY IDOCK:   -4.13 KCAL/MOL
REMARK 924 INTRA-LIGAND FREE ENERGY PREDICTED BY IDOCK:   -0.30 KCAL/MOL
REMARK 927      BINDING AFFINITY PREDICTED BY RF-SCORE:    0.00 PKD
ROOT
HETATM    1  O   UNL     1      -5.930  11.197  70.634  1.00  0.00    -0.249 OA 
HETATM    2  C   UNL     1      -6.407  12.173  69.778  1.00  0.00    -0.102 C  
HETATM    3  H   UNL     1      -5.471  11.384  71.445  1.00  0.00     0.000 HD 
HETATM    4  C   UNL     1      -7.059  11.907  68.627  1.00  0.00    -0.102 C  
HETATM    5  C   UNL     1      -7.438  13.067  67.734  1.00  0.00    -0.146 C  
HETATM    6  C   UNL     1      -6.597  14.696  69.395  1.00  0.00    -0.138 A  
HETATM    7  C   UNL     1      -6.450  16.020  69.837  1.00  0.00    -0.111 A  
HETATM    8  C   UNL     1      -7.116  14.442  68.139  1.00  0.00    -0.126 A  
HETATM    9  O   UNL     1      -8.039  12.896  66.677  1.00  0.00     0.065 OA 
HETATM   10  C   UNL     1      -7.406  15.509  67.274  1.00  0.00    -0.249 A  
HETATM   11  C   UNL     1      -6.179  13.577  70.255  1.00  0.00    -0.052 C  
HETATM   12  C   UNL     1      -7.236  16.826  67.701  1.00  0.00    -0.163 A  
HETATM   13  O   UNL     1      -5.649  13.816  71.338  1.00  0.00    -0.202 OA 
HETATM   14  C   UNL     1      -6.782  17.082  68.993  1.00  0.00    -0.221 A  
ENDROOT
BRANCH   4  15
HETATM   15  C   UNL     1      -7.610  10.559  68.109  1.00  0.00    -0.091 C  
HETATM   16  C   UNL     1      -8.259   9.848  65.641  1.00  0.00    -0.138 C  
HETATM   17  C   UNL     1      -7.173  10.014  66.719  1.00  0.00    -0.091 C  
HETATM   18  C   UNL     1     -10.044  10.391  67.233  1.00  0.00    -0.244 C  
HETATM   19  C   UNL     1      -9.109  10.354  68.430  1.00  0.00    -0.147 C  
HETATM   20  C   UNL     1      -9.625   9.372  66.166  1.00  0.00    -0.311 C  
BRANCH  20  21
HETATM   21  C   UNL     1      -9.731   7.924  66.653  1.00  0.00    -0.305 A  
HETATM   22  C   UNL     1      -9.899   5.215  67.441  1.00  0.00    -0.166 A  
HETATM   23  C   UNL     1      -8.854   6.951  66.131  1.00  0.00    -0.163 A  
HETATM   24  C   UNL     1      -8.940   5.608  66.516  1.00  0.00    -0.126 A  
HETATM   25  C   UNL     1     -10.761   6.156  67.991  1.00  0.00    -0.370 A  
HETATM   26 CL   UNL     1     -10.013   3.567  67.920  1.00  0.00     0.087 Cl 
HETATM   27  C   UNL     1     -10.663   7.500  67.613  1.00  0.00    -0.266 A  
ENDBRANCH  20  21
ENDBRANCH   4  15
TORSDOF 2
ENDMDL
MODEL      121
REMARK 921   NORMALIZED FREE ENERGY PREDICTED BY IDOCK:   -3.18 KCAL/MOL
REMARK 922        TOTAL FREE ENERGY PREDICTED BY IDOCK:   -4.42 KCAL/MOL
REMARK 923 INTER-LIGAND FREE ENERGY PREDICTED BY IDOCK:   -3.66 KCAL/MOL
REMARK 924 INTRA-LIGAND FREE ENERGY PREDICTED BY IDOCK:   -0.76 KCAL/MOL
REMARK 927      BINDING AFFINITY PREDICTED BY RF-SCORE:    0.00 PKD
ROOT
HETATM    1  O   UNL     1     -10.058  13.297  66.788  1.00  0.00    -0.248 OA 
HETATM    2  C   UNL     1      -8.931  13.873  67.347  1.00  0.00    -0.210 C  
HETATM    3  H   UNL     1     -10.742  13.790  66.351  1.00  0.00     0.000 HD 
HETATM    4  C   UNL     1      -7.961  13.172  67.968  1.00  0.00    -0.156 C  
HETATM    5  C   UNL     1      -6.833  13.937  68.623  1.00  0.00    -0.101 C  
HETATM    6  C   UNL     1      -7.717  16.084  67.772  1.00  0.00    -0.154 A  
HETATM    7  C   UNL     1      -7.578  17.468  67.576  1.00  0.00    -0.209 A  
HETATM    8  C   UNL     1      -6.801  15.404  68.552  1.00  0.00    -0.113 A  
HETATM    9  O   UNL     1      -5.913  13.361  69.198  1.00  0.00    -0.078 OA 
HETATM   10  C   UNL     1      -5.791  16.111  69.222  1.00  0.00    -0.130 A  
HETATM   11  C   UNL     1      -8.847  15.361  67.168  1.00  0.00    -0.213 C  
HETATM   12  C   UNL     1      -5.666  17.491  69.051  1.00  0.00    -0.185 A  
HETATM   13  O   UNL     1      -9.697  15.987  66.541  1.00  0.00    -0.236 OA 
HETATM   14  C   UNL     1      -6.545  18.165  68.206  1.00  0.00    -0.205 A  
ENDROOT
BRANCH   4  15
HETATM   15  C   UNL     1      -7.743  11.643  68.017  1.00  0.00    -0.121 C  
HETATM   16  C   UNL     1      -8.111   9.831  66.120  1.00  0.00    -0.109 C  
HETATM   17  C   UNL     1      -7.199  10.886  66.772  1.00  0.00    -0.134 C  
HETATM   18  C   UNL     1      -9.768  10.028  67.918  1.00  0.00    -0.168 C  
HETATM   19  C   UNL     1      -8.864  10.895  68.777  1.00  0.00    -0.162 C  
HETATM   20  C   UNL     1      -8.959   9.008  67.107  1.00  0.00    -0.144 C  
BRANCH  20  21
HETATM   21  C   UNL     1      -8.228   7.992  67.990  1.00  0.00    -0.129 A  
HETATM   22  C   UNL     1      -6.858   6.053  69.522  1.00  0.00    -0.062 A  
HETATM   23  C   UNL     1      -7.072   7.351  67.500  1.00  0.00    -0.088 A  
HETATM   24  C   UNL     1      -6.396   6.386  68.255  1.00  0.00    -0.040 A  
HETATM   25  C   UNL     1      -7.980   6.686  70.041  1.00  0.00    -0.116 A  
HETATM   26 CL   UNL     1      -6.033   4.867  70.457  1.00  0.00    -0.017 Cl 
HETATM   27  C   UNL     1      -8.646   7.659  69.288  1.00  0.00    -0.136 A  
ENDBRANCH  20  21
ENDBRANCH   4  15
TORSDOF 2
ENDMDL
MODEL      122
REMARK 921   NORMALIZED FREE ENERGY PREDICTED BY IDOCK:   -3.09 KCAL/MOL
REMARK 922        TOTAL FREE ENERGY PREDICTED BY IDOCK:   -4.32 KCAL/MOL
REMARK 923 INTER-LIGAND FREE ENERGY PREDICTED BY IDOCK:   -4.60 KCAL/MOL
REMARK 924 INTRA-LIGAND FREE ENERGY PREDICTED BY IDOCK:    0.28 KCAL/MOL
REMARK 927      BINDING AFFINITY PREDICTED BY RF-SCORE:    0.00 PKD
ROOT
HETATM    1  O   UNL     1     -12.300  10.864  70.292  1.00  0.00    -0.302 OA 
HETATM    2  C   UNL     1     -11.549  11.529  69.339  1.00  0.00    -0.321 C  
HETATM    3  H   UNL     1     -12.935  11.290  70.855  1.00  0.00     0.000 HD 
HETATM    4  C   UNL     1     -10.646  10.923  68.540  1.00  0.00    -0.219 C  
HETATM    5  C   UNL     1      -9.822  11.786  67.610  1.00  0.00    -0.185 C  
HETATM    6  C   UNL     1     -11.073  13.810  68.283  1.00  0.00    -0.279 A  
HETATM    7  C   UNL     1     -11.370  15.172  68.113  1.00  0.00    -0.345 A  
HETATM    8  C   UNL     1     -10.031  13.239  67.576  1.00  0.00    -0.223 A  
HETATM    9  O   UNL     1      -8.987  11.299  66.852  1.00  0.00    -0.154 OA 
HETATM   10  C   UNL     1      -9.215  14.041  66.763  1.00  0.00    -0.280 A  
HETATM   11  C   UNL     1     -11.853  12.994  69.227  1.00  0.00    -0.316 C  
HETATM   12  C   UNL     1      -9.491  15.401  66.614  1.00  0.00    -0.281 A  
HETATM   13  O   UNL     1     -12.726  13.529  69.906  1.00  0.00    -0.101 OA 
HETATM   14  C   UNL     1     -10.586  15.961  67.269  1.00  0.00    -0.314 A  
ENDROOT
BRANCH   4  15
HETATM   15  C   UNL     1     -10.390   9.414  68.327  1.00  0.00    -0.251 C  
HETATM   16  C   UNL     1     -10.742   7.398  70.008  1.00  0.00    -0.258 C  
HETATM   17  C   UNL     1     -11.339   8.359  68.966  1.00  0.00     0.549 C  
HETATM   18  C   UNL     1      -8.469   8.221  69.593  1.00  0.00    -0.125 C  
HETATM   19  C   UNL     1      -8.891   9.040  68.385  1.00  0.00    -0.134 C  
HETATM   20  C   UNL     1      -9.302   6.938  69.717  1.00  0.00    -0.146 C  
BRANCH  20  21
HETATM   21  C   UNL     1      -9.089   5.976  68.545  1.00  0.00    -0.112 A  
HETATM   22  C   UNL     1      -8.582   4.232  66.380  1.00  0.00    -0.112 A  
HETATM   23  C   UNL     1      -7.878   5.261  68.445  1.00  0.00    -0.087 A  
HETATM   24  C   UNL     1      -7.623   4.403  67.370  1.00  0.00    -0.081 A  
HETATM   25  C   UNL     1      -9.796   4.904  66.465  1.00  0.00    -0.225 A  
HETATM   26 CL   UNL     1      -8.278   3.179  65.054  1.00  0.00    -0.093 Cl 
HETATM   27  C   UNL     1     -10.051   5.753  67.548  1.00  0.00    -0.204 A  
ENDBRANCH  20  21
ENDBRANCH   4  15
TORSDOF 2
ENDMDL
MODEL      123
REMARK 921   NORMALIZED FREE ENERGY PREDICTED BY IDOCK:   -3.06 KCAL/MOL
REMARK 922        TOTAL FREE ENERGY PREDICTED BY IDOCK:   -4.29 KCAL/MOL
REMARK 923 INTER-LIGAND FREE ENERGY PREDICTED BY IDOCK:   -3.65 KCAL/MOL
REMARK 924 INTRA-LIGAND FREE ENERGY PREDICTED BY IDOCK:   -0.64 KCAL/MOL
REMARK 927      BINDING AFFINITY PREDICTED BY RF-SCORE:    0.00 PKD
ROOT
HETATM    1  O   UNL     1      -9.960   8.407  67.273  1.00  0.00    -0.185 OA 
HETATM    2  C   UNL     1     -10.011   8.348  68.654  1.00  0.00    -0.184 C  
HETATM    3  H   UNL     1     -10.296   7.725  66.703  1.00  0.00     0.000 HD 
HETATM    4  C   UNL     1      -9.533   9.315  69.464  1.00  0.00    -0.178 C  
HETATM    5  C   UNL     1      -9.562   9.077  70.957  1.00  0.00    -0.279 C  
HETATM    6  C   UNL     1     -10.751   6.930  70.652  1.00  0.00    -0.267 A  
HETATM    7  C   UNL     1     -11.428   5.825  71.191  1.00  0.00    -0.039 A  
HETATM    8  C   UNL     1     -10.121   7.829  71.493  1.00  0.00    -0.212 A  
HETATM    9  O   UNL     1      -9.150   9.919  71.751  1.00  0.00     0.951 OA 
HETATM   10  C   UNL     1     -10.080   7.584  72.874  1.00  0.00    -0.315 A  
HETATM   11  C   UNL     1     -10.690   7.123  69.194  1.00  0.00    -0.198 C  
HETATM   12  C   UNL     1     -10.729   6.471  73.410  1.00  0.00    -0.295 A  
HETATM   13  O   UNL     1     -11.187   6.278  68.454  1.00  0.00    -0.335 OA 
HETATM   14  C   UNL     1     -11.427   5.606  72.571  1.00  0.00    -0.335 A  
ENDROOT
BRANCH   4  15
HETATM   15  C   UNL     1      -9.050  10.738  69.102  1.00  0.00    -0.109 C  
HETATM   16  C   UNL     1      -9.091  11.982  66.764  1.00  0.00    -0.197 C  
HETATM   17  C   UNL     1      -9.827  11.589  68.057  1.00  0.00    -0.192 C  
HETATM   18  C   UNL     1      -6.970  11.070  67.591  1.00  0.00    -0.083 C  
HETATM   19  C   UNL     1      -7.511  10.846  68.993  1.00  0.00    -0.124 C  
HETATM   20  C   UNL     1      -7.598  12.309  66.941  1.00  0.00     0.001 C  
BRANCH  20  21
HETATM   21  C   UNL     1      -7.240  13.608  67.670  1.00  0.00    -0.179 A  
HETATM   22  C   UNL     1      -6.621  16.065  68.921  1.00  0.00    -0.130 A  
HETATM   23  C   UNL     1      -8.075  14.735  67.529  1.00  0.00    -0.199 A  
HETATM   24  C   UNL     1      -7.766  15.954  68.143  1.00  0.00    -0.135 A  
HETATM   25  C   UNL     1      -5.792  14.964  69.099  1.00  0.00    -0.096 A  
HETATM   26 CL   UNL     1      -6.233  17.560  69.679  1.00  0.00    -0.249 Cl 
HETATM   27  C   UNL     1      -6.111  13.743  68.493  1.00  0.00    -0.092 A  
ENDBRANCH  20  21
ENDBRANCH   4  15
TORSDOF 2
ENDMDL
MODEL      124
REMARK 921   NORMALIZED FREE ENERGY PREDICTED BY IDOCK:   -3.05 KCAL/MOL
REMARK 922        TOTAL FREE ENERGY PREDICTED BY IDOCK:   -4.29 KCAL/MOL
REMARK 923 INTER-LIGAND FREE ENERGY PREDICTED BY IDOCK:   -4.75 KCAL/MOL
REMARK 924 INTRA-LIGAND FREE ENERGY PREDICTED BY IDOCK:    0.46 KCAL/MOL
REMARK 927      BINDING AFFINITY PREDICTED BY RF-SCORE:    0.00 PKD
ROOT
HETATM    1  O   UNL     1     -10.414  11.285  66.178  1.00  0.00    -0.241 OA 
HETATM    2  C   UNL     1      -9.507  10.970  67.174  1.00  0.00    -0.164 C  
HETATM    3  H   UNL     1     -10.965  10.643  65.744  1.00  0.00     0.000 HD 
HETATM    4  C   UNL     1      -8.725  11.881  67.789  1.00  0.00    -0.158 C  
HETATM    5  C   UNL     1      -7.703  11.387  68.790  1.00  0.00    -0.135 C  
HETATM    6  C   UNL     1      -8.519   9.063  68.564  1.00  0.00    -0.128 A  
HETATM    7  C   UNL     1      -8.514   7.723  68.984  1.00  0.00    -0.132 A  
HETATM    8  C   UNL     1      -7.598   9.952  69.086  1.00  0.00    -0.090 A  
HETATM    9  O   UNL     1      -6.965  12.162  69.392  1.00  0.00    -0.065 OA 
HETATM   10  C   UNL     1      -6.602   9.493  69.961  1.00  0.00    -0.065 A  
HETATM   11  C   UNL     1      -9.487   9.519  67.554  1.00  0.00    -0.130 C  
HETATM   12  C   UNL     1      -6.577   8.156  70.360  1.00  0.00    -0.036 A  
HETATM   13  O   UNL     1     -10.251   8.704  67.042  1.00  0.00    -0.239 OA 
HETATM   14  C   UNL     1      -7.550   7.276  69.891  1.00  0.00    -0.094 A  
ENDROOT
BRANCH   4  15
HETATM   15  C   UNL     1      -8.788  13.423  67.723  1.00  0.00    -0.199 C  
HETATM   16  C   UNL     1      -7.796  15.218  69.400  1.00  0.00    -0.227 C  
HETATM   17  C   UNL     1      -7.580  14.280  68.200  1.00  0.00    -0.134 C  
HETATM   18  C   UNL     1     -10.203  14.750  69.442  1.00  0.00    -0.141 C  
HETATM   19  C   UNL     1     -10.169  13.991  68.127  1.00  0.00    -0.243 C  
HETATM   20  C   UNL     1      -9.179  15.892  69.456  1.00  0.00    -0.175 C  
BRANCH  20  21
HETATM   21  C   UNL     1      -9.481  16.974  68.415  1.00  0.00    -0.269 A  
HETATM   22  C   UNL     1     -10.154  18.953  66.514  1.00  0.00    -0.398 A  
HETATM   23  C   UNL     1     -10.572  17.843  68.615  1.00  0.00    -0.158 A  
HETATM   24  C   UNL     1     -10.911  18.819  67.671  1.00  0.00    -0.382 A  
HETATM   25  C   UNL     1      -9.057  18.126  66.301  1.00  0.00    -0.199 A  
HETATM   26 CL   UNL     1     -10.563  20.150  65.348  1.00  0.00    -0.328 Cl 
HETATM   27  C   UNL     1      -8.715  17.159  67.253  1.00  0.00    -0.213 A  
ENDBRANCH  20  21
ENDBRANCH   4  15
TORSDOF 2
ENDMDL
MODEL      125
REMARK 921   NORMALIZED FREE ENERGY PREDICTED BY IDOCK:   -3.01 KCAL/MOL
REMARK 922        TOTAL FREE ENERGY PREDICTED BY IDOCK:   -4.24 KCAL/MOL
REMARK 923 INTER-LIGAND FREE ENERGY PREDICTED BY IDOCK:   -3.33 KCAL/MOL
REMARK 924 INTRA-LIGAND FREE ENERGY PREDICTED BY IDOCK:   -0.91 KCAL/MOL
REMARK 927      BINDING AFFINITY PREDICTED BY RF-SCORE:    0.00 PKD
ROOT
HETATM    1  O   UNL     1      -5.311   7.686  66.888  1.00  0.00    -0.025 OA 
HETATM    2  C   UNL     1      -6.411   6.980  67.342  1.00  0.00    -0.042 C  
HETATM    3  H   UNL     1      -4.483   7.282  66.658  1.00  0.00     0.000 HD 
HETATM    4  C   UNL     1      -7.587   7.554  67.669  1.00  0.00    -0.113 C  
HETATM    5  C   UNL     1      -8.675   6.677  68.248  1.00  0.00    -0.118 C  
HETATM    6  C   UNL     1      -7.294   4.651  67.924  1.00  0.00    -0.066 A  
HETATM    7  C   UNL     1      -7.158   3.254  67.941  1.00  0.00    -0.050 A  
HETATM    8  C   UNL     1      -8.445   5.236  68.419  1.00  0.00    -0.096 A  
HETATM    9  O   UNL     1      -9.771   7.134  68.561  1.00  0.00    -0.141 OA 
HETATM   10  C   UNL     1      -9.431   4.441  69.021  1.00  0.00    -0.237 A  
HETATM   11  C   UNL     1      -6.207   5.495  67.402  1.00  0.00    -0.031 C  
HETATM   12  C   UNL     1      -9.286   3.053  69.064  1.00  0.00    -0.226 A  
HETATM   13  O   UNL     1      -5.160   4.968  67.036  1.00  0.00    -0.007 OA 
HETATM   14  C   UNL     1      -8.161   2.457  68.499  1.00  0.00    -0.069 A  
ENDROOT
BRANCH   4  15
HETATM   15  C   UNL     1      -8.064   9.004  67.427  1.00  0.00    -0.108 C  
HETATM   16  C   UNL     1      -7.153  10.809  65.717  1.00  0.00    -0.053 C  
HETATM   17  C   UNL     1      -8.066   9.601  65.991  1.00  0.00    -0.112 C  
HETATM   18  C   UNL     1      -6.556  11.006  68.087  1.00  0.00    -0.058 C  
HETATM   19  C   UNL     1      -7.595   9.988  68.525  1.00  0.00    -0.087 C  
HETATM   20  C   UNL     1      -7.041  11.814  66.877  1.00  0.00    -0.097 C  
BRANCH  20  21
HETATM   21  C   UNL     1      -8.270  12.673  67.189  1.00  0.00    -0.159 A  
HETATM   22  C   UNL     1     -10.512  14.248  67.881  1.00  0.00    -0.240 A  
HETATM   23  C   UNL     1      -8.221  13.592  68.256  1.00  0.00    -0.156 A  
HETATM   24  C   UNL     1      -9.332  14.368  68.605  1.00  0.00    -0.188 A  
HETATM   25  C   UNL     1     -10.582  13.369  66.808  1.00  0.00    -0.277 A  
HETATM   26 CL   UNL     1     -11.883  15.198  68.302  1.00  0.00    -0.327 Cl 
HETATM   27  C   UNL     1      -9.465  12.604  66.456  1.00  0.00    -0.247 A  
ENDBRANCH  20  21
ENDBRANCH   4  15
TORSDOF 2
ENDMDL
MODEL      126
REMARK 921   NORMALIZED FREE ENERGY PREDICTED BY IDOCK:   -2.82 KCAL/MOL
REMARK 922        TOTAL FREE ENERGY PREDICTED BY IDOCK:   -4.03 KCAL/MOL
REMARK 923 INTER-LIGAND FREE ENERGY PREDICTED BY IDOCK:   -3.69 KCAL/MOL
REMARK 924 INTRA-LIGAND FREE ENERGY PREDICTED BY IDOCK:   -0.34 KCAL/MOL
REMARK 927      BINDING AFFINITY PREDICTED BY RF-SCORE:    0.00 PKD
ROOT
HETATM    1  O   UNL     1     -10.314  13.298  66.424  1.00  0.00    -0.275 OA 
HETATM    2  C   UNL     1      -9.314  13.914  67.155  1.00  0.00    -0.243 C  
HETATM    3  H   UNL     1     -10.965  13.770  65.919  1.00  0.00     0.000 HD 
HETATM    4  C   UNL     1      -8.389  13.243  67.873  1.00  0.00    -0.163 C  
HETATM    5  C   UNL     1      -7.414  14.042  68.708  1.00  0.00    -0.124 C  
HETATM    6  C   UNL     1      -8.322  16.171  67.837  1.00  0.00    -0.165 A  
HETATM    7  C   UNL     1      -8.254  17.569  67.722  1.00  0.00    -0.219 A  
HETATM    8  C   UNL     1      -7.474  15.510  68.706  1.00  0.00    -0.141 A  
HETATM    9  O   UNL     1      -6.542  13.495  69.379  1.00  0.00    -0.108 OA 
HETATM   10  C   UNL     1      -6.613  16.243  69.537  1.00  0.00    -0.202 A  
HETATM   11  C   UNL     1      -9.309  15.411  67.055  1.00  0.00    -0.224 C  
HETATM   12  C   UNL     1      -6.562  17.635  69.444  1.00  0.00    -0.206 A  
HETATM   13  O   UNL     1     -10.108  16.015  66.344  1.00  0.00    -0.270 OA 
HETATM   14  C   UNL     1      -7.364  18.296  68.517  1.00  0.00    -0.297 A  
ENDROOT
BRANCH   4  15
HETATM   15  C   UNL     1      -8.075  11.730  67.886  1.00  0.00    -0.144 C  
HETATM   16  C   UNL     1      -6.637  10.328  69.612  1.00  0.00    -0.077 C  
HETATM   17  C   UNL     1      -7.989  10.957  69.233  1.00  0.00    -0.076 C  
HETATM   18  C   UNL     1      -5.666  10.889  67.431  1.00  0.00    -0.046 C  
HETATM   19  C   UNL     1      -7.000  11.325  66.850  1.00  0.00    -0.137 C  
HETATM   20  C   UNL     1      -5.841   9.740  68.433  1.00  0.00    -0.043 C  
BRANCH  20  21
HETATM   21  C   UNL     1      -6.380   8.462  67.784  1.00  0.00    -0.053 A  
HETATM   22  C   UNL     1      -7.338   6.145  66.481  1.00  0.00    -0.081 A  
HETATM   23  C   UNL     1      -5.688   7.892  66.696  1.00  0.00    -0.039 A  
HETATM   24  C   UNL     1      -6.165   6.749  66.046  1.00  0.00    -0.038 A  
HETATM   25  C   UNL     1      -8.028   6.670  67.567  1.00  0.00    -0.115 A  
HETATM   26 CL   UNL     1      -7.932   4.739  65.687  1.00  0.00    -0.098 Cl 
HETATM   27  C   UNL     1      -7.541   7.806  68.222  1.00  0.00    -0.109 A  
ENDBRANCH  20  21
ENDBRANCH   4  15
TORSDOF 2
ENDMDL
MODEL      127
REMARK 921   NORMALIZED FREE ENERGY PREDICTED BY IDOCK:   -2.62 KCAL/MOL
REMARK 922        TOTAL FREE ENERGY PREDICTED BY IDOCK:   -3.80 KCAL/MOL
REMARK 923 INTER-LIGAND FREE ENERGY PREDICTED BY IDOCK:   -3.63 KCAL/MOL
REMARK 924 INTRA-LIGAND FREE ENERGY PREDICTED BY IDOCK:   -0.18 KCAL/MOL
REMARK 927      BINDING AFFINITY PREDICTED BY RF-SCORE:    0.00 PKD
ROOT
HETATM    1  O   UNL     1      -5.225   7.174  65.992  1.00  0.00    -0.022 OA 
HETATM    2  C   UNL     1      -6.350   6.382  66.135  1.00  0.00    -0.042 C  
HETATM    3  H   UNL     1      -4.398   6.860  65.645  1.00  0.00     0.000 HD 
HETATM    4  C   UNL     1      -7.523   6.828  66.629  1.00  0.00    -0.079 C  
HETATM    5  C   UNL     1      -8.643   5.830  66.825  1.00  0.00    -0.112 C  
HETATM    6  C   UNL     1      -7.293   4.026  65.804  1.00  0.00    -0.076 A  
HETATM    7  C   UNL     1      -7.184   2.717  65.310  1.00  0.00    -0.062 A  
HETATM    8  C   UNL     1      -8.445   4.422  66.459  1.00  0.00    -0.112 A  
HETATM    9  O   UNL     1      -9.739   6.170  67.263  1.00  0.00    -0.120 OA 
HETATM   10  C   UNL     1      -9.462   3.488  66.709  1.00  0.00    -0.190 A  
HETATM   11  C   UNL     1      -6.176   4.972  65.649  1.00  0.00    -0.034 C  
HETATM   12  C   UNL     1      -9.345   2.178  66.242  1.00  0.00     0.103 A  
HETATM   13  O   UNL     1      -5.129   4.588  65.135  1.00  0.00    -0.008 OA 
HETATM   14  C   UNL     1      -8.216   1.800  65.518  1.00  0.00    -0.083 A  
ENDROOT
BRANCH   4  15
HETATM   15  C   UNL     1      -7.966   8.278  66.927  1.00  0.00    -0.099 C  
HETATM   16  C   UNL     1      -9.541   9.190  68.852  1.00  0.00    -0.152 C  
HETATM   17  C   UNL     1      -8.135   8.761  68.396  1.00  0.00    -0.117 C  
HETATM   18  C   UNL     1     -10.433   8.991  66.576  1.00  0.00    -0.192 C  
HETATM   19  C   UNL     1      -9.060   8.789  65.960  1.00  0.00    -0.265 C  
HETATM   20  C   UNL     1     -10.369   9.931  67.787  1.00  0.00    -0.268 C  
BRANCH  20  21
HETATM   21  C   UNL     1      -9.936  11.352  67.415  1.00  0.00    -0.207 A  
HETATM   22  C   UNL     1      -9.167  13.951  66.615  1.00  0.00    -0.236 A  
HETATM   23  C   UNL     1     -10.671  12.072  66.453  1.00  0.00    -0.294 A  
HETATM   24  C   UNL     1     -10.288  13.357  66.051  1.00  0.00    -0.297 A  
HETATM   25  C   UNL     1      -8.436  13.275  67.585  1.00  0.00    -0.191 A  
HETATM   26 CL   UNL     1      -8.688  15.530  66.128  1.00  0.00    -0.290 Cl 
HETATM   27  C   UNL     1      -8.830  11.995  67.992  1.00  0.00    -0.179 A  
ENDBRANCH  20  21
ENDBRANCH   4  15
TORSDOF 2
ENDMDL
MODEL      128
REMARK 921   NORMALIZED FREE ENERGY PREDICTED BY IDOCK:   -2.55 KCAL/MOL
REMARK 922        TOTAL FREE ENERGY PREDICTED BY IDOCK:   -3.73 KCAL/MOL
REMARK 923 INTER-LIGAND FREE ENERGY PREDICTED BY IDOCK:   -4.06 KCAL/MOL
REMARK 924 INTRA-LIGAND FREE ENERGY PREDICTED BY IDOCK:    0.33 KCAL/MOL
REMARK 927      BINDING AFFINITY PREDICTED BY RF-SCORE:    0.00 PKD
ROOT
HETATM    1  O   UNL     1     -10.235   5.113  69.385  1.00  0.00    -0.222 OA 
HETATM    2  C   UNL     1      -9.247   5.236  68.425  1.00  0.00    -0.113 C  
HETATM    3  H   UNL     1     -10.355   4.339  69.923  1.00  0.00     0.000 HD 
HETATM    4  C   UNL     1      -9.076   6.335  67.661  1.00  0.00    -0.117 C  
HETATM    5  C   UNL     1      -8.020   6.297  66.578  1.00  0.00    -0.109 C  
HETATM    6  C   UNL     1      -7.282   4.048  67.296  1.00  0.00    -0.068 A  
HETATM    7  C   UNL     1      -6.376   2.979  67.212  1.00  0.00    -0.036 A  
HETATM    8  C   UNL     1      -7.197   5.095  66.396  1.00  0.00    -0.077 A  
HETATM    9  O   UNL     1      -7.808   7.265  65.853  1.00  0.00    -0.095 OA 
HETATM   10  C   UNL     1      -6.269   5.040  65.345  1.00  0.00    -0.034 A  
HETATM   11  C   UNL     1      -8.335   4.048  68.324  1.00  0.00    -0.091 C  
HETATM   12  C   UNL     1      -5.385   3.964  65.243  1.00  0.00    -0.009 A  
HETATM   13  O   UNL     1      -8.448   3.079  69.069  1.00  0.00    -0.062 OA 
HETATM   14  C   UNL     1      -5.421   2.946  66.193  1.00  0.00    -0.017 A  
ENDROOT
BRANCH   4  15
HETATM   15  C   UNL     1      -9.732   7.727  67.798  1.00  0.00    -0.186 C  
HETATM   16  C   UNL     1     -10.097   9.599  65.959  1.00  0.00    -0.318 C  
HETATM   17  C   UNL     1     -10.590   8.309  66.638  1.00  0.00    -0.085 C  
HETATM   18  C   UNL     1      -8.295   9.875  67.600  1.00  0.00    -0.114 C  
HETATM   19  C   UNL     1      -8.816   8.763  68.492  1.00  0.00    -0.138 C  
HETATM   20  C   UNL     1      -9.443  10.621  66.907  1.00  0.00    -0.189 C  
BRANCH  20  21
HETATM   21  C   UNL     1     -10.355  11.356  67.893  1.00  0.00    -0.204 A  
HETATM   22  C   UNL     1     -11.989  12.816  69.677  1.00  0.00    -0.288 A  
HETATM   23  C   UNL     1     -10.888  12.612  67.540  1.00  0.00    -0.267 A  
HETATM   24  C   UNL     1     -11.693  13.339  68.425  1.00  0.00    -0.389 A  
HETATM   25  C   UNL     1     -11.497  11.569  70.043  1.00  0.00    -0.304 A  
HETATM   26 CL   UNL     1     -12.976  13.703  70.772  1.00  0.00    -0.263 Cl 
HETATM   27  C   UNL     1     -10.704  10.840  69.151  1.00  0.00    -0.265 A  
ENDBRANCH  20  21
ENDBRANCH   4  15
TORSDOF 2
ENDMDL
MODEL      129
REMARK 921   NORMALIZED FREE ENERGY PREDICTED BY IDOCK:   -2.31 KCAL/MOL
REMARK 922        TOTAL FREE ENERGY PREDICTED BY IDOCK:   -3.46 KCAL/MOL
REMARK 923 INTER-LIGAND FREE ENERGY PREDICTED BY IDOCK:   -4.35 KCAL/MOL
REMARK 924 INTRA-LIGAND FREE ENERGY PREDICTED BY IDOCK:    0.89 KCAL/MOL
REMARK 927      BINDING AFFINITY PREDICTED BY RF-SCORE:    0.00 PKD
ROOT
HETATM    1  O   UNL     1     -11.659   6.611  69.207  1.00  0.00    -0.618 OA 
HETATM    2  C   UNL     1     -10.480   6.772  69.912  1.00  0.00    -0.211 C  
HETATM    3  H   UNL     1     -12.278   5.908  69.366  1.00  0.00     0.000 HD 
HETATM    4  C   UNL     1      -9.601   7.770  69.686  1.00  0.00    -0.163 C  
HETATM    5  C   UNL     1      -8.302   7.769  70.461  1.00  0.00    -0.125 C  
HETATM    6  C   UNL     1      -9.020   5.800  71.775  1.00  0.00    -0.143 A  
HETATM    7  C   UNL     1      -8.815   4.902  72.835  1.00  0.00    -0.117 A  
HETATM    8  C   UNL     1      -8.035   6.714  71.447  1.00  0.00    -0.107 A  
HETATM    9  O   UNL     1      -7.462   8.652  70.309  1.00  0.00    -0.059 OA 
HETATM   10  C   UNL     1      -6.799   6.678  72.111  1.00  0.00    -0.067 A  
HETATM   11  C   UNL     1     -10.269   5.757  70.998  1.00  0.00    -0.217 C  
HETATM   12  C   UNL     1      -6.583   5.768  73.147  1.00  0.00    -0.069 A  
HETATM   13  O   UNL     1     -11.104   4.893  71.249  1.00  0.00     0.162 OA 
HETATM   14  C   UNL     1      -7.602   4.898  73.527  1.00  0.00    -0.092 A  
ENDROOT
BRANCH   4  15
HETATM   15  C   UNL     1      -9.766   9.033  68.812  1.00  0.00    -0.165 C  
HETATM   16  C   UNL     1     -10.278   9.228  66.220  1.00  0.00    -0.273 C  
HETATM   17  C   UNL     1     -10.806   9.059  67.655  1.00  0.00    -0.133 C  
HETATM   18  C   UNL     1      -7.992   9.624  67.017  1.00  0.00    -0.109 C  
HETATM   19  C   UNL     1      -8.419   9.714  68.471  1.00  0.00    -0.118 C  
HETATM   20  C   UNL     1      -9.074  10.177  66.080  1.00  0.00    -0.184 C  
BRANCH  20  21
HETATM   21  C   UNL     1      -9.326  11.674  66.283  1.00  0.00    -0.228 A  
HETATM   22  C   UNL     1      -9.861  14.435  66.559  1.00  0.00    -0.287 A  
HETATM   23  C   UNL     1     -10.602  12.206  66.008  1.00  0.00    -0.292 A  
HETATM   24  C   UNL     1     -10.867  13.574  66.138  1.00  0.00    -0.284 A  
HETATM   25  C   UNL     1      -8.600  13.935  66.862  1.00  0.00    -0.138 A  
HETATM   26 CL   UNL     1     -10.177  16.118  66.723  1.00  0.00    -0.274 Cl 
HETATM   27  C   UNL     1      -8.343  12.565  66.741  1.00  0.00    -0.034 A  
ENDBRANCH  20  21
ENDBRANCH   4  15
TORSDOF 2
ENDMDL
MODEL      130
REMARK 921   NORMALIZED FREE ENERGY PREDICTED BY IDOCK:   -2.13 KCAL/MOL
REMARK 922        TOTAL FREE ENERGY PREDICTED BY IDOCK:   -3.25 KCAL/MOL
REMARK 923 INTER-LIGAND FREE ENERGY PREDICTED BY IDOCK:   -4.21 KCAL/MOL
REMARK 924 INTRA-LIGAND FREE ENERGY PREDICTED BY IDOCK:    0.96 KCAL/MOL
REMARK 927      BINDING AFFINITY PREDICTED BY RF-SCORE:    0.00 PKD
ROOT
HETATM    1  O   UNL     1     -11.169   9.172  68.525  1.00  0.00    -0.452 OA 
HETATM    2  C   UNL     1     -10.152   8.369  68.038  1.00  0.00    -0.199 C  
HETATM    3  H   UNL     1     -11.934   8.838  68.978  1.00  0.00     0.000 HD 
HETATM    4  C   UNL     1      -9.066   8.843  67.394  1.00  0.00    -0.147 C  
HETATM    5  C   UNL     1      -8.080   7.847  66.825  1.00  0.00    -0.108 C  
HETATM    6  C   UNL     1      -9.337   5.955  67.803  1.00  0.00    -0.106 A  
HETATM    7  C   UNL     1      -9.445   4.587  68.100  1.00  0.00    -0.201 A  
HETATM    8  C   UNL     1      -8.306   6.407  67.000  1.00  0.00    -0.112 A  
HETATM    9  O   UNL     1      -7.067   8.211  66.234  1.00  0.00    -0.071 OA 
HETATM   10  C   UNL     1      -7.426   5.487  66.409  1.00  0.00    -0.087 A  
HETATM   11  C   UNL     1     -10.332   6.907  68.324  1.00  0.00    -0.193 C  
HETATM   12  C   UNL     1      -7.547   4.124  66.681  1.00  0.00    -0.089 A  
HETATM   13  O   UNL     1     -11.286   6.485  68.972  1.00  0.00    -0.312 OA 
HETATM   14  C   UNL     1      -8.541   3.676  67.548  1.00  0.00    -0.112 A  
ENDROOT
BRANCH   4  15
HETATM   15  C   UNL     1      -8.584  10.304  67.242  1.00  0.00    -0.125 C  
HETATM   16  C   UNL     1      -6.188  11.221  66.583  1.00  0.00    -0.141 C  
HETATM   17  C   UNL     1      -7.558  10.681  66.135  1.00  0.00    -0.138 C  
HETATM   18  C   UNL     1      -6.894  11.307  68.931  1.00  0.00    -0.086 C  
HETATM   19  C   UNL     1      -8.345  11.008  68.598  1.00  0.00    -0.153 C  
HETATM   20  C   UNL     1      -6.225  12.132  67.823  1.00  0.00    -0.089 C  
BRANCH  20  21
HETATM   21  C   UNL     1      -6.845  13.523  67.661  1.00  0.00    -0.178 A  
HETATM   22  C   UNL     1      -7.928  16.125  67.458  1.00  0.00    -0.150 A  
HETATM   23  C   UNL     1      -6.069  14.666  67.940  1.00  0.00    -0.162 A  
HETATM   24  C   UNL     1      -6.605  15.955  67.846  1.00  0.00    -0.160 A  
HETATM   25  C   UNL     1      -8.711  15.019  67.152  1.00  0.00    -0.242 A  
HETATM   26 CL   UNL     1      -8.596  17.706  67.339  1.00  0.00    -0.224 Cl 
HETATM   27  C   UNL     1      -8.167  13.732  67.236  1.00  0.00    -0.173 A  
ENDBRANCH  20  21
ENDBRANCH   4  15
TORSDOF 2
ENDMDL
MODEL      131
REMARK 921   NORMALIZED FREE ENERGY PREDICTED BY IDOCK:   -2.00 KCAL/MOL
REMARK 922        TOTAL FREE ENERGY PREDICTED BY IDOCK:   -3.11 KCAL/MOL
REMARK 923 INTER-LIGAND FREE ENERGY PREDICTED BY IDOCK:   -4.18 KCAL/MOL
REMARK 924 INTRA-LIGAND FREE ENERGY PREDICTED BY IDOCK:    1.07 KCAL/MOL
REMARK 927      BINDING AFFINITY PREDICTED BY RF-SCORE:    0.00 PKD
ROOT
HETATM    1  O   UNL     1      -8.301  11.131  66.706  1.00  0.00    -0.140 OA 
HETATM    2  C   UNL     1      -8.593   9.841  67.113  1.00  0.00    -0.128 C  
HETATM    3  H   UNL     1      -7.837  11.339  65.903  1.00  0.00     0.000 HD 
HETATM    4  C   UNL     1      -9.251   9.547  68.253  1.00  0.00    -0.132 C  
HETATM    5  C   UNL     1      -9.416   8.090  68.628  1.00  0.00    -0.147 C  
HETATM    6  C   UNL     1      -8.363   7.365  66.511  1.00  0.00    -0.124 A  
HETATM    7  C   UNL     1      -8.014   6.347  65.610  1.00  0.00    -0.120 A  
HETATM    8  C   UNL     1      -8.886   7.040  67.749  1.00  0.00    -0.123 A  
HETATM    9  O   UNL     1     -10.011   7.752  69.648  1.00  0.00    -0.184 OA 
HETATM   10  C   UNL     1      -8.979   5.695  68.137  1.00  0.00    -0.111 A  
HETATM   11  C   UNL     1      -8.152   8.777  66.151  1.00  0.00    -0.107 C  
HETATM   12  C   UNL     1      -8.607   4.680  67.253  1.00  0.00    -0.104 A  
HETATM   13  O   UNL     1      -7.617   9.052  65.081  1.00  0.00    -0.095 OA 
HETATM   14  C   UNL     1      -8.150   5.007  65.978  1.00  0.00    -0.108 A  
ENDROOT
BRANCH   4  15
HETATM   15  C   UNL     1     -10.001  10.493  69.218  1.00  0.00    -0.233 C  
HETATM   16  C   UNL     1     -11.907   9.937  70.971  1.00  0.00    -0.463 C  
HETATM   17  C   UNL     1     -10.406  10.006  70.639  1.00  0.00    -0.153 C  
HETATM   18  C   UNL     1     -12.514  11.013  68.852  1.00  0.00     0.325 C  
HETATM   19  C   UNL     1     -11.073  11.354  68.511  1.00  0.00    -0.287 C  
HETATM   20  C   UNL     1     -12.757  11.068  70.366  1.00  0.00    -0.297 C  
BRANCH  20  21
HETATM   21  C   UNL     1     -12.579  12.475  70.946  1.00  0.00    -0.331 A  
HETATM   22  C   UNL     1     -12.370  15.085  72.008  1.00  0.00    -0.347 A  
HETATM   23  C   UNL     1     -13.552  12.990  71.827  1.00  0.00    -0.299 A  
HETATM   24  C   UNL     1     -13.452  14.285  72.348  1.00  0.00    -0.586 A  
HETATM   25  C   UNL     1     -11.383  14.595  71.161  1.00  0.00    -0.095 A  
HETATM   26 CL   UNL     1     -12.239  16.678  72.644  1.00  0.00    -0.297 Cl 
HETATM   27  C   UNL     1     -11.480  13.296  70.651  1.00  0.00     0.502 A  
ENDBRANCH  20  21
ENDBRANCH   4  15
TORSDOF 2
ENDMDL
MODEL      132
REMARK 921   NORMALIZED FREE ENERGY PREDICTED BY IDOCK:   -1.99 KCAL/MOL
REMARK 922        TOTAL FREE ENERGY PREDICTED BY IDOCK:   -3.10 KCAL/MOL
REMARK 923 INTER-LIGAND FREE ENERGY PREDICTED BY IDOCK:   -3.16 KCAL/MOL
REMARK 924 INTRA-LIGAND FREE ENERGY PREDICTED BY IDOCK:    0.05 KCAL/MOL
REMARK 927      BINDING AFFINITY PREDICTED BY RF-SCORE:    0.00 PKD
ROOT
HETATM    1  O   UNL     1      -8.290  18.068  70.100  1.00  0.00     1.802 OA 
HETATM    2  C   UNL     1      -7.868  17.996  68.784  1.00  0.00    -0.258 C  
HETATM    3  H   UNL     1      -8.311  18.873  70.604  1.00  0.00     0.000 HD 
HETATM    4  C   UNL     1      -7.837  16.853  68.068  1.00  0.00    -0.180 C  
HETATM    5  C   UNL     1      -7.259  16.899  66.671  1.00  0.00    -0.259 C  
HETATM    6  C   UNL     1      -6.965  19.351  66.810  1.00  0.00    -0.206 A  
HETATM    7  C   UNL     1      -6.649  20.576  66.203  1.00  0.00    -0.278 A  
HETATM    8  C   UNL     1      -6.771  18.169  66.118  1.00  0.00    -0.292 A  
HETATM    9  O   UNL     1      -7.207  15.897  65.963  1.00  0.00     0.608 OA 
HETATM   10  C   UNL     1      -6.171  18.192  64.850  1.00  0.00     0.272 A  
HETATM   11  C   UNL     1      -7.482  19.318  68.188  1.00  0.00    -0.289 C  
HETATM   12  C   UNL     1      -5.830  19.408  64.255  1.00  0.00    -0.316 A  
HETATM   13  O   UNL     1      -7.579  20.367  68.819  1.00  0.00     0.026 OA 
HETATM   14  C   UNL     1      -6.094  20.602  64.921  1.00  0.00    -0.311 A  
ENDROOT
BRANCH   4  15
HETATM   15  C   UNL     1      -8.432  15.470  68.415  1.00  0.00    -0.163 C  
HETATM   16  C   UNL     1      -7.840  13.089  67.417  1.00  0.00    -0.166 C  
HETATM   17  C   UNL     1      -7.526  14.206  68.428  1.00  0.00    -0.124 C  
HETATM   18  C   UNL     1      -9.899  14.206  66.692  1.00  0.00    -0.289 C  
HETATM   19  C   UNL     1      -9.834  15.242  67.802  1.00  0.00    -0.220 C  
HETATM   20  C   UNL     1      -9.338  12.855  67.154  1.00  0.00    -0.229 C  
BRANCH  20  21
HETATM   21  C   UNL     1     -10.163  12.222  68.278  1.00  0.00    -0.221 A  
HETATM   22  C   UNL     1     -11.673  10.948  70.299  1.00  0.00    -0.347 A  
HETATM   23  C   UNL     1      -9.831  10.933  68.742  1.00  0.00    -0.203 A  
HETATM   24  C   UNL     1     -10.581  10.299  69.738  1.00  0.00    -0.312 A  
HETATM   25  C   UNL     1     -12.010  12.229  69.880  1.00  0.00    -0.377 A  
HETATM   26 CL   UNL     1     -12.603  10.176  71.523  1.00  0.00    -0.498 Cl 
HETATM   27  C   UNL     1     -11.250  12.865  68.892  1.00  0.00    -0.327 A  
ENDBRANCH  20  21
ENDBRANCH   4  15
TORSDOF 2
ENDMDL
MODEL      133
REMARK 921   NORMALIZED FREE ENERGY PREDICTED BY IDOCK:   -1.82 KCAL/MOL
REMARK 922        TOTAL FREE ENERGY PREDICTED BY IDOCK:   -2.91 KCAL/MOL
REMARK 923 INTER-LIGAND FREE ENERGY PREDICTED BY IDOCK:   -3.21 KCAL/MOL
REMARK 924 INTRA-LIGAND FREE ENERGY PREDICTED BY IDOCK:    0.30 KCAL/MOL
REMARK 927      BINDING AFFINITY PREDICTED BY RF-SCORE:    0.00 PKD
ROOT
HETATM    1  O   UNL     1      -8.631   6.723  67.454  1.00  0.00    -0.120 OA 
HETATM    2  C   UNL     1      -8.053   7.570  68.382  1.00  0.00    -0.125 C  
HETATM    3  H   UNL     1      -8.582   5.775  67.501  1.00  0.00     0.000 HD 
HETATM    4  C   UNL     1      -8.123   8.915  68.314  1.00  0.00    -0.109 C  
HETATM    5  C   UNL     1      -7.360   9.724  69.340  1.00  0.00    -0.087 C  
HETATM    6  C   UNL     1      -6.668   7.670  70.531  1.00  0.00    -0.042 A  
HETATM    7  C   UNL     1      -6.064   7.046  71.634  1.00  0.00    -0.037 A  
HETATM    8  C   UNL     1      -6.589   9.043  70.388  1.00  0.00    -0.049 A  
HETATM    9  O   UNL     1      -7.386  10.952  69.340  1.00  0.00    -0.122 OA 
HETATM   10  C   UNL     1      -5.826   9.798  71.293  1.00  0.00    -0.052 A  
HETATM   11  C   UNL     1      -7.366   6.866  69.515  1.00  0.00    -0.091 C  
HETATM   12  C   UNL     1      -5.202   9.176  72.375  1.00  0.00    -0.070 A  
HETATM   13  O   UNL     1      -7.365   5.642  69.613  1.00  0.00    -0.063 OA 
HETATM   14  C   UNL     1      -5.344   7.803  72.561  1.00  0.00    -0.036 A  
ENDROOT
BRANCH   4  15
HETATM   15  C   UNL     1      -8.990   9.801  67.391  1.00  0.00    -0.144 C  
HETATM   16  C   UNL     1     -10.333   9.139  65.206  1.00  0.00     1.300 C  
HETATM   17  C   UNL     1     -10.282   9.229  66.741  1.00  0.00    -0.325 C  
HETATM   18  C   UNL     1      -8.206  10.339  64.979  1.00  0.00    -0.154 C  
HETATM   19  C   UNL     1      -8.152  10.702  66.453  1.00  0.00    -0.148 C  
HETATM   20  C   UNL     1      -9.651  10.303  64.465  1.00  0.00    -0.378 C  
BRANCH  20  21
HETATM   21  C   UNL     1     -10.334  11.672  64.518  1.00  0.00    -0.349 A  
HETATM   22  C   UNL     1     -11.608  14.195  64.496  1.00  0.00    -0.389 A  
HETATM   23  C   UNL     1     -11.405  11.947  63.644  1.00  0.00    -0.536 A  
HETATM   24  C   UNL     1     -12.033  13.198  63.627  1.00  0.00    -0.580 A  
HETATM   25  C   UNL     1     -10.572  13.945  65.387  1.00  0.00    -0.344 A  
HETATM   26 CL   UNL     1     -12.373  15.735  64.484  1.00  0.00     0.070 Cl 
HETATM   27  C   UNL     1      -9.955  12.689  65.408  1.00  0.00    -0.230 A  
ENDBRANCH  20  21
ENDBRANCH   4  15
TORSDOF 2
ENDMDL
MODEL      134
REMARK 921   NORMALIZED FREE ENERGY PREDICTED BY IDOCK:   -0.57 KCAL/MOL
REMARK 922        TOTAL FREE ENERGY PREDICTED BY IDOCK:   -1.52 KCAL/MOL
REMARK 923 INTER-LIGAND FREE ENERGY PREDICTED BY IDOCK:   -1.63 KCAL/MOL
REMARK 924 INTRA-LIGAND FREE ENERGY PREDICTED BY IDOCK:    0.11 KCAL/MOL
REMARK 927      BINDING AFFINITY PREDICTED BY RF-SCORE:    0.00 PKD
ROOT
HETATM    1  O   UNL     1      -8.404  17.104  70.185  1.00  0.00     1.664 OA 
HETATM    2  C   UNL     1      -7.659  17.175  69.022  1.00  0.00    -0.187 C  
HETATM    3  H   UNL     1      -8.847  17.849  70.575  1.00  0.00     0.000 HD 
HETATM    4  C   UNL     1      -7.030  16.117  68.470  1.00  0.00    -0.137 C  
HETATM    5  C   UNL     1      -6.165  16.355  67.252  1.00  0.00    -0.177 C  
HETATM    6  C   UNL     1      -6.830  18.736  67.173  1.00  0.00    -0.204 A  
HETATM    7  C   UNL     1      -6.833  19.979  66.520  1.00  0.00    -0.246 A  
HETATM    8  C   UNL     1      -6.046  17.706  66.686  1.00  0.00    -0.221 A  
HETATM    9  O   UNL     1      -5.570  15.436  66.695  1.00  0.00     0.537 OA 
HETATM   10  C   UNL     1      -5.188  17.933  65.600  1.00  0.00    -0.201 A  
HETATM   11  C   UNL     1      -7.638  18.533  68.385  1.00  0.00    -0.292 C  
HETATM   12  C   UNL     1      -5.169  19.176  64.966  1.00  0.00    -0.203 A  
HETATM   13  O   UNL     1      -8.270  19.478  68.851  1.00  0.00    -0.359 OA 
HETATM   14  C   UNL     1      -6.013  20.191  65.410  1.00  0.00    -0.230 A  
ENDROOT
BRANCH   4  15
HETATM   15  C   UNL     1      -7.149  14.618  68.825  1.00  0.00    -0.113 C  
HETATM   16  C   UNL     1      -5.272  12.750  68.878  1.00  0.00    -0.067 C  
HETATM   17  C   UNL     1      -6.004  13.899  69.593  1.00  0.00    -0.114 C  
HETATM   18  C   UNL     1      -6.840  12.811  66.992  1.00  0.00     0.176 C  
HETATM   19  C   UNL     1      -7.782  13.776  67.692  1.00  0.00    -0.187 C  
HETATM   20  C   UNL     1      -6.167  11.863  67.993  1.00  0.00    -0.055 C  
BRANCH  20  21
HETATM   21  C   UNL     1      -7.163  10.937  68.698  1.00  0.00    -0.088 A  
HETATM   22  C   UNL     1      -8.912   9.152  70.017  1.00  0.00    -0.187 A  
HETATM   23  C   UNL     1      -6.746  10.196  69.821  1.00  0.00    -0.096 A  
HETATM   24  C   UNL     1      -7.609   9.307  70.472  1.00  0.00    -0.147 A  
HETATM   25  C   UNL     1      -9.360   9.889  68.927  1.00  0.00    -0.170 A  
HETATM   26 CL   UNL     1      -9.980   8.062  70.810  1.00  0.00    -0.195 Cl 
HETATM   27  C   UNL     1      -8.497  10.786  68.287  1.00  0.00    -0.130 A  
ENDBRANCH  20  21
ENDBRANCH   4  15
TORSDOF 2
ENDMDL
MODEL      135
REMARK 921   NORMALIZED FREE ENERGY PREDICTED BY IDOCK:   -0.11 KCAL/MOL
REMARK 922        TOTAL FREE ENERGY PREDICTED BY IDOCK:   -1.00 KCAL/MOL
REMARK 923 INTER-LIGAND FREE ENERGY PREDICTED BY IDOCK:   -1.11 KCAL/MOL
REMARK 924 INTRA-LIGAND FREE ENERGY PREDICTED BY IDOCK:    0.11 KCAL/MOL
REMARK 927      BINDING AFFINITY PREDICTED BY RF-SCORE:    0.00 PKD
ROOT
HETATM    1  O   UNL     1     -10.478   6.346  65.011  1.00  0.00     1.954 OA 
HETATM    2  C   UNL     1      -9.242   5.852  65.388  1.00  0.00     0.147 C  
HETATM    3  H   UNL     1     -11.156   5.818  64.605  1.00  0.00     0.000 HD 
HETATM    4  C   UNL     1      -8.280   6.602  65.964  1.00  0.00    -0.128 C  
HETATM    5  C   UNL     1      -6.937   5.960  66.233  1.00  0.00    -0.063 C  
HETATM    6  C   UNL     1      -7.766   3.764  65.455  1.00  0.00    -0.082 A  
HETATM    7  C   UNL     1      -7.584   2.382  65.290  1.00  0.00    -0.075 A  
HETATM    8  C   UNL     1      -6.715   4.549  65.891  1.00  0.00    -0.053 A  
HETATM    9  O   UNL     1      -6.020   6.583  66.762  1.00  0.00    -0.023 OA 
HETATM   10  C   UNL     1      -5.446   3.979  66.077  1.00  0.00    -0.013 A  
HETATM   11  C   UNL     1      -9.064   4.383  65.142  1.00  0.00    -0.148 C  
HETATM   12  C   UNL     1      -5.256   2.609  65.888  1.00  0.00    -0.008 A  
HETATM   13  O   UNL     1      -9.967   3.688  64.684  1.00  0.00    -0.179 OA 
HETATM   14  C   UNL     1      -6.332   1.806  65.520  1.00  0.00    -0.023 A  
ENDROOT
BRANCH   4  15
HETATM   15  C   UNL     1      -8.370   8.039  66.527  1.00  0.00    -0.121 C  
HETATM   16  C   UNL     1      -9.209   8.863  68.900  1.00  0.00    -0.140 C  
HETATM   17  C   UNL     1      -8.067   8.315  68.027  1.00  0.00    -0.127 C  
HETATM   18  C   UNL     1     -10.680   9.134  66.956  1.00  0.00    -0.189 C  
HETATM   19  C   UNL     1      -9.570   8.836  65.963  1.00  0.00    -0.297 C  
HETATM   20  C   UNL     1     -10.142   9.863  68.194  1.00  0.00    -0.193 C  
BRANCH  20  21
HETATM   21  C   UNL     1      -9.577  11.249  67.869  1.00  0.00    -0.182 A  
HETATM   22  C   UNL     1      -8.559  13.786  67.153  1.00  0.00    -0.198 A  
HETATM   23  C   UNL     1     -10.175  12.021  66.852  1.00  0.00    -0.230 A  
HETATM   24  C   UNL     1      -9.669  13.274  66.492  1.00  0.00    -0.273 A  
HETATM   25  C   UNL     1      -7.964  13.059  68.177  1.00  0.00    -0.154 A  
HETATM   26 CL   UNL     1      -7.929  15.326  66.718  1.00  0.00    -0.188 Cl 
HETATM   27  C   UNL     1      -8.481  11.811  68.541  1.00  0.00    -0.125 A  
ENDBRANCH  20  21
ENDBRANCH   4  15
TORSDOF 2
ENDMDL
MODEL      136
REMARK 921   NORMALIZED FREE ENERGY PREDICTED BY IDOCK:    0.69 KCAL/MOL
REMARK 922        TOTAL FREE ENERGY PREDICTED BY IDOCK:   -0.10 KCAL/MOL
REMARK 923 INTER-LIGAND FREE ENERGY PREDICTED BY IDOCK:   -0.60 KCAL/MOL
REMARK 924 INTRA-LIGAND FREE ENERGY PREDICTED BY IDOCK:    0.50 KCAL/MOL
REMARK 927      BINDING AFFINITY PREDICTED BY RF-SCORE:    0.00 PKD
ROOT
HETATM    1  O   UNL     1      -8.454  17.194  69.691  1.00  0.00     0.416 OA 
HETATM    2  C   UNL     1      -7.852  17.442  68.470  1.00  0.00    -0.268 C  
HETATM    3  H   UNL     1      -8.635  17.867  70.337  1.00  0.00     0.000 HD 
HETATM    4  C   UNL     1      -7.596  16.487  67.553  1.00  0.00    -0.170 C  
HETATM    5  C   UNL     1      -6.841  16.880  66.302  1.00  0.00    -0.051 C  
HETATM    6  C   UNL     1      -6.847  19.260  66.976  1.00  0.00    -0.207 A  
HETATM    7  C   UNL     1      -6.591  20.609  66.685  1.00  0.00    -0.321 A  
HETATM    8  C   UNL     1      -6.429  18.275  66.100  1.00  0.00    -0.266 A  
HETATM    9  O   UNL     1      -6.581  16.062  65.424  1.00  0.00     3.649 OA 
HETATM   10  C   UNL     1      -5.668  18.620  64.972  1.00  0.00    -0.273 A  
HETATM   11  C   UNL     1      -7.540  18.889  68.220  1.00  0.00    -0.287 C  
HETATM   12  C   UNL     1      -5.388  19.959  64.695  1.00  0.00    -0.206 A  
HETATM   13  O   UNL     1      -7.839  19.765  69.026  1.00  0.00    -0.292 OA 
HETATM   14  C   UNL     1      -5.873  20.956  65.538  1.00  0.00    -0.273 A  
ENDROOT
BRANCH   4  15
HETATM   15  C   UNL     1      -8.072  15.018  67.517  1.00  0.00    -0.200 C  
HETATM   16  C   UNL     1     -10.330  14.007  66.571  1.00  0.00    -0.285 C  
HETATM   17  C   UNL     1      -8.893  14.487  66.306  1.00  0.00     0.046 C  
HETATM   18  C   UNL     1     -10.057  14.248  68.996  1.00  0.00    -0.130 C  
HETATM   19  C   UNL     1      -8.564  14.506  68.892  1.00  0.00    -0.103 C  
HETATM   20  C   UNL     1     -10.534  13.276  67.910  1.00  0.00    -0.244 C  
BRANCH  20  21
HETATM   21  C   UNL     1      -9.923  11.879  68.053  1.00  0.00    -0.192 A  
HETATM   22  C   UNL     1      -8.780   9.299  68.199  1.00  0.00    -0.125 A  
HETATM   23  C   UNL     1      -8.843  11.506  67.228  1.00  0.00    -0.160 A  
HETATM   24  C   UNL     1      -8.280  10.227  67.294  1.00  0.00    -0.121 A  
HETATM   25  C   UNL     1      -9.828   9.646  69.043  1.00  0.00    -0.183 A  
HETATM   26 CL   UNL     1      -8.095   7.723  68.288  1.00  0.00    -0.122 Cl 
HETATM   27  C   UNL     1     -10.380  10.930  68.981  1.00  0.00    -0.230 A  
ENDBRANCH  20  21
ENDBRANCH   4  15
TORSDOF 2
ENDMDL
MODEL      137
REMARK 921   NORMALIZED FREE ENERGY PREDICTED BY IDOCK:    0.82 KCAL/MOL
REMARK 922        TOTAL FREE ENERGY PREDICTED BY IDOCK:    0.03 KCAL/MOL
REMARK 923 INTER-LIGAND FREE ENERGY PREDICTED BY IDOCK:   -0.53 KCAL/MOL
REMARK 924 INTRA-LIGAND FREE ENERGY PREDICTED BY IDOCK:    0.57 KCAL/MOL
REMARK 927      BINDING AFFINITY PREDICTED BY RF-SCORE:    0.00 PKD
ROOT
HETATM    1  O   UNL     1      -7.696   9.496  63.512  1.00  0.00    -0.114 OA 
HETATM    2  C   UNL     1      -7.307   8.542  64.435  1.00  0.00    -0.097 C  
HETATM    3  H   UNL     1      -7.783   9.325  62.581  1.00  0.00     0.000 HD 
HETATM    4  C   UNL     1      -7.184   8.784  65.756  1.00  0.00    -0.084 C  
HETATM    5  C   UNL     1      -6.652   7.677  66.640  1.00  0.00    -0.057 C  
HETATM    6  C   UNL     1      -6.599   6.101  64.735  1.00  0.00    -0.038 A  
HETATM    7  C   UNL     1      -6.422   4.802  64.232  1.00  0.00    -0.038 A  
HETATM    8  C   UNL     1      -6.309   6.373  66.059  1.00  0.00    -0.039 A  
HETATM    9  O   UNL     1      -6.522   7.828  67.852  1.00  0.00    -0.049 OA 
HETATM   10  C   UNL     1      -5.750   5.374  66.871  1.00  0.00    -0.017 A  
HETATM   11  C   UNL     1      -7.070   7.180  63.851  1.00  0.00    -0.061 C  
HETATM   12  C   UNL     1      -5.548   4.089  66.367  1.00  0.00    -0.018 A  
HETATM   13  O   UNL     1      -7.253   6.945  62.659  1.00  0.00    -0.054 OA 
HETATM   14  C   UNL     1      -5.909   3.796  65.054  1.00  0.00    -0.022 A  
ENDROOT
BRANCH   4  15
HETATM   15  C   UNL     1      -7.629  10.023  66.565  1.00  0.00    -0.106 C  
HETATM   16  C   UNL     1     -10.049  10.703  67.400  1.00  0.00    -0.231 C  
HETATM   17  C   UNL     1      -8.756   9.902  67.631  1.00  0.00    -0.121 C  
HETATM   18  C   UNL     1      -9.090  11.855  65.457  1.00  0.00     0.073 C  
HETATM   19  C   UNL     1      -7.695  11.312  65.713  1.00  0.00     0.221 C  
HETATM   20  C   UNL     1      -9.846  12.094  66.771  1.00  0.00    -0.218 C  
BRANCH  20  21
HETATM   21  C   UNL     1      -9.199  13.176  67.640  1.00  0.00    -0.207 A  
HETATM   22  C   UNL     1      -7.999  15.094  69.333  1.00  0.00    -0.205 A  
HETATM   23  C   UNL     1      -8.181  12.820  68.547  1.00  0.00    -0.068 A  
HETATM   24  C   UNL     1      -7.590  13.768  69.391  1.00  0.00     0.304 A  
HETATM   25  C   UNL     1      -8.983  15.479  68.431  1.00  0.00    -0.189 A  
HETATM   26 CL   UNL     1      -7.279  16.266  70.366  1.00  0.00     1.118 Cl 
HETATM   27  C   UNL     1      -9.563  14.531  67.581  1.00  0.00    -0.214 A  
ENDBRANCH  20  21
ENDBRANCH   4  15
TORSDOF 2
ENDMDL
MODEL      138
REMARK 921   NORMALIZED FREE ENERGY PREDICTED BY IDOCK:    1.66 KCAL/MOL
REMARK 922        TOTAL FREE ENERGY PREDICTED BY IDOCK:    0.98 KCAL/MOL
REMARK 923 INTER-LIGAND FREE ENERGY PREDICTED BY IDOCK:    1.16 KCAL/MOL
REMARK 924 INTRA-LIGAND FREE ENERGY PREDICTED BY IDOCK:   -0.18 KCAL/MOL
REMARK 927      BINDING AFFINITY PREDICTED BY RF-SCORE:    0.00 PKD
ROOT
HETATM    1  O   UNL     1      -5.732   7.290  65.508  1.00  0.00    -0.035 OA 
HETATM    2  C   UNL     1      -6.802   6.417  65.430  1.00  0.00    -0.048 C  
HETATM    3  H   UNL     1      -4.871   7.103  65.154  1.00  0.00     0.000 HD 
HETATM    4  C   UNL     1      -8.024   6.684  65.934  1.00  0.00    -0.112 C  
HETATM    5  C   UNL     1      -9.077   5.599  65.869  1.00  0.00    -0.148 C  
HETATM    6  C   UNL     1      -7.558   4.120  64.595  1.00  0.00    -0.077 A  
HETATM    7  C   UNL     1      -7.334   2.944  63.863  1.00  0.00    -0.065 A  
HETATM    8  C   UNL     1      -8.763   4.306  65.248  1.00  0.00    -0.124 A  
HETATM    9  O   UNL     1     -10.213   5.777  66.302  1.00  0.00    -0.153 OA 
HETATM   10  C   UNL     1      -9.720   3.280  65.253  1.00  0.00    -0.031 A  
HETATM   11  C   UNL     1      -6.507   5.145  64.691  1.00  0.00    -0.035 C  
HETATM   12  C   UNL     1      -9.489   2.098  64.548  1.00  0.00    -0.112 A  
HETATM   13  O   UNL     1      -5.414   4.936  64.171  1.00  0.00    -0.012 OA 
HETATM   14  C   UNL     1      -8.306   1.941  63.830  1.00  0.00    -0.080 A  
ENDROOT
BRANCH   4  15
HETATM   15  C   UNL     1      -8.583   8.015  66.483  1.00  0.00    -0.148 C  
HETATM   16  C   UNL     1      -7.380  10.361  66.746  1.00  0.00    -0.110 C  
HETATM   17  C   UNL     1      -8.147   9.370  65.853  1.00  0.00    -0.114 C  
HETATM   18  C   UNL     1      -7.722   8.967  68.735  1.00  0.00    -0.095 C  
HETATM   19  C   UNL     1      -8.691   8.037  68.026  1.00  0.00    -0.125 C  
HETATM   20  C   UNL     1      -7.843  10.405  68.213  1.00  0.00    -0.105 C  
BRANCH  20  21
HETATM   21  C   UNL     1      -9.211  11.030  68.504  1.00  0.00    -0.177 A  
HETATM   22  C   UNL     1     -11.737  12.222  68.930  1.00  0.00    -0.328 A  
HETATM   23  C   UNL     1     -10.202  11.029  67.502  1.00  0.00    -0.219 A  
HETATM   24  C   UNL     1     -11.451  11.625  67.709  1.00  0.00    -0.373 A  
HETATM   25  C   UNL     1     -10.789  12.217  69.945  1.00  0.00     0.497 A  
HETATM   26 CL   UNL     1     -13.270  12.957  69.194  1.00  0.00     2.075 Cl 
HETATM   27  C   UNL     1      -9.545  11.609  69.738  1.00  0.00     1.418 A  
ENDBRANCH  20  21
ENDBRANCH   4  15
TORSDOF 2
ENDMDL
MODEL      139
REMARK 921   NORMALIZED FREE ENERGY PREDICTED BY IDOCK:    3.38 KCAL/MOL
REMARK 922        TOTAL FREE ENERGY PREDICTED BY IDOCK:    2.90 KCAL/MOL
REMARK 923 INTER-LIGAND FREE ENERGY PREDICTED BY IDOCK:    2.05 KCAL/MOL
REMARK 924 INTRA-LIGAND FREE ENERGY PREDICTED BY IDOCK:    0.85 KCAL/MOL
REMARK 927      BINDING AFFINITY PREDICTED BY RF-SCORE:    0.00 PKD
ROOT
HETATM    1  O   UNL     1     -10.321  12.657  65.976  1.00  0.00    -0.259 OA 
HETATM    2  C   UNL     1      -9.862  13.504  66.969  1.00  0.00    -0.251 C  
HETATM    3  H   UNL     1     -10.322  12.878  65.052  1.00  0.00     0.000 HD 
HETATM    4  C   UNL     1      -9.862  13.191  68.280  1.00  0.00    -0.227 C  
HETATM    5  C   UNL     1      -9.425  14.249  69.269  1.00  0.00     0.224 C  
HETATM    6  C   UNL     1      -8.847  15.806  67.436  1.00  0.00    -0.199 A  
HETATM    7  C   UNL     1      -8.276  17.010  66.995  1.00  0.00    -0.232 A  
HETATM    8  C   UNL     1      -8.993  15.569  68.791  1.00  0.00    -0.204 A  
HETATM    9  O   UNL     1      -9.393  14.028  70.477  1.00  0.00     2.457 OA 
HETATM   10  C   UNL     1      -8.656  16.569  69.716  1.00  0.00     0.763 A  
HETATM   11  C   UNL     1      -9.313  14.806  66.462  1.00  0.00    -0.290 C  
HETATM   12  C   UNL     1      -8.113  17.778  69.278  1.00  0.00     0.212 A  
HETATM   13  O   UNL     1      -9.248  15.060  65.262  1.00  0.00     0.206 OA 
HETATM   14  C   UNL     1      -7.898  17.988  67.918  1.00  0.00    -0.235 A  
ENDROOT
BRANCH   4  15
HETATM   15  C   UNL     1     -10.134  11.828  68.957  1.00  0.00    -0.004 C  
HETATM   16  C   UNL     1     -12.037  10.056  68.457  1.00  0.00     1.164 C  
HETATM   17  C   UNL     1     -10.648  10.623  68.118  1.00  0.00    -0.237 C  
HETATM   18  C   UNL     1     -12.239  11.496  70.432  1.00  0.00    -0.442 C  
HETATM   19  C   UNL     1     -10.796  11.964  70.348  1.00  0.00     1.438 C  
HETATM   20  C   UNL     1     -12.385  10.045  69.956  1.00  0.00     0.018 C  
BRANCH  20  21
HETATM   21  C   UNL     1     -11.638   9.049  70.849  1.00  0.00    -0.344 A  
HETATM   22  C   UNL     1     -10.226   7.154  72.397  1.00  0.00    -0.189 A  
HETATM   23  C   UNL     1     -10.411   8.511  70.412  1.00  0.00    -0.222 A  
HETATM   24  C   UNL     1      -9.713   7.568  71.174  1.00  0.00    -0.168 A  
HETATM   25  C   UNL     1     -11.421   7.685  72.866  1.00  0.00    -0.342 A  
HETATM   26 CL   UNL     1      -9.376   5.994  73.342  1.00  0.00    -0.135 Cl 
HETATM   27  C   UNL     1     -12.109   8.637  72.105  1.00  0.00    -0.451 A  
ENDBRANCH  20  21
ENDBRANCH   4  15
TORSDOF 2
ENDMDL
MODEL      140
REMARK 921   NORMALIZED FREE ENERGY PREDICTED BY IDOCK:    7.23 KCAL/MOL
REMARK 922        TOTAL FREE ENERGY PREDICTED BY IDOCK:    7.20 KCAL/MOL
REMARK 923 INTER-LIGAND FREE ENERGY PREDICTED BY IDOCK:    7.29 KCAL/MOL
REMARK 924 INTRA-LIGAND FREE ENERGY PREDICTED BY IDOCK:   -0.09 KCAL/MOL
REMARK 927      BINDING AFFINITY PREDICTED BY RF-SCORE:    0.00 PKD
ROOT
HETATM    1  O   UNL     1     -12.890  14.322  68.295  1.00  0.00     0.010 OA 
HETATM    2  C   UNL     1     -12.398  14.573  69.564  1.00  0.00    -0.208 C  
HETATM    3  H   UNL     1     -13.750  14.598  67.998  1.00  0.00     0.000 HD 
HETATM    4  C   UNL     1     -11.179  14.181  69.985  1.00  0.00    -0.118 C  
HETATM    5  C   UNL     1     -10.806  14.433  71.430  1.00  0.00     1.466 C  
HETATM    6  C   UNL     1     -12.925  15.644  71.827  1.00  0.00    -0.541 A  
HETATM    7  C   UNL     1     -13.742  16.432  72.654  1.00  0.00     0.529 A  
HETATM    8  C   UNL     1     -11.752  15.109  72.327  1.00  0.00    -0.496 A  
HETATM    9  O   UNL     1      -9.708  14.109  71.877  1.00  0.00     5.121 OA 
HETATM   10  C   UNL     1     -11.429  15.276  73.682  1.00  0.00     0.284 A  
HETATM   11  C   UNL     1     -13.324  15.367  70.438  1.00  0.00     0.009 C  
HETATM   12  C   UNL     1     -12.253  16.036  74.513  1.00  0.00    -0.603 A  
HETATM   13  O   UNL     1     -14.405  15.784  70.028  1.00  0.00     1.204 OA 
HETATM   14  C   UNL     1     -13.397  16.637  73.991  1.00  0.00     0.660 A  
ENDROOT
BRANCH   4  15
HETATM   15  C   UNL     1     -10.005  13.600  69.166  1.00  0.00     0.210 C  
HETATM   16  C   UNL     1      -8.382  14.814  67.460  1.00  0.00    -0.197 C  
HETATM   17  C   UNL     1      -8.725  14.448  68.915  1.00  0.00    -0.067 C  
HETATM   18  C   UNL     1     -10.182  13.395  66.588  1.00  0.00    -0.274 C  
HETATM   19  C   UNL     1     -10.470  12.773  67.944  1.00  0.00    -0.226 C  
HETATM   20  C   UNL     1      -8.691  13.718  66.426  1.00  0.00     0.213 C  
BRANCH  20  21
HETATM   21  C   UNL     1      -7.808  12.466  66.435  1.00  0.00     0.504 A  
HETATM   22  C   UNL     1      -6.275  10.093  66.480  1.00  0.00    -0.069 A  
HETATM   23  C   UNL     1      -8.324  11.249  65.948  1.00  0.00    -0.023 A  
HETATM   24  C   UNL     1      -7.569  10.071  65.976  1.00  0.00    -0.111 A  
HETATM   25  C   UNL     1      -5.730  11.284  66.945  1.00  0.00    -0.107 A  
HETATM   26 CL   UNL     1      -5.338   8.651  66.518  1.00  0.00    -0.034 Cl 
HETATM   27  C   UNL     1      -6.485  12.461  66.904  1.00  0.00     0.154 A  
ENDBRANCH  20  21
ENDBRANCH   4  15
TORSDOF 2
ENDMDL
MODEL      141
REMARK 921   NORMALIZED FREE ENERGY PREDICTED BY IDOCK:    8.37 KCAL/MOL
REMARK 922        TOTAL FREE ENERGY PREDICTED BY IDOCK:    8.47 KCAL/MOL
REMARK 923 INTER-LIGAND FREE ENERGY PREDICTED BY IDOCK:    8.02 KCAL/MOL
REMARK 924 INTRA-LIGAND FREE ENERGY PREDICTED BY IDOCK:    0.44 KCAL/MOL
REMARK 927      BINDING AFFINITY PREDICTED BY RF-SCORE:    0.00 PKD
ROOT
HETATM    1  O   UNL     1      -6.340  11.319  68.064  1.00  0.00    -0.052 OA 
HETATM    2  C   UNL     1      -7.129  12.331  68.583  1.00  0.00    -0.103 C  
HETATM    3  H   UNL     1      -5.499  11.467  67.647  1.00  0.00     0.000 HD 
HETATM    4  C   UNL     1      -8.322  12.120  69.175  1.00  0.00     0.480 C  
HETATM    5  C   UNL     1      -9.128  13.325  69.608  1.00  0.00     1.829 C  
HETATM    6  C   UNL     1      -7.304  14.857  68.944  1.00  0.00    -0.136 A  
HETATM    7  C   UNL     1      -6.747  16.145  68.909  1.00  0.00    -0.147 A  
HETATM    8  C   UNL     1      -8.597  14.679  69.402  1.00  0.00     0.110 A  
HETATM    9  O   UNL     1     -10.219  13.205  70.160  1.00  0.00     1.616 OA 
HETATM   10  C   UNL     1      -9.379  15.793  69.740  1.00  0.00    -0.063 A  
HETATM   11  C   UNL     1      -6.526  13.700  68.474  1.00  0.00    -0.090 C  
HETATM   12  C   UNL     1      -8.836  17.078  69.680  1.00  0.00     0.758 A  
HETATM   13  O   UNL     1      -5.408  13.880  67.999  1.00  0.00    -0.106 OA 
HETATM   14  C   UNL     1      -7.510  17.251  69.290  1.00  0.00    -0.039 A  
ENDROOT
BRANCH   4  15
HETATM   15  C   UNL     1      -8.974  10.788  69.609  1.00  0.00     0.259 C  
HETATM   16  C   UNL     1     -10.900  10.357  71.375  1.00  0.00     1.047 C  
HETATM   17  C   UNL     1     -10.493  10.727  69.938  1.00  0.00    -0.055 C  
HETATM   18  C   UNL     1      -8.581   9.855  71.995  1.00  0.00     3.306 C  
HETATM   19  C   UNL     1      -8.082   9.960  70.564  1.00  0.00     0.098 C  
HETATM   20  C   UNL     1     -10.010   9.299  72.049  1.00  0.00     0.217 C  
BRANCH  20  21
HETATM   21  C   UNL     1     -10.108   7.860  71.533  1.00  0.00    -0.221 A  
HETATM   22  C   UNL     1     -10.178   5.185  70.625  1.00  0.00    -0.256 A  
HETATM   23  C   UNL     1      -9.541   6.813  72.288  1.00  0.00    -0.153 A  
HETATM   24  C   UNL     1      -9.570   5.488  71.836  1.00  0.00    -0.185 A  
HETATM   25  C   UNL     1     -10.767   6.193  69.872  1.00  0.00    -0.366 A  
HETATM   26 CL   UNL     1     -10.218   3.560  70.062  1.00  0.00     0.525 Cl 
HETATM   27  C   UNL     1     -10.747   7.514  70.332  1.00  0.00    -0.248 A  
ENDBRANCH  20  21
ENDBRANCH   4  15
TORSDOF 2
ENDMDL
MODEL      142
REMARK 921   NORMALIZED FREE ENERGY PREDICTED BY IDOCK:   11.81 KCAL/MOL
REMARK 922        TOTAL FREE ENERGY PREDICTED BY IDOCK:   12.31 KCAL/MOL
REMARK 923 INTER-LIGAND FREE ENERGY PREDICTED BY IDOCK:   11.37 KCAL/MOL
REMARK 924 INTRA-LIGAND FREE ENERGY PREDICTED BY IDOCK:    0.94 KCAL/MOL
REMARK 927      BINDING AFFINITY PREDICTED BY RF-SCORE:    0.00 PKD
ROOT
HETATM    1  O   UNL     1      -8.331  17.168  70.240  1.00  0.00     2.088 OA 
HETATM    2  C   UNL     1      -7.783  17.083  68.972  1.00  0.00    -0.180 C  
HETATM    3  H   UNL     1      -8.711  17.962  70.598  1.00  0.00     0.000 HD 
HETATM    4  C   UNL     1      -7.243  15.956  68.464  1.00  0.00    -0.128 C  
HETATM    5  C   UNL     1      -6.588  16.028  67.102  1.00  0.00    -0.142 C  
HETATM    6  C   UNL     1      -7.275  18.389  66.832  1.00  0.00    -0.225 A  
HETATM    7  C   UNL     1      -7.393  19.540  66.037  1.00  0.00    -0.308 A  
HETATM    8  C   UNL     1      -6.572  17.295  66.359  1.00  0.00    -0.281 A  
HETATM    9  O   UNL     1      -6.084  15.039  66.577  1.00  0.00     1.195 OA 
HETATM   10  C   UNL     1      -5.902  17.373  65.129  1.00  0.00     1.141 A  
HETATM   11  C   UNL     1      -7.876  18.350  68.174  1.00  0.00    -0.289 C  
HETATM   12  C   UNL     1      -5.995  18.527  64.349  1.00  0.00     0.203 A  
HETATM   13  O   UNL     1      -8.431  19.354  68.613  1.00  0.00    -0.356 OA 
HETATM   14  C   UNL     1      -6.764  19.601  64.791  1.00  0.00    -0.003 A  
ENDROOT
BRANCH   4  15
HETATM   15  C   UNL     1      -7.293  14.515  69.019  1.00  0.00    -0.132 C  
HETATM   16  C   UNL     1      -7.468  13.687  71.529  1.00  0.00     5.273 C  
HETATM   17  C   UNL     1      -8.176  14.179  70.255  1.00  0.00     1.867 C  
HETATM   18  C   UNL     1      -5.303  13.568  70.382  1.00  0.00    -0.123 C  
HETATM   19  C   UNL     1      -5.913  13.816  69.014  1.00  0.00    -0.083 C  
HETATM   20  C   UNL     1      -6.255  12.771  71.284  1.00  0.00     1.234 C  
BRANCH  20  21
HETATM   21  C   UNL     1      -6.529  11.359  70.758  1.00  0.00     0.745 A  
HETATM   22  C   UNL     1      -7.147   8.789  69.760  1.00  0.00    -0.054 A  
HETATM   23  C   UNL     1      -7.352  11.189  69.626  1.00  0.00     0.034 A  
HETATM   24  C   UNL     1      -7.664   9.916  69.135  1.00  0.00    -0.098 A  
HETATM   25  C   UNL     1      -6.313   8.927  70.863  1.00  0.00    -0.054 A  
HETATM   26 CL   UNL     1      -7.524   7.220  69.164  1.00  0.00    -0.091 Cl 
HETATM   27  C   UNL     1      -5.994  10.202  71.344  1.00  0.00     0.133 A  
ENDBRANCH  20  21
ENDBRANCH   4  15
TORSDOF 2
ENDMDL
MODEL      143
REMARK 921   NORMALIZED FREE ENERGY PREDICTED BY IDOCK:   13.55 KCAL/MOL
REMARK 922        TOTAL FREE ENERGY PREDICTED BY IDOCK:   14.26 KCAL/MOL
REMARK 923 INTER-LIGAND FREE ENERGY PREDICTED BY IDOCK:   13.51 KCAL/MOL
REMARK 924 INTRA-LIGAND FREE ENERGY PREDICTED BY IDOCK:    0.75 KCAL/MOL
REMARK 927      BINDING AFFINITY PREDICTED BY RF-SCORE:    0.00 PKD
ROOT
HETATM    1  O   UNL     1      -7.011  15.274  68.684  1.00  0.00    -0.105 OA 
HETATM    2  C   UNL     1      -7.446  16.395  69.367  1.00  0.00    -0.122 C  
HETATM    3  H   UNL     1      -6.138  15.183  68.319  1.00  0.00     0.000 HD 
HETATM    4  C   UNL     1      -8.684  16.524  69.884  1.00  0.00     1.032 C  
HETATM    5  C   UNL     1      -9.061  17.844  70.519  1.00  0.00     3.940 C  
HETATM    6  C   UNL     1      -6.772  18.722  70.191  1.00  0.00     0.311 A  
HETATM    7  C   UNL     1      -5.806  19.716  70.410  1.00  0.00    -0.304 A  
HETATM    8  C   UNL     1      -8.082  18.937  70.581  1.00  0.00     3.112 A  
HETATM    9  O   UNL     1     -10.170  18.026  71.016  1.00  0.00     2.238 OA 
HETATM   10  C   UNL     1      -8.459  20.182  71.107  1.00  0.00     2.050 A  
HETATM   11  C   UNL     1      -6.402  17.461  69.529  1.00  0.00    -0.233 C  
HETATM   12  C   UNL     1      -7.505  21.182  71.300  1.00  0.00     4.067 A  
HETATM   13  O   UNL     1      -5.254  17.312  69.119  1.00  0.00    -0.147 OA 
HETATM   14  C   UNL     1      -6.173  20.939  70.976  1.00  0.00     0.854 A  
ENDROOT
BRANCH   4  15
HETATM   15  C   UNL     1      -9.788  15.455  70.047  1.00  0.00    -0.110 C  
HETATM   16  C   UNL     1     -12.261  15.436  69.099  1.00  0.00    -0.192 C  
HETATM   17  C   UNL     1     -10.766  15.150  68.876  1.00  0.00    -0.240 C  
HETATM   18  C   UNL     1     -11.897  15.957  71.468  1.00  0.00    -0.536 C  
HETATM   19  C   UNL     1     -10.455  15.480  71.443  1.00  0.00     0.634 C  
HETATM   20  C   UNL     1     -12.775  15.133  70.518  1.00  0.00    -0.416 C  
BRANCH  20  21
HETATM   21  C   UNL     1     -12.881  13.662  70.932  1.00  0.00    -0.321 A  
HETATM   22  C   UNL     1     -13.078  10.983  71.811  1.00  0.00    -0.449 A  
HETATM   23  C   UNL     1     -13.673  13.310  72.043  1.00  0.00    -0.519 A  
HETATM   24  C   UNL     1     -13.767  11.985  72.483  1.00  0.00     0.301 A  
HETATM   25  C   UNL     1     -12.309  11.297  70.696  1.00  0.00    -0.477 A  
HETATM   26 CL   UNL     1     -13.187   9.352  72.344  1.00  0.00    -0.507 Cl 
HETATM   27  C   UNL     1     -12.228  12.621  70.253  1.00  0.00    -0.347 A  
ENDBRANCH  20  21
ENDBRANCH   4  15
TORSDOF 2
ENDMDL
MODEL      144
REMARK 921   NORMALIZED FREE ENERGY PREDICTED BY IDOCK:   31.64 KCAL/MOL
REMARK 922        TOTAL FREE ENERGY PREDICTED BY IDOCK:   34.46 KCAL/MOL
REMARK 923 INTER-LIGAND FREE ENERGY PREDICTED BY IDOCK:   33.47 KCAL/MOL
REMARK 924 INTRA-LIGAND FREE ENERGY PREDICTED BY IDOCK:    0.99 KCAL/MOL
REMARK 927      BINDING AFFINITY PREDICTED BY RF-SCORE:    0.00 PKD
ROOT
HETATM    1  O   UNL     1     -12.426  12.783  70.432  1.00  0.00    -0.256 OA 
HETATM    2  C   UNL     1     -11.663  13.911  70.672  1.00  0.00    -0.119 C  
HETATM    3  H   UNL     1     -13.342  12.703  70.674  1.00  0.00     0.000 HD 
HETATM    4  C   UNL     1     -10.364  14.024  70.330  1.00  0.00     1.241 C  
HETATM    5  C   UNL     1      -9.621  15.276  70.742  1.00  0.00     1.281 C  
HETATM    6  C   UNL     1     -11.689  16.269  71.667  1.00  0.00    -0.490 A  
HETATM    7  C   UNL     1     -12.374  17.363  72.217  1.00  0.00     3.346 A  
HETATM    8  C   UNL     1     -10.321  16.339  71.474  1.00  0.00     2.145 A  
HETATM    9  O   UNL     1      -8.438  15.446  70.455  1.00  0.00     0.802 OA 
HETATM   10  C   UNL     1      -9.610  17.465  71.915  1.00  0.00     8.973 A  
HETATM   11  C   UNL     1     -12.416  15.039  71.316  1.00  0.00    -0.334 C  
HETATM   12  C   UNL     1     -10.285  18.544  72.487  1.00  0.00     4.911 A  
HETATM   13  O   UNL     1     -13.617  14.959  71.561  1.00  0.00    -0.369 OA 
HETATM   14  C   UNL     1     -11.672  18.504  72.614  1.00  0.00     4.953 A  
ENDROOT
BRANCH   4  15
HETATM   15  C   UNL     1      -9.506  13.094  69.443  1.00  0.00     1.053 C  
HETATM   16  C   UNL     1      -7.567  11.429  70.139  1.00  0.00     1.373 C  
HETATM   17  C   UNL     1      -9.073  11.693  69.962  1.00  0.00     2.519 C  
HETATM   18  C   UNL     1      -6.981  13.573  69.102  1.00  0.00    -0.055 C  
HETATM   19  C   UNL     1      -8.407  13.849  68.658  1.00  0.00    -0.088 C  
HETATM   20  C   UNL     1      -6.666  12.072  69.069  1.00  0.00    -0.100 C  
BRANCH  20  21
HETATM   21  C   UNL     1      -6.716  11.485  67.656  1.00  0.00    -0.079 A  
HETATM   22  C   UNL     1      -6.833  10.511  65.006  1.00  0.00     0.004 A  
HETATM   23  C   UNL     1      -6.223  12.240  66.573  1.00  0.00     0.731 A  
HETATM   24  C   UNL     1      -6.286  11.762  65.259  1.00  0.00     2.333 A  
HETATM   25  C   UNL     1      -7.304   9.732  66.056  1.00  0.00    -0.102 A  
HETATM   26 CL   UNL     1      -6.915   9.914  63.394  1.00  0.00    -0.120 Cl 
HETATM   27  C   UNL     1      -7.228  10.209  67.369  1.00  0.00    -0.088 A  
ENDBRANCH  20  21
ENDBRANCH   4  15
TORSDOF 2
ENDMDL
MODEL      145
REMARK 921   NORMALIZED FREE ENERGY PREDICTED BY IDOCK:   31.80 KCAL/MOL
REMARK 922        TOTAL FREE ENERGY PREDICTED BY IDOCK:   34.64 KCAL/MOL
REMARK 923 INTER-LIGAND FREE ENERGY PREDICTED BY IDOCK:   34.04 KCAL/MOL
REMARK 924 INTRA-LIGAND FREE ENERGY PREDICTED BY IDOCK:    0.60 KCAL/MOL
REMARK 927      BINDING AFFINITY PREDICTED BY RF-SCORE:    0.00 PKD
ROOT
HETATM    1  O   UNL     1     -11.270  11.030  66.676  1.00  0.00    -0.237 OA 
HETATM    2  C   UNL     1     -10.066  10.633  66.121  1.00  0.00    -0.249 C  
HETATM    3  H   UNL     1     -11.722  11.831  66.437  1.00  0.00     0.000 HD 
HETATM    4  C   UNL     1      -9.424   9.497  66.461  1.00  0.00    -0.236 C  
HETATM    5  C   UNL     1      -8.065   9.234  65.850  1.00  0.00    -0.111 C  
HETATM    6  C   UNL     1      -8.238  11.261  64.445  1.00  0.00     0.661 A  
HETATM    7  C   UNL     1      -7.744  12.074  63.412  1.00  0.00     3.141 A  
HETATM    8  C   UNL     1      -7.488  10.191  64.898  1.00  0.00    -0.137 A  
HETATM    9  O   UNL     1      -7.429   8.215  66.110  1.00  0.00    -0.076 OA 
HETATM   10  C   UNL     1      -6.198   9.977  64.390  1.00  0.00    -0.131 A  
HETATM   11  C   UNL     1      -9.540  11.558  65.063  1.00  0.00    -0.197 C  
HETATM   12  C   UNL     1      -5.693  10.800  63.382  1.00  0.00    -0.016 A  
HETATM   13  O   UNL     1     -10.163  12.555  64.705  1.00  0.00    -0.292 OA 
HETATM   14  C   UNL     1      -6.478  11.833  62.874  1.00  0.00     2.162 A  
ENDROOT
BRANCH   4  15
HETATM   15  C   UNL     1      -9.925   8.312  67.316  1.00  0.00    -0.289 C  
HETATM   16  C   UNL     1     -10.473   5.826  66.586  1.00  0.00    -0.330 C  
HETATM   17  C   UNL     1      -9.429   6.867  67.025  1.00  0.00    -0.183 C  
HETATM   18  C   UNL     1     -12.324   7.384  66.990  1.00  0.00     6.310 C  
HETATM   19  C   UNL     1     -11.429   8.410  67.664  1.00  0.00     1.435 C  
HETATM   20  C   UNL     1     -11.845   5.954  67.271  1.00  0.00     2.209 C  
BRANCH  20  21
HETATM   21  C   UNL     1     -11.933   5.579  68.754  1.00  0.00     3.965 A  
HETATM   22  C   UNL     1     -12.046   4.782  71.462  1.00  0.00     3.019 A  
HETATM   23  C   UNL     1     -10.902   4.816  69.338  1.00  0.00     1.041 A  
HETATM   24  C   UNL     1     -10.960   4.415  70.678  1.00  0.00     1.520 A  
HETATM   25  C   UNL     1     -13.064   5.556  70.920  1.00  0.00     4.598 A  
HETATM   26 CL   UNL     1     -12.125   4.294  73.110  1.00  0.00     0.067 Cl 
HETATM   27  C   UNL     1     -12.997   5.965  69.584  1.00  0.00     6.396 A  
ENDBRANCH  20  21
ENDBRANCH   4  15
TORSDOF 2
ENDMDL
MODEL      146
REMARK 921   NORMALIZED FREE ENERGY PREDICTED BY IDOCK:   37.56 KCAL/MOL
REMARK 922        TOTAL FREE ENERGY PREDICTED BY IDOCK:   41.08 KCAL/MOL
REMARK 923 INTER-LIGAND FREE ENERGY PREDICTED BY IDOCK:   40.72 KCAL/MOL
REMARK 924 INTRA-LIGAND FREE ENERGY PREDICTED BY IDOCK:    0.36 KCAL/MOL
REMARK 927      BINDING AFFINITY PREDICTED BY RF-SCORE:    0.00 PKD
ROOT
HETATM    1  O   UNL     1     -11.672  10.064  69.231  1.00  0.00    -0.468 OA 
HETATM    2  C   UNL     1     -10.731   9.223  69.798  1.00  0.00    -0.231 C  
HETATM    3  H   UNL     1     -12.486  10.307  69.655  1.00  0.00     0.000 HD 
HETATM    4  C   UNL     1      -9.575   8.877  69.195  1.00  0.00    -0.162 C  
HETATM    5  C   UNL     1      -8.682   7.869  69.885  1.00  0.00    -0.140 C  
HETATM    6  C   UNL     1     -10.175   7.807  71.855  1.00  0.00    -0.250 A  
HETATM    7  C   UNL     1     -10.442   7.391  73.169  1.00  0.00    -0.406 A  
HETATM    8  C   UNL     1      -9.070   7.313  71.187  1.00  0.00    -0.152 A  
HETATM    9  O   UNL     1      -7.612   7.516  69.395  1.00  0.00    -0.088 OA 
HETATM   10  C   UNL     1      -8.273   6.327  71.788  1.00  0.00    -0.117 A  
HETATM   11  C   UNL     1     -11.079   8.751  71.179  1.00  0.00    -0.276 C  
HETATM   12  C   UNL     1      -8.552   5.890  73.084  1.00  0.00    -0.119 A  
HETATM   13  O   UNL     1     -12.098   9.125  71.754  1.00  0.00    -0.330 OA 
HETATM   14  C   UNL     1      -9.622   6.443  73.785  1.00  0.00    -0.189 A  
ENDROOT
BRANCH   4  15
HETATM   15  C   UNL     1      -8.931   9.457  67.916  1.00  0.00    -0.126 C  
HETATM   16  C   UNL     1      -7.515   8.231  66.043  1.00  0.00    -0.077 C  
HETATM   17  C   UNL     1      -8.893   8.619  66.605  1.00  0.00    -0.155 C  
HETATM   18  C   UNL     1      -6.353   9.613  67.703  1.00  0.00    -0.057 C  
HETATM   19  C   UNL     1      -7.637  10.256  68.197  1.00  0.00    -0.087 C  
HETATM   20  C   UNL     1      -6.424   9.305  66.202  1.00  0.00    -0.069 C  
BRANCH  20  21
HETATM   21  C   UNL     1      -6.543  10.566  65.341  1.00  0.00    -0.074 A  
HETATM   22  C   UNL     1      -6.653  12.926  63.790  1.00  0.00    12.993 A  
HETATM   23  C   UNL     1      -5.401  11.068  64.685  1.00  0.00     0.199 A  
HETATM   24  C   UNL     1      -5.452  12.240  63.922  1.00  0.00     5.672 A  
HETATM   25  C   UNL     1      -7.801  12.441  64.405  1.00  0.00     4.713 A  
HETATM   26 CL   UNL     1      -6.727  14.367  62.854  1.00  0.00    20.063 Cl 
HETATM   27  C   UNL     1      -7.747  11.262  65.157  1.00  0.00     0.654 A  
ENDBRANCH  20  21
ENDBRANCH   4  15
TORSDOF 2
ENDMDL
MODEL      147
REMARK 921   NORMALIZED FREE ENERGY PREDICTED BY IDOCK:   49.85 KCAL/MOL
REMARK 922        TOTAL FREE ENERGY PREDICTED BY IDOCK:   54.81 KCAL/MOL
REMARK 923 INTER-LIGAND FREE ENERGY PREDICTED BY IDOCK:   54.35 KCAL/MOL
REMARK 924 INTRA-LIGAND FREE ENERGY PREDICTED BY IDOCK:    0.45 KCAL/MOL
REMARK 927      BINDING AFFINITY PREDICTED BY RF-SCORE:    0.00 PKD
ROOT
HETATM    1  O   UNL     1      -7.756   8.599  67.498  1.00  0.00    -0.096 OA 
HETATM    2  C   UNL     1      -7.863   9.646  68.396  1.00  0.00    -0.085 C  
HETATM    3  H   UNL     1      -7.385   7.752  67.716  1.00  0.00     0.000 HD 
HETATM    4  C   UNL     1      -8.389  10.849  68.086  1.00  0.00    -0.123 C  
HETATM    5  C   UNL     1      -8.352  11.938  69.135  1.00  0.00     0.391 C  
HETATM    6  C   UNL     1      -7.396  10.381  70.802  1.00  0.00     0.842 A  
HETATM    7  C   UNL     1      -7.004  10.096  72.120  1.00  0.00     2.258 A  
HETATM    8  C   UNL     1      -7.777  11.665  70.459  1.00  0.00     3.376 A  
HETATM    9  O   UNL     1      -8.820  13.053  68.922  1.00  0.00     0.108 OA 
HETATM   10  C   UNL     1      -7.681  12.698  71.403  1.00  0.00     9.074 A  
HETATM   11  C   UNL     1      -7.380   9.322  69.780  1.00  0.00    -0.072 C  
HETATM   12  C   UNL     1      -7.266  12.424  72.707  1.00  0.00    10.979 A  
HETATM   13  O   UNL     1      -6.967   8.204  70.077  1.00  0.00    -0.040 OA 
HETATM   14  C   UNL     1      -6.953  11.117  73.072  1.00  0.00     7.544 A  
ENDROOT
BRANCH   4  15
HETATM   15  C   UNL     1      -9.163  11.276  66.819  1.00  0.00    -0.186 C  
HETATM   16  C   UNL     1      -8.717  10.646  64.285  1.00  0.00    -0.140 C  
HETATM   17  C   UNL     1      -9.350  10.280  65.639  1.00  0.00    -0.241 C  
HETATM   18  C   UNL     1      -8.070  12.870  65.092  1.00  0.00     3.929 C  
HETATM   19  C   UNL     1      -8.858  12.728  66.383  1.00  0.00     0.035 C  
HETATM   20  C   UNL     1      -8.763  12.144  63.932  1.00  0.00     1.442 C  
BRANCH  20  21
HETATM   21  C   UNL     1     -10.127  12.747  63.582  1.00  0.00     0.099 A  
HETATM   22  C   UNL     1     -12.662  13.767  62.864  1.00  0.00     1.399 A  
HETATM   23  C   UNL     1     -11.226  11.893  63.361  1.00  0.00    -0.463 A  
HETATM   24  C   UNL     1     -12.481  12.396  63.000  1.00  0.00    -0.055 A  
HETATM   25  C   UNL     1     -11.602  14.635  63.100  1.00  0.00     2.223 A  
HETATM   26 CL   UNL     1     -14.200  14.395  62.420  1.00  0.00     8.933 Cl 
HETATM   27  C   UNL     1     -10.353  14.128  63.474  1.00  0.00     3.223 A  
ENDBRANCH  20  21
ENDBRANCH   4  15
TORSDOF 2
ENDMDL
MODEL      148
REMARK 921   NORMALIZED FREE ENERGY PREDICTED BY IDOCK:   62.00 KCAL/MOL
REMARK 922        TOTAL FREE ENERGY PREDICTED BY IDOCK:   68.37 KCAL/MOL
REMARK 923 INTER-LIGAND FREE ENERGY PREDICTED BY IDOCK:   67.79 KCAL/MOL
REMARK 924 INTRA-LIGAND FREE ENERGY PREDICTED BY IDOCK:    0.58 KCAL/MOL
REMARK 927      BINDING AFFINITY PREDICTED BY RF-SCORE:    0.00 PKD
ROOT
HETATM    1  O   UNL     1     -11.973  15.001  68.393  1.00  0.00    -0.490 OA 
HETATM    2  C   UNL     1     -10.928  15.174  69.283  1.00  0.00    -0.258 C  
HETATM    3  H   UNL     1     -12.810  15.443  68.470  1.00  0.00     0.000 HD 
HETATM    4  C   UNL     1      -9.739  14.546  69.173  1.00  0.00    -0.062 C  
HETATM    5  C   UNL     1      -8.719  14.749  70.272  1.00  0.00     1.133 C  
HETATM    6  C   UNL     1     -10.183  16.385  71.410  1.00  0.00     2.508 A  
HETATM    7  C   UNL     1     -10.388  17.345  72.413  1.00  0.00     5.516 A  
HETATM    8  C   UNL     1      -9.025  15.629  71.407  1.00  0.00     4.239 A  
HETATM    9  O   UNL     1      -7.614  14.213  70.231  1.00  0.00     0.617 OA 
HETATM   10  C   UNL     1      -8.104  15.757  72.457  1.00  0.00    10.532 A  
HETATM   11  C   UNL     1     -11.206  16.164  70.375  1.00  0.00    -0.381 C  
HETATM   12  C   UNL     1      -8.318  16.691  73.471  1.00  0.00    19.088 A  
HETATM   13  O   UNL     1     -12.263  16.788  70.432  1.00  0.00     0.852 OA 
HETATM   14  C   UNL     1      -9.448  17.505  73.434  1.00  0.00    12.785 A  
ENDROOT
BRANCH   4  15
HETATM   15  C   UNL     1      -9.182  13.713  67.997  1.00  0.00    -0.197 C  
HETATM   16  C   UNL     1      -7.561  14.449  66.036  1.00  0.00     3.440 C  
HETATM   17  C   UNL     1      -7.734  13.951  67.482  1.00  0.00    -0.192 C  
HETATM   18  C   UNL     1      -9.955  14.193  65.570  1.00  0.00    -0.323 C  
HETATM   19  C   UNL     1     -10.223  13.470  66.879  1.00  0.00    -0.256 C  
HETATM   20  C   UNL     1      -8.560  13.861  65.024  1.00  0.00     3.909 C  
BRANCH  20  21
HETATM   21  C   UNL     1      -8.404  12.384  64.651  1.00  0.00     2.771 A  
HETATM   22  C   UNL     1      -8.205   9.633  64.037  1.00  0.00    -0.159 A  
HETATM   23  C   UNL     1      -9.551  11.575  64.527  1.00  0.00    -0.177 A  
HETATM   24  C   UNL     1      -9.454  10.211  64.229  1.00  0.00    -0.366 A  
HETATM   25  C   UNL     1      -7.058  10.411  64.129  1.00  0.00     0.024 A  
HETATM   26 CL   UNL     1      -8.076   7.957  63.671  1.00  0.00    -0.116 Cl 
HETATM   27  C   UNL     1      -7.160  11.777  64.415  1.00  0.00     3.354 A  
ENDBRANCH  20  21
ENDBRANCH   4  15
TORSDOF 2
ENDMDL
