MODEL        1
REMARK 921   NORMALIZED FREE ENERGY PREDICTED BY IDOCK:   -8.07 KCAL/MOL
REMARK 922        TOTAL FREE ENERGY PREDICTED BY IDOCK:  -13.85 KCAL/MOL
REMARK 923 INTER-LIGAND FREE ENERGY PREDICTED BY IDOCK:  -12.32 KCAL/MOL
REMARK 924 INTRA-LIGAND FREE ENERGY PREDICTED BY IDOCK:   -1.53 KCAL/MOL
REMARK 927      BINDING AFFINITY PREDICTED BY RF-SCORE:    0.00 PKD
ROOT
HETATM    1  C   UNL     1     -13.265  15.817  73.354  1.00  0.00    -0.544 C  
HETATM    2  O   UNL     1     -14.013  15.157  72.342  1.00  0.00    -0.467 OA 
ENDROOT
BRANCH   2   3
HETATM    3  C   UNL     1     -13.452  14.039  71.782  1.00  0.00    -0.392 A  
HETATM    4  C   UNL     1     -12.605  14.230  70.680  1.00  0.00    -0.355 A  
HETATM    5 CL   UNL     1     -12.363  15.799  69.990  1.00  0.00    -0.328 Cl 
HETATM    6  C   UNL     1     -11.936  13.149  70.092  1.00  0.00    -0.381 A  
HETATM    7  C   UNL     1     -12.091  11.856  70.606  1.00  0.00    -0.389 A  
HETATM    8  C   UNL     1     -13.628  12.743  72.275  1.00  0.00    -0.563 A  
HETATM    9  C   UNL     1     -12.960  11.662  71.687  1.00  0.00    -0.483 A  
BRANCH   7  10
HETATM   10  C   UNL     1     -11.373  10.684  69.974  1.00  0.00    -0.324 C  
BRANCH  10  11
HETATM   11  N   UNL     1     -11.999  10.420  68.690  1.00  0.00    -0.745 NA 
HETATM   12  H   UNL     1     -12.954  10.071  68.614  1.00  0.00     0.000 HD 
BRANCH  11  13
HETATM   13  C   UNL     1     -11.205  10.677  67.555  1.00  0.00    -0.253 A  
HETATM   14  C   UNL     1     -10.324   9.708  67.103  1.00  0.00    -0.319 A  
HETATM   15  C   UNL     1      -9.623  10.031  65.965  1.00  0.00    -0.222 A  
HETATM   16  N   UNL     1     -11.364  11.852  66.896  1.00  0.00    -0.344 NA 
HETATM   17  C   UNL     1     -10.650  12.081  65.776  1.00  0.00    -0.263 A  
HETATM   18  N   UNL     1      -9.757  11.202  65.303  1.00  0.00    -0.229 NA 
BRANCH  14  19
HETATM   19  C   UNL     1     -10.058   8.401  67.745  1.00  0.00    -0.207 C  
HETATM   20  O   UNL     1      -9.000   8.228  68.340  1.00  0.00    -0.136 OA 
HETATM   21  N   UNL     1     -11.040   7.444  67.671  1.00  0.00    -0.529 N  
HETATM   22  H   UNL     1     -11.920   7.675  67.209  1.00  0.00     0.000 HD 
BRANCH  21  23
HETATM   23  C   UNL     1     -10.870   6.110  68.229  1.00  0.00    -0.306 C  
BRANCH  23  24
HETATM   24  C   UNL     1     -10.966   6.038  69.743  1.00  0.00    -0.401 A  
HETATM   25  N   UNL     1     -10.081   5.235  70.374  1.00  0.00    -0.234 NA 
HETATM   26  C   UNL     1     -10.138   5.205  71.719  1.00  0.00    -0.200 A  
HETATM   27  N   UNL     1     -11.907   6.774  70.378  1.00  0.00    -0.372 NA 
HETATM   28  C   UNL     1     -11.909   6.710  71.725  1.00  0.00    -0.335 A  
HETATM   29  C   UNL     1     -11.039   5.934  72.454  1.00  0.00    -0.328 A  
ENDBRANCH  23  24
ENDBRANCH  21  23
ENDBRANCH  14  19
BRANCH  17  30
HETATM   30  N   UNL     1     -10.829  13.251  65.091  1.00  0.00    -0.299 NA 
HETATM   31  C   UNL     1     -12.139  15.145  64.522  1.00  0.00    -0.310 C  
HETATM   32  C   UNL     1      -9.918  14.370  65.184  1.00  0.00    -0.233 C  
HETATM   33  C   UNL     1     -12.106  13.609  64.474  1.00  0.00    -0.419 C  
HETATM   34  C   UNL     1     -10.826  15.595  65.153  1.00  0.00    -0.448 C  
BRANCH  33  35
HETATM   35  C   UNL     1     -12.153  13.083  63.025  1.00  0.00     0.012 C  
HETATM   36  O   UNL     1     -12.474  11.690  62.984  1.00  0.00    -0.972 OA 
HETATM   37  H   UNL     1     -12.502  11.365  62.092  1.00  0.00     0.000 HD 
ENDBRANCH  33  35
ENDBRANCH  17  30
ENDBRANCH  11  13
ENDBRANCH  10  11
ENDBRANCH   7  10
ENDBRANCH   2   3
TORSDOF 9
ENDMDL
MODEL        2
REMARK 921   NORMALIZED FREE ENERGY PREDICTED BY IDOCK:   -8.00 KCAL/MOL
REMARK 922        TOTAL FREE ENERGY PREDICTED BY IDOCK:  -13.74 KCAL/MOL
REMARK 923 INTER-LIGAND FREE ENERGY PREDICTED BY IDOCK:  -12.02 KCAL/MOL
REMARK 924 INTRA-LIGAND FREE ENERGY PREDICTED BY IDOCK:   -1.72 KCAL/MOL
REMARK 927      BINDING AFFINITY PREDICTED BY RF-SCORE:    0.00 PKD
ROOT
HETATM    1  C   UNL     1      -9.039   9.787  62.630  1.00  0.00    -0.279 C  
HETATM    2  O   UNL     1      -9.450   9.739  63.989  1.00  0.00    -0.242 OA 
ENDROOT
BRANCH   2   3
HETATM    3  C   UNL     1     -10.219  10.777  64.445  1.00  0.00    -0.364 A  
HETATM    4  C   UNL     1     -10.474  10.829  65.824  1.00  0.00    -0.188 A  
HETATM    5 CL   UNL     1      -9.929   9.578  66.888  1.00  0.00    -0.259 Cl 
HETATM    6  C   UNL     1     -11.192  11.893  66.383  1.00  0.00    -0.387 A  
HETATM    7  C   UNL     1     -11.659  12.936  65.573  1.00  0.00    -0.395 A  
HETATM    8  C   UNL     1     -10.711  11.804  63.634  1.00  0.00    -0.503 A  
HETATM    9  C   UNL     1     -11.430  12.868  64.192  1.00  0.00    -0.449 A  
BRANCH   7  10
HETATM   10  C   UNL     1     -12.437  14.087  66.170  1.00  0.00    -0.430 C  
BRANCH  10  11
HETATM   11  N   UNL     1     -12.330  13.993  67.615  1.00  0.00    -0.513 NA 
HETATM   12  H   UNL     1     -12.694  13.194  68.135  1.00  0.00     0.000 HD 
BRANCH  11  13
HETATM   13  C   UNL     1     -11.693  15.074  68.255  1.00  0.00    -0.314 A  
HETATM   14  C   UNL     1     -11.828  15.233  69.625  1.00  0.00    -0.363 A  
HETATM   15  C   UNL     1     -11.135  16.290  70.168  1.00  0.00    -0.341 A  
HETATM   16  N   UNL     1     -10.912  15.904  67.520  1.00  0.00    -0.310 NA 
HETATM   17  C   UNL     1     -10.252  16.906  68.135  1.00  0.00    -0.311 A  
HETATM   18  N   UNL     1     -10.366  17.137  69.449  1.00  0.00    -0.256 NA 
BRANCH  14  19
HETATM   19  C   UNL     1     -12.659  14.401  70.524  1.00  0.00    -0.353 C  
HETATM   20  O   UNL     1     -13.664  14.885  71.033  1.00  0.00    -0.382 OA 
HETATM   21  N   UNL     1     -12.275  13.096  70.720  1.00  0.00    -0.459 N  
HETATM   22  H   UNL     1     -11.459  12.742  70.220  1.00  0.00     0.000 HD 
BRANCH  21  23
HETATM   23  C   UNL     1     -12.993  12.201  71.615  1.00  0.00    -0.321 C  
BRANCH  23  24
HETATM   24  C   UNL     1     -12.569  10.745  71.533  1.00  0.00    -0.395 A  
HETATM   25  N   UNL     1     -11.518  10.460  70.733  1.00  0.00    -0.343 NA 
HETATM   26  C   UNL     1     -11.114   9.176  70.694  1.00  0.00    -0.265 A  
HETATM   27  N   UNL     1     -13.240   9.822  72.259  1.00  0.00    -0.423 NA 
HETATM   28  C   UNL     1     -12.784   8.556  72.187  1.00  0.00    -0.373 A  
HETATM   29  C   UNL     1     -11.714   8.172  71.412  1.00  0.00    -0.321 A  
ENDBRANCH  23  24
ENDBRANCH  21  23
ENDBRANCH  14  19
BRANCH  17  30
HETATM   30  N   UNL     1      -9.441  17.727  67.402  1.00  0.00    -0.251 NA 
HETATM   31  C   UNL     1      -7.882  19.508  67.251  1.00  0.00    -0.293 C  
HETATM   32  C   UNL     1      -8.404  17.235  66.523  1.00  0.00    -0.277 C  
HETATM   33  C   UNL     1      -9.314  19.156  67.685  1.00  0.00    -0.303 C  
HETATM   34  C   UNL     1      -7.262  18.230  66.697  1.00  0.00    -0.244 C  
BRANCH  33  35
HETATM   35  C   UNL     1     -10.365  19.944  66.877  1.00  0.00    -0.468 C  
HETATM   36  O   UNL     1      -9.778  20.589  65.744  1.00  0.00    -0.640 OA 
HETATM   37  H   UNL     1     -10.425  21.075  65.246  1.00  0.00     0.000 HD 
ENDBRANCH  33  35
ENDBRANCH  17  30
ENDBRANCH  11  13
ENDBRANCH  10  11
ENDBRANCH   7  10
ENDBRANCH   2   3
TORSDOF 9
ENDMDL
MODEL        3
REMARK 921   NORMALIZED FREE ENERGY PREDICTED BY IDOCK:   -7.97 KCAL/MOL
REMARK 922        TOTAL FREE ENERGY PREDICTED BY IDOCK:  -13.69 KCAL/MOL
REMARK 923 INTER-LIGAND FREE ENERGY PREDICTED BY IDOCK:  -11.76 KCAL/MOL
REMARK 924 INTRA-LIGAND FREE ENERGY PREDICTED BY IDOCK:   -1.93 KCAL/MOL
REMARK 927      BINDING AFFINITY PREDICTED BY RF-SCORE:    0.00 PKD
ROOT
HETATM    1  C   UNL     1      -8.928  10.280  62.335  1.00  0.00    -0.264 C  
HETATM    2  O   UNL     1      -9.412   9.961  63.632  1.00  0.00    -0.262 OA 
ENDROOT
BRANCH   2   3
HETATM    3  C   UNL     1     -10.207  10.892  64.247  1.00  0.00    -0.364 A  
HETATM    4  C   UNL     1     -10.275  10.852  65.649  1.00  0.00    -0.263 A  
HETATM    5 CL   UNL     1      -9.475   9.612  66.554  1.00  0.00    -0.217 Cl 
HETATM    6  C   UNL     1     -11.008  11.808  66.361  1.00  0.00    -0.341 A  
HETATM    7  C   UNL     1     -11.676  12.837  65.684  1.00  0.00    -0.443 A  
HETATM    8  C   UNL     1     -10.899  11.901  63.573  1.00  0.00    -0.502 A  
HETATM    9  C   UNL     1     -11.633  12.859  64.284  1.00  0.00    -0.434 A  
BRANCH   7  10
HETATM   10  C   UNL     1     -12.471  13.872  66.447  1.00  0.00    -0.370 C  
BRANCH  10  11
HETATM   11  N   UNL     1     -12.276  13.626  67.865  1.00  0.00    -0.382 NA 
HETATM   12  H   UNL     1     -12.481  12.723  68.292  1.00  0.00     0.000 HD 
BRANCH  11  13
HETATM   13  C   UNL     1     -11.784  14.713  68.615  1.00  0.00    -0.329 A  
HETATM   14  C   UNL     1     -11.864  14.682  69.998  1.00  0.00    -0.363 A  
HETATM   15  C   UNL     1     -11.320  15.765  70.646  1.00  0.00    -0.388 A  
HETATM   16  N   UNL     1     -11.188  15.743  67.964  1.00  0.00    -0.349 NA 
HETATM   17  C   UNL     1     -10.663  16.758  68.678  1.00  0.00    -0.352 A  
HETATM   18  N   UNL     1     -10.737  16.808  70.014  1.00  0.00    -0.180 NA 
BRANCH  14  19
HETATM   19  C   UNL     1     -12.500  13.622  70.813  1.00  0.00    -0.359 C  
HETATM   20  O   UNL     1     -13.392  13.920  71.598  1.00  0.00    -0.341 OA 
HETATM   21  N   UNL     1     -12.075  12.329  70.620  1.00  0.00    -0.484 N  
HETATM   22  H   UNL     1     -11.367  12.144  69.909  1.00  0.00     0.000 HD 
BRANCH  21  23
HETATM   23  C   UNL     1     -12.599  11.215  71.396  1.00  0.00    -0.374 C  
BRANCH  23  24
HETATM   24  C   UNL     1     -11.953   9.873  71.097  1.00  0.00    -0.384 A  
HETATM   25  N   UNL     1     -10.698   9.897  70.597  1.00  0.00    -0.310 NA 
HETATM   26  C   UNL     1     -10.110   8.707  70.373  1.00  0.00    -0.188 A  
HETATM   27  N   UNL     1     -12.645   8.739  71.352  1.00  0.00    -0.309 NA 
HETATM   28  C   UNL     1     -12.000   7.579  71.118  1.00  0.00    -0.308 A  
HETATM   29  C   UNL     1     -10.719   7.503  70.623  1.00  0.00    -0.239 A  
ENDBRANCH  23  24
ENDBRANCH  21  23
ENDBRANCH  14  19
BRANCH  17  30
HETATM   30  N   UNL     1     -10.035  17.784  68.028  1.00  0.00    -0.315 NA 
HETATM   31  C   UNL     1      -9.829  19.252  66.175  1.00  0.00    -0.429 C  
HETATM   32  C   UNL     1      -9.842  19.091  68.614  1.00  0.00    -0.413 C  
HETATM   33  C   UNL     1      -9.804  17.770  66.584  1.00  0.00    -0.322 C  
HETATM   34  C   UNL     1     -10.049  20.057  67.452  1.00  0.00    -0.568 C  
BRANCH  33  35
HETATM   35  C   UNL     1      -8.440  17.118  66.279  1.00  0.00    -0.244 C  
HETATM   36  O   UNL     1      -8.557  15.701  66.131  1.00  0.00    -0.367 OA 
HETATM   37  H   UNL     1      -7.717  15.299  65.944  1.00  0.00     0.000 HD 
ENDBRANCH  33  35
ENDBRANCH  17  30
ENDBRANCH  11  13
ENDBRANCH  10  11
ENDBRANCH   7  10
ENDBRANCH   2   3
TORSDOF 9
ENDMDL
MODEL        4
REMARK 921   NORMALIZED FREE ENERGY PREDICTED BY IDOCK:   -7.93 KCAL/MOL
REMARK 922        TOTAL FREE ENERGY PREDICTED BY IDOCK:  -13.63 KCAL/MOL
REMARK 923 INTER-LIGAND FREE ENERGY PREDICTED BY IDOCK:  -12.04 KCAL/MOL
REMARK 924 INTRA-LIGAND FREE ENERGY PREDICTED BY IDOCK:   -1.59 KCAL/MOL
REMARK 927      BINDING AFFINITY PREDICTED BY RF-SCORE:    0.00 PKD
ROOT
HETATM    1  C   UNL     1     -13.765   9.038  72.306  1.00  0.00    -0.492 C  
HETATM    2  O   UNL     1     -12.596   9.312  71.547  1.00  0.00    -0.318 OA 
ENDROOT
BRANCH   2   3
HETATM    3  C   UNL     1     -12.425  10.598  71.108  1.00  0.00    -0.418 A  
HETATM    4  C   UNL     1     -11.621  10.788  69.973  1.00  0.00    -0.334 A  
HETATM    5 CL   UNL     1     -10.793   9.465  69.225  1.00  0.00    -0.221 Cl 
HETATM    6  C   UNL     1     -11.450  12.061  69.417  1.00  0.00    -0.361 A  
HETATM    7  C   UNL     1     -12.095  13.171  69.977  1.00  0.00    -0.375 A  
HETATM    8  C   UNL     1     -13.044  11.712  71.682  1.00  0.00    -0.456 A  
HETATM    9  C   UNL     1     -12.873  12.986  71.127  1.00  0.00    -0.331 A  
BRANCH   7  10
HETATM   10  C   UNL     1     -11.913  14.550  69.382  1.00  0.00    -0.322 C  
BRANCH  10  11
HETATM   11  N   UNL     1     -12.165  14.454  67.955  1.00  0.00    -0.609 NA 
HETATM   12  H   UNL     1     -12.868  13.824  67.569  1.00  0.00     0.000 HD 
BRANCH  11  13
HETATM   13  C   UNL     1     -11.377  15.286  67.135  1.00  0.00    -0.247 A  
HETATM   14  C   UNL     1     -11.159  14.935  65.813  1.00  0.00    -0.342 A  
HETATM   15  C   UNL     1     -10.415  15.829  65.079  1.00  0.00    -0.301 A  
HETATM   16  N   UNL     1     -10.895  16.445  67.649  1.00  0.00    -0.312 NA 
HETATM   17  C   UNL     1     -10.189  17.275  66.854  1.00  0.00    -0.322 A  
HETATM   18  N   UNL     1      -9.914  16.981  65.577  1.00  0.00    -0.572 NA 
BRANCH  14  19
HETATM   19  C   UNL     1     -11.622  13.695  65.150  1.00  0.00    -0.319 C  
HETATM   20  O   UNL     1     -12.711  13.222  65.455  1.00  0.00    -0.506 OA 
HETATM   21  N   UNL     1     -10.811  13.147  64.186  1.00  0.00    -0.457 N  
HETATM   22  H   UNL     1      -9.944  13.625  63.941  1.00  0.00     0.000 HD 
BRANCH  21  23
HETATM   23  C   UNL     1     -11.146  11.908  63.501  1.00  0.00    -0.428 C  
BRANCH  23  24
HETATM   24  C   UNL     1     -10.162  10.773  63.722  1.00  0.00    -0.288 A  
HETATM   25  N   UNL     1      -9.481  10.336  62.640  1.00  0.00    -0.305 NA 
HETATM   26  C   UNL     1      -8.576   9.360  62.844  1.00  0.00    -0.222 A  
HETATM   27  N   UNL     1     -10.005  10.271  64.968  1.00  0.00    -0.325 NA 
HETATM   28  C   UNL     1      -9.078   9.303  65.112  1.00  0.00    -0.206 A  
HETATM   29  C   UNL     1      -8.327   8.804  64.074  1.00  0.00    -0.146 A  
ENDBRANCH  23  24
ENDBRANCH  21  23
ENDBRANCH  14  19
BRANCH  17  30
HETATM   30  N   UNL     1      -9.727  18.459  67.359  1.00  0.00    -0.293 NA 
HETATM   31  C   UNL     1      -8.321  20.365  67.226  1.00  0.00    -0.398 C  
HETATM   32  C   UNL     1     -10.590  19.575  67.674  1.00  0.00    -0.440 C  
HETATM   33  C   UNL     1      -8.313  18.830  67.312  1.00  0.00    -0.268 C  
HETATM   34  C   UNL     1      -9.781  20.801  67.261  1.00  0.00    -0.487 C  
BRANCH  33  35
HETATM   35  C   UNL     1      -7.600  18.334  68.587  1.00  0.00    -0.296 C  
HETATM   36  O   UNL     1      -7.163  19.426  69.400  1.00  0.00    -0.327 OA 
HETATM   37  H   UNL     1      -6.724  19.121  70.185  1.00  0.00     0.000 HD 
ENDBRANCH  33  35
ENDBRANCH  17  30
ENDBRANCH  11  13
ENDBRANCH  10  11
ENDBRANCH   7  10
ENDBRANCH   2   3
TORSDOF 9
ENDMDL
MODEL        5
REMARK 921   NORMALIZED FREE ENERGY PREDICTED BY IDOCK:   -7.86 KCAL/MOL
REMARK 922        TOTAL FREE ENERGY PREDICTED BY IDOCK:  -13.52 KCAL/MOL
REMARK 923 INTER-LIGAND FREE ENERGY PREDICTED BY IDOCK:  -11.66 KCAL/MOL
REMARK 924 INTRA-LIGAND FREE ENERGY PREDICTED BY IDOCK:   -1.87 KCAL/MOL
REMARK 927      BINDING AFFINITY PREDICTED BY RF-SCORE:    0.00 PKD
ROOT
HETATM    1  C   UNL     1      -8.052   8.959  65.379  1.00  0.00    -0.119 C  
HETATM    2  O   UNL     1      -9.337   9.237  64.842  1.00  0.00    -0.211 OA 
ENDROOT
BRANCH   2   3
HETATM    3  C   UNL     1      -9.955  10.384  65.264  1.00  0.00    -0.309 A  
HETATM    4  C   UNL     1     -10.088  11.423  64.329  1.00  0.00    -0.297 A  
HETATM    5 CL   UNL     1      -9.406  11.299  62.743  1.00  0.00    -0.379 Cl 
HETATM    6  C   UNL     1     -10.767  12.602  64.656  1.00  0.00    -0.353 A  
HETATM    7  C   UNL     1     -11.342  12.761  65.924  1.00  0.00    -0.363 A  
HETATM    8  C   UNL     1     -10.504  10.557  66.538  1.00  0.00    -0.276 A  
HETATM    9  C   UNL     1     -11.183  11.736  66.866  1.00  0.00    -0.387 A  
BRANCH   7  10
HETATM   10  C   UNL     1     -12.076  14.033  66.284  1.00  0.00    -0.456 C  
BRANCH  10  11
HETATM   11  N   UNL     1     -12.409  13.969  67.696  1.00  0.00    -0.513 NA 
HETATM   12  H   UNL     1     -13.029  13.253  68.075  1.00  0.00     0.000 HD 
BRANCH  11  13
HETATM   13  C   UNL     1     -11.822  14.957  68.511  1.00  0.00    -0.294 A  
HETATM   14  C   UNL     1     -11.834  14.804  69.888  1.00  0.00    -0.364 A  
HETATM   15  C   UNL     1     -11.200  15.796  70.599  1.00  0.00    -0.372 A  
HETATM   16  N   UNL     1     -11.206  16.012  67.922  1.00  0.00    -0.316 NA 
HETATM   17  C   UNL     1     -10.592  16.932  68.693  1.00  0.00    -0.360 A  
HETATM   18  N   UNL     1     -10.595  16.862  70.030  1.00  0.00    -0.076 NA 
BRANCH  14  19
HETATM   19  C   UNL     1     -12.483  13.706  70.639  1.00  0.00    -0.347 C  
HETATM   20  O   UNL     1     -13.391  13.966  71.420  1.00  0.00    -0.333 OA 
HETATM   21  N   UNL     1     -12.052  12.424  70.395  1.00  0.00    -0.449 N  
HETATM   22  H   UNL     1     -11.330  12.274  69.689  1.00  0.00     0.000 HD 
BRANCH  21  23
HETATM   23  C   UNL     1     -12.589  11.274  71.106  1.00  0.00    -0.397 C  
BRANCH  23  24
HETATM   24  C   UNL     1     -11.670  10.066  71.147  1.00  0.00    -0.387 A  
HETATM   25  N   UNL     1     -11.973   9.097  72.038  1.00  0.00    -0.367 NA 
HETATM   26  C   UNL     1     -11.184   8.006  72.043  1.00  0.00    -0.298 A  
HETATM   27  N   UNL     1     -10.619  10.010  70.297  1.00  0.00    -0.291 NA 
HETATM   28  C   UNL     1      -9.871   8.890  70.341  1.00  0.00    -0.189 A  
HETATM   29  C   UNL     1     -10.110   7.845  71.204  1.00  0.00    -0.210 A  
ENDBRANCH  23  24
ENDBRANCH  21  23
ENDBRANCH  14  19
BRANCH  17  30
HETATM   30  N   UNL     1      -9.944  17.981  68.103  1.00  0.00    -0.332 NA 
HETATM   31  C   UNL     1      -9.679  19.517  66.314  1.00  0.00    -0.481 C  
HETATM   32  C   UNL     1      -9.771  19.265  68.744  1.00  0.00    -0.446 C  
HETATM   33  C   UNL     1      -9.665  18.021  66.667  1.00  0.00    -0.332 C  
HETATM   34  C   UNL     1      -9.941  20.274  67.612  1.00  0.00    -0.551 C  
BRANCH  33  35
HETATM   35  C   UNL     1      -8.291  17.381  66.384  1.00  0.00    -0.267 C  
HETATM   36  O   UNL     1      -7.479  18.226  65.564  1.00  0.00    -0.537 OA 
HETATM   37  H   UNL     1      -6.632  17.832  65.390  1.00  0.00     0.000 HD 
ENDBRANCH  33  35
ENDBRANCH  17  30
ENDBRANCH  11  13
ENDBRANCH  10  11
ENDBRANCH   7  10
ENDBRANCH   2   3
TORSDOF 9
ENDMDL
MODEL        6
REMARK 921   NORMALIZED FREE ENERGY PREDICTED BY IDOCK:   -7.86 KCAL/MOL
REMARK 922        TOTAL FREE ENERGY PREDICTED BY IDOCK:  -13.52 KCAL/MOL
REMARK 923 INTER-LIGAND FREE ENERGY PREDICTED BY IDOCK:  -11.78 KCAL/MOL
REMARK 924 INTRA-LIGAND FREE ENERGY PREDICTED BY IDOCK:   -1.74 KCAL/MOL
REMARK 927      BINDING AFFINITY PREDICTED BY RF-SCORE:    0.00 PKD
ROOT
HETATM    1  C   UNL     1     -12.830  15.448  73.640  1.00  0.00    -0.548 C  
HETATM    2  O   UNL     1     -13.708  14.943  72.644  1.00  0.00    -0.444 OA 
ENDROOT
BRANCH   2   3
HETATM    3  C   UNL     1     -13.268  13.872  71.911  1.00  0.00    -0.397 A  
HETATM    4  C   UNL     1     -12.496  14.148  70.772  1.00  0.00    -0.366 A  
HETATM    5 CL   UNL     1     -12.203  15.774  70.255  1.00  0.00    -0.396 Cl 
HETATM    6  C   UNL     1     -11.948  13.113  70.006  1.00  0.00    -0.391 A  
HETATM    7  C   UNL     1     -12.150  11.776  70.374  1.00  0.00    -0.440 A  
HETATM    8  C   UNL     1     -13.492  12.537  72.259  1.00  0.00    -0.490 A  
HETATM    9  C   UNL     1     -12.946  11.501  71.493  1.00  0.00    -0.485 A  
BRANCH   7  10
HETATM   10  C   UNL     1     -11.563  10.652  69.549  1.00  0.00    -0.288 C  
BRANCH  10  11
HETATM   11  N   UNL     1     -11.813  10.951  68.150  1.00  0.00    -0.753 NA 
HETATM   12  H   UNL     1     -12.528  11.617  67.857  1.00  0.00     0.000 HD 
BRANCH  11  13
HETATM   13  C   UNL     1     -11.007  10.263  67.221  1.00  0.00    -0.210 A  
HETATM   14  C   UNL     1     -10.653  10.880  66.033  1.00  0.00    -0.254 A  
HETATM   15  C   UNL     1      -9.830  10.149  65.209  1.00  0.00    -0.319 A  
HETATM   16  N   UNL     1     -10.549   9.027  67.541  1.00  0.00    -0.266 NA 
HETATM   17  C   UNL     1      -9.730   8.386  66.683  1.00  0.00    -0.251 A  
HETATM   18  N   UNL     1      -9.376   8.911  65.503  1.00  0.00    -0.190 NA 
BRANCH  14  19
HETATM   19  C   UNL     1     -11.102  12.215  65.574  1.00  0.00    -0.316 C  
HETATM   20  O   UNL     1     -12.301  12.464  65.533  1.00  0.00    -0.621 OA 
HETATM   21  N   UNL     1     -10.135  13.134  65.245  1.00  0.00    -0.434 N  
HETATM   22  H   UNL     1      -9.153  12.878  65.357  1.00  0.00     0.000 HD 
BRANCH  21  23
HETATM   23  C   UNL     1     -10.462  14.459  64.742  1.00  0.00    -0.367 C  
BRANCH  23  24
HETATM   24  C   UNL     1     -10.154  15.596  65.700  1.00  0.00    -0.365 A  
HETATM   25  N   UNL     1      -9.513  15.274  66.846  1.00  0.00    -0.224 NA 
HETATM   26  C   UNL     1      -9.202  16.288  67.675  1.00  0.00    -0.206 A  
HETATM   27  N   UNL     1     -10.517  16.856  65.365  1.00  0.00    -0.642 NA 
HETATM   28  C   UNL     1     -10.169  17.830  66.230  1.00  0.00    -0.364 A  
HETATM   29  C   UNL     1      -9.505  17.600  67.412  1.00  0.00    -0.256 A  
ENDBRANCH  23  24
ENDBRANCH  21  23
ENDBRANCH  14  19
BRANCH  17  30
HETATM   30  N   UNL     1      -9.240   7.153  67.014  1.00  0.00    -0.139 NA 
HETATM   31  C   UNL     1      -9.319   4.785  66.887  1.00  0.00    -0.141 C  
HETATM   32  C   UNL     1      -7.873   6.752  66.767  1.00  0.00    -0.107 C  
HETATM   33  C   UNL     1     -10.114   6.024  67.331  1.00  0.00    -0.163 C  
HETATM   34  C   UNL     1      -7.981   5.288  66.354  1.00  0.00    -0.104 C  
BRANCH  33  35
HETATM   35  C   UNL     1     -10.408   6.000  68.845  1.00  0.00    -0.218 C  
HETATM   36  O   UNL     1     -11.702   6.535  69.135  1.00  0.00    -0.623 OA 
HETATM   37  H   UNL     1     -11.884   6.521  70.068  1.00  0.00     0.000 HD 
ENDBRANCH  33  35
ENDBRANCH  17  30
ENDBRANCH  11  13
ENDBRANCH  10  11
ENDBRANCH   7  10
ENDBRANCH   2   3
TORSDOF 9
ENDMDL
MODEL        7
REMARK 921   NORMALIZED FREE ENERGY PREDICTED BY IDOCK:   -7.68 KCAL/MOL
REMARK 922        TOTAL FREE ENERGY PREDICTED BY IDOCK:  -13.25 KCAL/MOL
REMARK 923 INTER-LIGAND FREE ENERGY PREDICTED BY IDOCK:  -11.52 KCAL/MOL
REMARK 924 INTRA-LIGAND FREE ENERGY PREDICTED BY IDOCK:   -1.73 KCAL/MOL
REMARK 927      BINDING AFFINITY PREDICTED BY RF-SCORE:    0.00 PKD
ROOT
HETATM    1  C   UNL     1     -14.209   8.559  71.647  1.00  0.00    -0.421 C  
HETATM    2  O   UNL     1     -12.989   9.179  72.031  1.00  0.00    -0.360 OA 
ENDROOT
BRANCH   2   3
HETATM    3  C   UNL     1     -12.737  10.425  71.522  1.00  0.00    -0.459 A  
HETATM    4  C   UNL     1     -11.821  10.513  70.462  1.00  0.00    -0.347 A  
HETATM    5 CL   UNL     1     -10.966   9.119  69.894  1.00  0.00    -0.238 Cl 
HETATM    6  C   UNL     1     -11.558  11.738  69.838  1.00  0.00    -0.351 A  
HETATM    7  C   UNL     1     -12.218  12.901  70.253  1.00  0.00    -0.362 A  
HETATM    8  C   UNL     1     -13.373  11.593  71.954  1.00  0.00    -0.403 A  
HETATM    9  C   UNL     1     -13.110  12.819  71.331  1.00  0.00    -0.318 A  
BRANCH   7  10
HETATM   10  C   UNL     1     -11.937  14.228  69.584  1.00  0.00    -0.336 C  
BRANCH  10  11
HETATM   11  N   UNL     1     -12.103  14.048  68.153  1.00  0.00    -0.511 NA 
HETATM   12  H   UNL     1     -12.816  13.431  67.763  1.00  0.00     0.000 HD 
BRANCH  11  13
HETATM   13  C   UNL     1     -11.217  14.777  67.335  1.00  0.00    -0.339 A  
HETATM   14  C   UNL     1     -10.796  14.237  66.130  1.00  0.00    -0.310 A  
HETATM   15  C   UNL     1      -9.968  15.039  65.381  1.00  0.00    -0.330 A  
HETATM   16  N   UNL     1     -10.840  16.021  67.724  1.00  0.00    -0.326 NA 
HETATM   17  C   UNL     1     -10.039  16.748  66.919  1.00  0.00    -0.286 A  
HETATM   18  N   UNL     1      -9.569  16.273  65.758  1.00  0.00    -0.479 NA 
BRANCH  14  19
HETATM   19  C   UNL     1     -11.131  12.891  65.612  1.00  0.00    -0.279 C  
HETATM   20  O   UNL     1     -12.252  12.435  65.804  1.00  0.00    -0.620 OA 
HETATM   21  N   UNL     1     -10.163  12.224  64.900  1.00  0.00    -0.281 N  
HETATM   22  H   UNL     1      -9.270  12.687  64.729  1.00  0.00     0.000 HD 
BRANCH  21  23
HETATM   23  C   UNL     1     -10.368  10.880  64.381  1.00  0.00    -0.361 C  
BRANCH  23  24
HETATM   24  C   UNL     1      -9.530   9.806  65.052  1.00  0.00    -0.272 A  
HETATM   25  N   UNL     1      -9.980   9.330  66.234  1.00  0.00    -0.287 NA 
HETATM   26  C   UNL     1      -9.261   8.346  66.807  1.00  0.00    -0.171 A  
HETATM   27  N   UNL     1      -8.402   9.374  64.442  1.00  0.00    -0.156 NA 
HETATM   28  C   UNL     1      -7.730   8.382  65.058  1.00  0.00    -0.104 A  
HETATM   29  C   UNL     1      -8.118   7.825  66.255  1.00  0.00    -0.114 A  
ENDBRANCH  23  24
ENDBRANCH  21  23
ENDBRANCH  14  19
BRANCH  17  30
HETATM   30  N   UNL     1      -9.681  18.013  67.292  1.00  0.00    -0.289 NA 
HETATM   31  C   UNL     1     -10.092  20.022  68.485  1.00  0.00    -0.487 C  
HETATM   32  C   UNL     1      -8.425  18.322  67.938  1.00  0.00    -0.254 C  
HETATM   33  C   UNL     1     -10.649  19.106  67.383  1.00  0.00    -0.481 C  
HETATM   34  C   UNL     1      -8.782  19.401  68.954  1.00  0.00    -0.325 C  
BRANCH  33  35
HETATM   35  C   UNL     1     -10.741  19.836  66.027  1.00  0.00    -0.388 C  
HETATM   36  O   UNL     1     -10.994  18.922  64.956  1.00  0.00    -0.479 OA 
HETATM   37  H   UNL     1     -11.051  19.371  64.121  1.00  0.00     0.000 HD 
ENDBRANCH  33  35
ENDBRANCH  17  30
ENDBRANCH  11  13
ENDBRANCH  10  11
ENDBRANCH   7  10
ENDBRANCH   2   3
TORSDOF 9
ENDMDL
MODEL        8
REMARK 921   NORMALIZED FREE ENERGY PREDICTED BY IDOCK:   -7.53 KCAL/MOL
REMARK 922        TOTAL FREE ENERGY PREDICTED BY IDOCK:  -13.02 KCAL/MOL
REMARK 923 INTER-LIGAND FREE ENERGY PREDICTED BY IDOCK:  -11.29 KCAL/MOL
REMARK 924 INTRA-LIGAND FREE ENERGY PREDICTED BY IDOCK:   -1.73 KCAL/MOL
REMARK 927      BINDING AFFINITY PREDICTED BY RF-SCORE:    0.00 PKD
ROOT
HETATM    1  C   UNL     1     -10.317   6.948  73.565  1.00  0.00    -0.338 C  
HETATM    2  O   UNL     1     -11.521   7.573  73.141  1.00  0.00    -0.282 OA 
ENDROOT
BRANCH   2   3
HETATM    3  C   UNL     1     -11.421   8.505  72.142  1.00  0.00    -0.376 A  
HETATM    4  C   UNL     1     -12.584   9.218  71.811  1.00  0.00    -0.382 A  
HETATM    5 CL   UNL     1     -14.103   8.859  72.558  1.00  0.00    -0.506 Cl 
HETATM    6  C   UNL     1     -12.554  10.236  70.851  1.00  0.00    -0.465 A  
HETATM    7  C   UNL     1     -11.354  10.573  70.212  1.00  0.00    -0.407 A  
HETATM    8  C   UNL     1     -10.231   8.824  71.482  1.00  0.00    -0.371 A  
HETATM    9  C   UNL     1     -10.200   9.841  70.521  1.00  0.00    -0.321 A  
BRANCH   7  10
HETATM   10  C   UNL     1     -11.316  11.671  69.172  1.00  0.00    -0.283 C  
BRANCH  10  11
HETATM   11  N   UNL     1     -11.978  11.175  67.979  1.00  0.00    -0.700 NA 
HETATM   12  H   UNL     1     -12.991  11.213  67.865  1.00  0.00     0.000 HD 
BRANCH  11  13
HETATM   13  C   UNL     1     -11.134  10.637  66.987  1.00  0.00    -0.145 A  
HETATM   14  C   UNL     1     -10.873  11.370  65.840  1.00  0.00    -0.292 A  
HETATM   15  C   UNL     1     -10.004  10.784  64.949  1.00  0.00    -0.312 A  
HETATM   16  N   UNL     1     -10.550   9.433  67.205  1.00  0.00    -0.265 NA 
HETATM   17  C   UNL     1      -9.696   8.938  66.287  1.00  0.00    -0.275 A  
HETATM   18  N   UNL     1      -9.425   9.578  65.142  1.00  0.00    -0.265 NA 
BRANCH  14  19
HETATM   19  C   UNL     1     -11.460  12.683  65.490  1.00  0.00    -0.340 C  
HETATM   20  O   UNL     1     -12.678  12.812  65.473  1.00  0.00    -0.595 OA 
HETATM   21  N   UNL     1     -10.595  13.719  65.230  1.00  0.00    -0.334 N  
HETATM   22  H   UNL     1      -9.591  13.556  65.317  1.00  0.00     0.000 HD 
BRANCH  21  23
HETATM   23  C   UNL     1     -11.060  15.039  64.834  1.00  0.00    -0.415 C  
BRANCH  23  24
HETATM   24  C   UNL     1     -10.796  16.137  65.849  1.00  0.00    -0.177 A  
HETATM   25  N   UNL     1     -10.532  17.370  65.362  1.00  0.00    -0.651 NA 
HETATM   26  C   UNL     1     -10.342  18.352  66.263  1.00  0.00    -0.415 A  
HETATM   27  N   UNL     1     -10.849  15.840  67.168  1.00  0.00    -0.315 NA 
HETATM   28  C   UNL     1     -10.660  16.866  68.022  1.00  0.00    -0.367 A  
HETATM   29  C   UNL     1     -10.400  18.155  67.621  1.00  0.00    -0.411 A  
ENDBRANCH  23  24
ENDBRANCH  21  23
ENDBRANCH  14  19
BRANCH  17  30
HETATM   30  N   UNL     1      -9.082   7.739  66.517  1.00  0.00    -0.162 NA 
HETATM   31  C   UNL     1      -8.912   5.395  66.186  1.00  0.00    -0.142 C  
HETATM   32  C   UNL     1      -7.679   7.505  66.253  1.00  0.00    -0.089 C  
HETATM   33  C   UNL     1      -9.834   6.502  66.725  1.00  0.00    -0.162 C  
HETATM   34  C   UNL     1      -7.632   6.079  65.715  1.00  0.00    -0.084 C  
BRANCH  33  35
HETATM   35  C   UNL     1     -10.129   6.316  68.227  1.00  0.00    -0.153 C  
HETATM   36  O   UNL     1     -11.288   7.053  68.628  1.00  0.00    -0.494 OA 
HETATM   37  H   UNL     1     -11.470   6.939  69.553  1.00  0.00     0.000 HD 
ENDBRANCH  33  35
ENDBRANCH  17  30
ENDBRANCH  11  13
ENDBRANCH  10  11
ENDBRANCH   7  10
ENDBRANCH   2   3
TORSDOF 9
ENDMDL
MODEL        9
REMARK 921   NORMALIZED FREE ENERGY PREDICTED BY IDOCK:   -7.38 KCAL/MOL
REMARK 922        TOTAL FREE ENERGY PREDICTED BY IDOCK:  -12.79 KCAL/MOL
REMARK 923 INTER-LIGAND FREE ENERGY PREDICTED BY IDOCK:  -11.35 KCAL/MOL
REMARK 924 INTRA-LIGAND FREE ENERGY PREDICTED BY IDOCK:   -1.44 KCAL/MOL
REMARK 927      BINDING AFFINITY PREDICTED BY RF-SCORE:    0.00 PKD
ROOT
HETATM    1  C   UNL     1     -12.237  14.945  64.210  1.00  0.00    -0.344 C  
HETATM    2  O   UNL     1     -12.871  13.788  64.738  1.00  0.00    -0.685 OA 
ENDROOT
BRANCH   2   3
HETATM    3  C   UNL     1     -12.244  13.155  65.778  1.00  0.00    -0.456 A  
HETATM    4  C   UNL     1     -11.426  12.059  65.462  1.00  0.00    -0.313 A  
HETATM    5 CL   UNL     1     -11.300  11.467  63.841  1.00  0.00    -0.398 Cl 
HETATM    6  C   UNL     1     -10.694  11.398  66.456  1.00  0.00    -0.325 A  
HETATM    7  C   UNL     1     -10.754  11.830  67.787  1.00  0.00    -0.244 A  
HETATM    8  C   UNL     1     -12.325  13.566  67.111  1.00  0.00    -0.220 A  
HETATM    9  C   UNL     1     -11.594  12.905  68.106  1.00  0.00    -0.378 A  
BRANCH   7  10
HETATM   10  C   UNL     1      -9.968  11.119  68.865  1.00  0.00    -0.175 C  
BRANCH  10  11
HETATM   11  N   UNL     1     -10.861  10.889  69.987  1.00  0.00    -0.465 NA 
HETATM   12  H   UNL     1     -11.250  11.655  70.536  1.00  0.00     0.000 HD 
BRANCH  11  13
HETATM   13  C   UNL     1     -11.156   9.541  70.270  1.00  0.00    -0.271 A  
HETATM   14  C   UNL     1     -12.225   9.234  71.097  1.00  0.00    -0.373 A  
HETATM   15  C   UNL     1     -12.464   7.892  71.281  1.00  0.00    -0.264 A  
HETATM   16  N   UNL     1     -10.419   8.569  69.677  1.00  0.00    -0.219 NA 
HETATM   17  C   UNL     1     -10.732   7.277  69.897  1.00  0.00    -0.242 A  
HETATM   18  N   UNL     1     -11.730   6.910  70.712  1.00  0.00    -0.351 NA 
BRANCH  14  19
HETATM   19  C   UNL     1     -13.088  10.205  71.806  1.00  0.00    -0.463 C  
HETATM   20  O   UNL     1     -13.884   9.802  72.646  1.00  0.00    -0.236 OA 
HETATM   21  N   UNL     1     -12.928  11.537  71.507  1.00  0.00    -0.430 N  
HETATM   22  H   UNL     1     -12.206  11.808  70.838  1.00  0.00     0.000 HD 
BRANCH  21  23
HETATM   23  C   UNL     1     -13.751  12.574  72.111  1.00  0.00    -0.243 C  
BRANCH  23  24
HETATM   24  C   UNL     1     -13.087  13.936  72.208  1.00  0.00    -0.417 A  
HETATM   25  N   UNL     1     -13.234  14.606  73.372  1.00  0.00    -0.546 NA 
HETATM   26  C   UNL     1     -12.608  15.794  73.473  1.00  0.00    -0.562 A  
HETATM   27  N   UNL     1     -12.383  14.402  71.150  1.00  0.00    -0.337 NA 
HETATM   28  C   UNL     1     -11.772  15.592  71.314  1.00  0.00    -0.422 A  
HETATM   29  C   UNL     1     -11.852  16.340  72.466  1.00  0.00    -0.608 A  
ENDBRANCH  23  24
ENDBRANCH  21  23
ENDBRANCH  14  19
BRANCH  17  30
HETATM   30  N   UNL     1     -10.011   6.294  69.278  1.00  0.00    -0.150 NA 
HETATM   31  C   UNL     1      -8.008   5.500  68.286  1.00  0.00    -0.096 C  
HETATM   32  C   UNL     1      -9.815   4.979  69.846  1.00  0.00    -0.226 C  
HETATM   33  C   UNL     1      -9.102   6.573  68.166  1.00  0.00    -0.114 C  
HETATM   34  C   UNL     1      -8.379   4.622  69.475  1.00  0.00    -0.080 C  
BRANCH  33  35
HETATM   35  C   UNL     1      -9.864   6.464  66.829  1.00  0.00    -0.162 C  
HETATM   36  O   UNL     1     -11.039   7.279  66.828  1.00  0.00    -0.539 OA 
HETATM   37  H   UNL     1     -11.508   7.212  66.005  1.00  0.00     0.000 HD 
ENDBRANCH  33  35
ENDBRANCH  17  30
ENDBRANCH  11  13
ENDBRANCH  10  11
ENDBRANCH   7  10
ENDBRANCH   2   3
TORSDOF 9
ENDMDL
MODEL       10
REMARK 921   NORMALIZED FREE ENERGY PREDICTED BY IDOCK:   -7.35 KCAL/MOL
REMARK 922        TOTAL FREE ENERGY PREDICTED BY IDOCK:  -12.74 KCAL/MOL
REMARK 923 INTER-LIGAND FREE ENERGY PREDICTED BY IDOCK:  -11.48 KCAL/MOL
REMARK 924 INTRA-LIGAND FREE ENERGY PREDICTED BY IDOCK:   -1.26 KCAL/MOL
REMARK 927      BINDING AFFINITY PREDICTED BY RF-SCORE:    0.00 PKD
ROOT
HETATM    1  C   UNL     1     -11.080  15.786  64.944  1.00  0.00    -0.399 C  
HETATM    2  O   UNL     1     -10.603  14.495  64.592  1.00  0.00    -0.405 OA 
ENDROOT
BRANCH   2   3
HETATM    3  C   UNL     1     -10.507  13.571  65.600  1.00  0.00    -0.293 A  
HETATM    4  C   UNL     1     -11.340  12.445  65.519  1.00  0.00    -0.346 A  
HETATM    5 CL   UNL     1     -12.515  12.282  64.259  1.00  0.00    -0.531 Cl 
HETATM    6  C   UNL     1     -11.256  11.419  66.468  1.00  0.00    -0.276 A  
HETATM    7  C   UNL     1     -10.324  11.493  67.511  1.00  0.00    -0.220 A  
HETATM    8  C   UNL     1      -9.597  13.657  66.658  1.00  0.00    -0.289 A  
HETATM    9  C   UNL     1      -9.514  12.632  67.608  1.00  0.00    -0.189 A  
BRANCH   7  10
HETATM   10  C   UNL     1     -10.230  10.390  68.541  1.00  0.00    -0.173 C  
BRANCH  10  11
HETATM   11  N   UNL     1     -11.582  10.019  68.919  1.00  0.00    -0.498 NA 
HETATM   12  H   UNL     1     -12.081   9.254  68.464  1.00  0.00     0.000 HD 
BRANCH  11  13
HETATM   13  C   UNL     1     -12.163  10.781  69.952  1.00  0.00    -0.313 A  
HETATM   14  C   UNL     1     -12.734  10.137  71.038  1.00  0.00    -0.481 A  
HETATM   15  C   UNL     1     -13.237  10.963  72.016  1.00  0.00    -0.351 A  
HETATM   16  N   UNL     1     -12.098  12.134  69.884  1.00  0.00    -0.284 NA 
HETATM   17  C   UNL     1     -12.599  12.869  70.897  1.00  0.00    -0.270 A  
HETATM   18  N   UNL     1     -13.195  12.312  71.959  1.00  0.00    -0.474 NA 
BRANCH  14  19
HETATM   19  C   UNL     1     -12.873   8.674  71.213  1.00  0.00    -0.192 C  
HETATM   20  O   UNL     1     -13.987   8.191  71.378  1.00  0.00    -0.335 OA 
HETATM   21  N   UNL     1     -11.731   7.913  71.147  1.00  0.00    -0.284 N  
HETATM   22  H   UNL     1     -10.842   8.375  70.950  1.00  0.00     0.000 HD 
BRANCH  21  23
HETATM   23  C   UNL     1     -11.744   6.472  71.347  1.00  0.00    -0.324 C  
BRANCH  23  24
HETATM   24  C   UNL     1     -10.897   5.686  70.362  1.00  0.00    -0.256 A  
HETATM   25  N   UNL     1     -10.928   6.088  69.072  1.00  0.00    -0.344 NA 
HETATM   26  C   UNL     1     -10.143   5.419  68.207  1.00  0.00    -0.167 A  
HETATM   27  N   UNL     1     -10.156   4.647  70.813  1.00  0.00    -0.218 NA 
HETATM   28  C   UNL     1      -9.384   4.022  69.903  1.00  0.00    -0.170 A  
HETATM   29  C   UNL     1      -9.338   4.368  68.572  1.00  0.00    -0.203 A  
ENDBRANCH  23  24
ENDBRANCH  21  23
ENDBRANCH  14  19
BRANCH  17  30
HETATM   30  N   UNL     1     -12.509  14.232  70.848  1.00  0.00    -0.330 NA 
HETATM   31  C   UNL     1     -11.713  16.293  71.711  1.00  0.00    -0.504 C  
HETATM   32  C   UNL     1     -12.023  14.952  69.692  1.00  0.00    -0.320 C  
HETATM   33  C   UNL     1     -12.572  15.064  72.049  1.00  0.00    -0.333 C  
HETATM   34  C   UNL     1     -11.218  16.105  70.281  1.00  0.00    -0.389 C  
BRANCH  33  35
HETATM   35  C   UNL     1     -14.036  15.454  72.339  1.00  0.00    -0.560 C  
HETATM   36  O   UNL     1     -14.134  16.307  73.482  1.00  0.00    -0.760 OA 
HETATM   37  H   UNL     1     -15.035  16.547  73.661  1.00  0.00     0.000 HD 
ENDBRANCH  33  35
ENDBRANCH  17  30
ENDBRANCH  11  13
ENDBRANCH  10  11
ENDBRANCH   7  10
ENDBRANCH   2   3
TORSDOF 9
ENDMDL
MODEL       11
REMARK 921   NORMALIZED FREE ENERGY PREDICTED BY IDOCK:   -7.20 KCAL/MOL
REMARK 922        TOTAL FREE ENERGY PREDICTED BY IDOCK:  -12.51 KCAL/MOL
REMARK 923 INTER-LIGAND FREE ENERGY PREDICTED BY IDOCK:  -10.76 KCAL/MOL
REMARK 924 INTRA-LIGAND FREE ENERGY PREDICTED BY IDOCK:   -1.75 KCAL/MOL
REMARK 927      BINDING AFFINITY PREDICTED BY RF-SCORE:    0.00 PKD
ROOT
HETATM    1  C   UNL     1      -6.461   8.999  66.286  1.00  0.00    -0.066 C  
HETATM    2  O   UNL     1      -7.836   8.643  66.268  1.00  0.00    -0.098 OA 
ENDROOT
BRANCH   2   3
HETATM    3  C   UNL     1      -8.745   9.666  66.316  1.00  0.00    -0.142 A  
HETATM    4  C   UNL     1     -10.025   9.365  66.808  1.00  0.00    -0.239 A  
HETATM    5 CL   UNL     1     -10.468   7.747  67.233  1.00  0.00    -0.372 Cl 
HETATM    6  C   UNL     1     -10.992  10.366  66.956  1.00  0.00    -0.222 A  
HETATM    7  C   UNL     1     -10.693  11.695  66.629  1.00  0.00    -0.310 A  
HETATM    8  C   UNL     1      -8.458  10.988  65.963  1.00  0.00    -0.158 A  
HETATM    9  C   UNL     1      -9.426  11.989  66.110  1.00  0.00    -0.241 A  
BRANCH   7  10
HETATM   10  C   UNL     1     -11.735  12.780  66.784  1.00  0.00    -0.392 C  
BRANCH  10  11
HETATM   11  N   UNL     1     -12.096  12.851  68.189  1.00  0.00    -0.236 NA 
HETATM   12  H   UNL     1     -12.503  12.057  68.685  1.00  0.00     0.000 HD 
BRANCH  11  13
HETATM   13  C   UNL     1     -11.850  14.083  68.826  1.00  0.00    -0.361 A  
HETATM   14  C   UNL     1     -12.117  14.220  70.178  1.00  0.00    -0.403 A  
HETATM   15  C   UNL     1     -11.805  15.444  70.722  1.00  0.00    -0.353 A  
HETATM   16  N   UNL     1     -11.300  15.094  68.107  1.00  0.00    -0.322 NA 
HETATM   17  C   UNL     1     -11.008  16.257  68.722  1.00  0.00    -0.343 A  
HETATM   18  N   UNL     1     -11.272  16.468  70.019  1.00  0.00    -0.252 NA 
BRANCH  14  19
HETATM   19  C   UNL     1     -12.725  13.195  71.057  1.00  0.00    -0.277 C  
HETATM   20  O   UNL     1     -13.614  13.521  71.835  1.00  0.00    -0.406 OA 
HETATM   21  N   UNL     1     -12.279  11.902  70.930  1.00  0.00    -0.378 N  
HETATM   22  H   UNL     1     -11.575  11.690  70.222  1.00  0.00     0.000 HD 
BRANCH  21  23
HETATM   23  C   UNL     1     -12.774  10.823  71.771  1.00  0.00    -0.359 C  
BRANCH  23  24
HETATM   24  C   UNL     1     -12.075   9.489  71.572  1.00  0.00    -0.389 A  
HETATM   25  N   UNL     1     -12.836   8.378  71.679  1.00  0.00    -0.327 NA 
HETATM   26  C   UNL     1     -12.225   7.199  71.459  1.00  0.00    -0.360 A  
HETATM   27  N   UNL     1     -10.751   9.476  71.292  1.00  0.00    -0.343 NA 
HETATM   28  C   UNL     1     -10.198   8.267  71.072  1.00  0.00    -0.191 A  
HETATM   29  C   UNL     1     -10.894   7.083  71.144  1.00  0.00    -0.263 A  
ENDBRANCH  23  24
ENDBRANCH  21  23
ENDBRANCH  14  19
BRANCH  17  30
HETATM   30  N   UNL     1     -10.427  17.268  68.009  1.00  0.00    -0.360 NA 
HETATM   31  C   UNL     1     -10.309  18.653  66.087  1.00  0.00    -0.481 C  
HETATM   32  C   UNL     1     -10.257  18.607  68.530  1.00  0.00    -0.353 C  
HETATM   33  C   UNL     1     -10.231  17.193  66.562  1.00  0.00    -0.322 C  
HETATM   34  C   UNL     1     -10.520  19.510  67.330  1.00  0.00    -0.593 C  
BRANCH  33  35
HETATM   35  C   UNL     1      -8.856  16.566  66.253  1.00  0.00    -0.329 C  
HETATM   36  O   UNL     1      -7.890  17.565  65.914  1.00  0.00    -0.519 OA 
HETATM   37  H   UNL     1      -7.043  17.179  65.723  1.00  0.00     0.000 HD 
ENDBRANCH  33  35
ENDBRANCH  17  30
ENDBRANCH  11  13
ENDBRANCH  10  11
ENDBRANCH   7  10
ENDBRANCH   2   3
TORSDOF 9
ENDMDL
MODEL       12
REMARK 921   NORMALIZED FREE ENERGY PREDICTED BY IDOCK:   -7.20 KCAL/MOL
REMARK 922        TOTAL FREE ENERGY PREDICTED BY IDOCK:  -12.51 KCAL/MOL
REMARK 923 INTER-LIGAND FREE ENERGY PREDICTED BY IDOCK:   -9.99 KCAL/MOL
REMARK 924 INTRA-LIGAND FREE ENERGY PREDICTED BY IDOCK:   -2.52 KCAL/MOL
REMARK 927      BINDING AFFINITY PREDICTED BY RF-SCORE:    0.00 PKD
ROOT
HETATM    1  C   UNL     1      -6.325  19.581  65.316  1.00  0.00    -0.263 C  
HETATM    2  O   UNL     1      -6.411  19.400  66.723  1.00  0.00    -0.189 OA 
ENDROOT
BRANCH   2   3
HETATM    3  C   UNL     1      -6.778  18.158  67.170  1.00  0.00    -0.187 A  
HETATM    4  C   UNL     1      -6.964  18.003  68.553  1.00  0.00    -0.245 A  
HETATM    5 CL   UNL     1      -6.639  19.297  69.655  1.00  0.00    -0.315 Cl 
HETATM    6  C   UNL     1      -7.406  16.787  69.087  1.00  0.00    -0.213 A  
HETATM    7  C   UNL     1      -7.686  15.703  68.246  1.00  0.00    -0.130 A  
HETATM    8  C   UNL     1      -7.030  17.066  66.335  1.00  0.00    -0.267 A  
HETATM    9  C   UNL     1      -7.471  15.849  66.869  1.00  0.00    -0.233 A  
BRANCH   7  10
HETATM   10  C   UNL     1      -8.161  14.386  68.817  1.00  0.00    -0.126 C  
BRANCH  10  11
HETATM   11  N   UNL     1      -8.430  13.491  67.705  1.00  0.00    -0.170 NA 
HETATM   12  H   UNL     1      -7.784  13.391  66.922  1.00  0.00     0.000 HD 
BRANCH  11  13
HETATM   13  C   UNL     1      -9.639  12.771  67.775  1.00  0.00    -0.204 A  
HETATM   14  C   UNL     1     -10.694  13.122  66.947  1.00  0.00    -0.270 A  
HETATM   15  C   UNL     1     -11.817  12.336  67.055  1.00  0.00    -0.259 A  
HETATM   16  N   UNL     1      -9.722  11.709  68.615  1.00  0.00    -0.177 NA 
HETATM   17  C   UNL     1     -10.855  10.979  68.645  1.00  0.00    -0.215 A  
HETATM   18  N   UNL     1     -11.923  11.284  67.897  1.00  0.00    -0.640 NA 
BRANCH  14  19
HETATM   19  C   UNL     1     -10.722  14.263  66.005  1.00  0.00    -0.304 C  
HETATM   20  O   UNL     1     -10.614  14.053  64.802  1.00  0.00    -0.397 OA 
HETATM   21  N   UNL     1     -10.906  15.520  66.531  1.00  0.00    -0.308 N  
HETATM   22  H   UNL     1     -11.046  15.617  67.537  1.00  0.00     0.000 HD 
BRANCH  21  23
HETATM   23  C   UNL     1     -10.907  16.716  65.702  1.00  0.00    -0.137 C  
BRANCH  23  24
HETATM   24  C   UNL     1     -10.535  17.995  66.432  1.00  0.00    -0.339 A  
HETATM   25  N   UNL     1     -10.532  17.949  67.783  1.00  0.00    -0.388 NA 
HETATM   26  C   UNL     1     -10.159  19.069  68.429  1.00  0.00    -0.403 A  
HETATM   27  N   UNL     1     -10.218  19.095  65.712  1.00  0.00    -0.519 NA 
HETATM   28  C   UNL     1      -9.843  20.183  66.414  1.00  0.00    -0.435 A  
HETATM   29  C   UNL     1      -9.796  20.228  67.788  1.00  0.00    -0.534 A  
ENDBRANCH  23  24
ENDBRANCH  21  23
ENDBRANCH  14  19
BRANCH  17  30
HETATM   30  N   UNL     1     -10.932   9.891  69.468  1.00  0.00    -0.239 NA 
HETATM   31  C   UNL     1      -9.908   8.229  70.816  1.00  0.00    -0.205 C  
HETATM   32  C   UNL     1     -11.710   9.874  70.686  1.00  0.00    -0.323 C  
HETATM   33  C   UNL     1      -9.990   8.776  69.381  1.00  0.00    -0.196 C  
HETATM   34  C   UNL     1     -10.861   9.066  71.662  1.00  0.00    -0.437 C  
BRANCH  33  35
HETATM   35  C   UNL     1     -10.524   7.716  68.397  1.00  0.00    -0.169 C  
HETATM   36  O   UNL     1     -11.432   6.815  69.038  1.00  0.00    -0.558 OA 
HETATM   37  H   UNL     1     -11.761   6.162  68.432  1.00  0.00     0.000 HD 
ENDBRANCH  33  35
ENDBRANCH  17  30
ENDBRANCH  11  13
ENDBRANCH  10  11
ENDBRANCH   7  10
ENDBRANCH   2   3
TORSDOF 9
ENDMDL
MODEL       13
REMARK 921   NORMALIZED FREE ENERGY PREDICTED BY IDOCK:   -7.13 KCAL/MOL
REMARK 922        TOTAL FREE ENERGY PREDICTED BY IDOCK:  -12.41 KCAL/MOL
REMARK 923 INTER-LIGAND FREE ENERGY PREDICTED BY IDOCK:  -10.69 KCAL/MOL
REMARK 924 INTRA-LIGAND FREE ENERGY PREDICTED BY IDOCK:   -1.72 KCAL/MOL
REMARK 927      BINDING AFFINITY PREDICTED BY RF-SCORE:    0.00 PKD
ROOT
HETATM    1  C   UNL     1      -6.767  20.146  68.625  1.00  0.00    -0.290 C  
HETATM    2  O   UNL     1      -8.035  19.615  68.983  1.00  0.00    -0.330 OA 
ENDROOT
BRANCH   2   3
HETATM    3  C   UNL     1      -8.498  18.558  68.245  1.00  0.00    -0.318 A  
HETATM    4  C   UNL     1      -9.588  18.798  67.394  1.00  0.00    -0.306 A  
HETATM    5 CL   UNL     1     -10.380  20.337  67.358  1.00  0.00    -0.486 Cl 
HETATM    6  C   UNL     1     -10.080  17.793  66.554  1.00  0.00    -0.358 A  
HETATM    7  C   UNL     1      -9.480  16.527  66.537  1.00  0.00    -0.296 A  
HETATM    8  C   UNL     1      -7.920  17.285  68.248  1.00  0.00    -0.244 A  
HETATM    9  C   UNL     1      -8.412  16.278  67.409  1.00  0.00    -0.190 A  
BRANCH   7  10
HETATM   10  C   UNL     1     -10.008  15.435  65.633  1.00  0.00    -0.362 C  
BRANCH  10  11
HETATM   11  N   UNL     1     -11.397  15.200  65.986  1.00  0.00    -0.278 NA 
HETATM   12  H   UNL     1     -12.160  15.739  65.575  1.00  0.00     0.000 HD 
BRANCH  11  13
HETATM   13  C   UNL     1     -11.627  14.182  66.932  1.00  0.00    -0.391 A  
HETATM   14  C   UNL     1     -11.421  12.858  66.576  1.00  0.00    -0.390 A  
HETATM   15  C   UNL     1     -11.628  11.938  67.577  1.00  0.00    -0.304 A  
HETATM   16  N   UNL     1     -11.991  14.527  68.192  1.00  0.00    -0.298 NA 
HETATM   17  C   UNL     1     -12.156  13.562  69.119  1.00  0.00    -0.288 A  
HETATM   18  N   UNL     1     -12.007  12.262  68.833  1.00  0.00    -0.291 NA 
BRANCH  14  19
HETATM   19  C   UNL     1     -11.038  12.364  65.235  1.00  0.00    -0.303 C  
HETATM   20  O   UNL     1     -11.594  12.823  64.243  1.00  0.00    -0.332 OA 
HETATM   21  N   UNL     1     -10.037  11.425  65.164  1.00  0.00    -0.257 N  
HETATM   22  H   UNL     1      -9.578  11.128  66.025  1.00  0.00     0.000 HD 
BRANCH  21  23
HETATM   23  C   UNL     1      -9.610  10.838  63.902  1.00  0.00    -0.293 C  
BRANCH  23  24
HETATM   24  C   UNL     1      -8.870   9.519  64.034  1.00  0.00    -0.212 A  
HETATM   25  N   UNL     1      -8.648   9.065  65.287  1.00  0.00    -0.165 NA 
HETATM   26  C   UNL     1      -8.031   7.873  65.402  1.00  0.00    -0.123 A  
HETATM   27  N   UNL     1      -8.486   8.865  62.913  1.00  0.00    -0.196 NA 
HETATM   28  C   UNL     1      -7.882   7.673  63.091  1.00  0.00    -0.134 A  
HETATM   29  C   UNL     1      -7.625   7.124  64.326  1.00  0.00    -0.112 A  
ENDBRANCH  23  24
ENDBRANCH  21  23
ENDBRANCH  14  19
BRANCH  17  30
HETATM   30  N   UNL     1     -12.494  13.907  70.398  1.00  0.00    -0.344 NA 
HETATM   31  C   UNL     1     -13.828  15.122  71.937  1.00  0.00    -0.607 C  
HETATM   32  C   UNL     1     -12.865  12.940  71.406  1.00  0.00    -0.283 C  
HETATM   33  C   UNL     1     -12.836  15.279  70.773  1.00  0.00    -0.437 C  
HETATM   34  C   UNL     1     -13.978  13.626  72.191  1.00  0.00    -0.609 C  
BRANCH  33  35
HETATM   35  C   UNL     1     -11.564  16.035  71.207  1.00  0.00    -0.449 C  
HETATM   36  O   UNL     1     -11.086  16.895  70.168  1.00  0.00    -0.416 OA 
HETATM   37  H   UNL     1     -10.302  17.361  70.435  1.00  0.00     0.000 HD 
ENDBRANCH  33  35
ENDBRANCH  17  30
ENDBRANCH  11  13
ENDBRANCH  10  11
ENDBRANCH   7  10
ENDBRANCH   2   3
TORSDOF 9
ENDMDL
MODEL       14
REMARK 921   NORMALIZED FREE ENERGY PREDICTED BY IDOCK:   -7.10 KCAL/MOL
REMARK 922        TOTAL FREE ENERGY PREDICTED BY IDOCK:  -12.37 KCAL/MOL
REMARK 923 INTER-LIGAND FREE ENERGY PREDICTED BY IDOCK:  -10.29 KCAL/MOL
REMARK 924 INTRA-LIGAND FREE ENERGY PREDICTED BY IDOCK:   -2.08 KCAL/MOL
REMARK 927      BINDING AFFINITY PREDICTED BY RF-SCORE:    0.00 PKD
ROOT
HETATM    1  C   UNL     1     -11.764  16.030  64.055  1.00  0.00     0.220 C  
HETATM    2  O   UNL     1     -12.659  14.964  64.339  1.00  0.00    -0.577 OA 
ENDROOT
BRANCH   2   3
HETATM    3  C   UNL     1     -12.271  14.062  65.295  1.00  0.00    -0.440 A  
HETATM    4  C   UNL     1     -12.118  12.726  64.891  1.00  0.00    -0.438 A  
HETATM    5 CL   UNL     1     -12.508  12.222  63.282  1.00  0.00    -0.590 Cl 
HETATM    6  C   UNL     1     -11.657  11.754  65.786  1.00  0.00    -0.194 A  
HETATM    7  C   UNL     1     -11.325  12.101  67.101  1.00  0.00    -0.393 A  
HETATM    8  C   UNL     1     -11.966  14.401  66.616  1.00  0.00    -0.414 A  
HETATM    9  C   UNL     1     -11.506  13.428  67.512  1.00  0.00    -0.357 A  
BRANCH   7  10
HETATM   10  C   UNL     1     -10.828  11.054  68.073  1.00  0.00    -0.229 C  
BRANCH  10  11
HETATM   11  N   UNL     1     -10.877  11.628  69.407  1.00  0.00    -0.430 NA 
HETATM   12  H   UNL     1     -10.428  12.516  69.631  1.00  0.00     0.000 HD 
BRANCH  11  13
HETATM   13  C   UNL     1     -11.582  10.881  70.371  1.00  0.00    -0.323 A  
HETATM   14  C   UNL     1     -12.442  11.529  71.243  1.00  0.00    -0.399 A  
HETATM   15  C   UNL     1     -13.119  10.715  72.120  1.00  0.00    -0.276 A  
HETATM   16  N   UNL     1     -11.443   9.532  70.386  1.00  0.00    -0.255 NA 
HETATM   17  C   UNL     1     -12.159   8.806  71.268  1.00  0.00    -0.296 A  
HETATM   18  N   UNL     1     -12.982   9.371  72.160  1.00  0.00    -0.411 NA 
BRANCH  14  19
HETATM   19  C   UNL     1     -12.663  12.991  71.327  1.00  0.00    -0.293 C  
HETATM   20  O   UNL     1     -13.743  13.413  71.725  1.00  0.00    -0.362 OA 
HETATM   21  N   UNL     1     -11.618  13.814  70.983  1.00  0.00    -0.348 N  
HETATM   22  H   UNL     1     -10.728  13.394  70.714  1.00  0.00     0.000 HD 
BRANCH  21  23
HETATM   23  C   UNL     1     -11.738  15.264  70.987  1.00  0.00    -0.348 C  
BRANCH  23  24
HETATM   24  C   UNL     1     -10.914  15.973  69.926  1.00  0.00    -0.353 A  
HETATM   25  N   UNL     1      -9.613  15.621  69.827  1.00  0.00    -0.260 NA 
HETATM   26  C   UNL     1      -8.893  16.217  68.858  1.00  0.00    -0.253 A  
HETATM   27  N   UNL     1     -11.510  16.896  69.137  1.00  0.00     0.202 NA 
HETATM   28  C   UNL     1     -10.742  17.451  68.179  1.00  0.00    -0.343 A  
HETATM   29  C   UNL     1      -9.414  17.147  67.992  1.00  0.00    -0.262 A  
ENDBRANCH  23  24
ENDBRANCH  21  23
ENDBRANCH  14  19
BRANCH  17  30
HETATM   30  N   UNL     1     -12.045   7.443  71.267  1.00  0.00    -0.315 NA 
HETATM   31  C   UNL     1     -10.739   5.468  71.406  1.00  0.00    -0.290 C  
HETATM   32  C   UNL     1     -12.767   6.589  72.183  1.00  0.00    -0.050 C  
HETATM   33  C   UNL     1     -10.953   6.750  70.584  1.00  0.00    -0.267 C  
HETATM   34  C   UNL     1     -11.773   5.485  72.527  1.00  0.00    -0.222 C  
BRANCH  33  35
HETATM   35  C   UNL     1     -11.362   6.434  69.131  1.00  0.00    -0.296 C  
HETATM   36  O   UNL     1     -10.927   7.457  68.231  1.00  0.00    -0.432 OA 
HETATM   37  H   UNL     1     -11.179   7.263  67.336  1.00  0.00     0.000 HD 
ENDBRANCH  33  35
ENDBRANCH  17  30
ENDBRANCH  11  13
ENDBRANCH  10  11
ENDBRANCH   7  10
ENDBRANCH   2   3
TORSDOF 9
ENDMDL
MODEL       15
REMARK 921   NORMALIZED FREE ENERGY PREDICTED BY IDOCK:   -7.09 KCAL/MOL
REMARK 922        TOTAL FREE ENERGY PREDICTED BY IDOCK:  -12.34 KCAL/MOL
REMARK 923 INTER-LIGAND FREE ENERGY PREDICTED BY IDOCK:  -10.91 KCAL/MOL
REMARK 924 INTRA-LIGAND FREE ENERGY PREDICTED BY IDOCK:   -1.43 KCAL/MOL
REMARK 927      BINDING AFFINITY PREDICTED BY RF-SCORE:    0.00 PKD
ROOT
HETATM    1  C   UNL     1     -11.756  15.587  64.265  1.00  0.00    -0.190 C  
HETATM    2  O   UNL     1     -12.610  14.495  64.576  1.00  0.00    -0.644 OA 
ENDROOT
BRANCH   2   3
HETATM    3  C   UNL     1     -12.180  13.623  65.541  1.00  0.00    -0.443 A  
HETATM    4  C   UNL     1     -11.680  12.384  65.110  1.00  0.00    -0.382 A  
HETATM    5 CL   UNL     1     -11.706  11.936  63.438  1.00  0.00    -0.532 Cl 
HETATM    6  C   UNL     1     -11.156  11.462  66.023  1.00  0.00    -0.235 A  
HETATM    7  C   UNL     1     -11.108  11.768  67.390  1.00  0.00    -0.338 A  
HETATM    8  C   UNL     1     -12.157  13.914  66.908  1.00  0.00    -0.467 A  
HETATM    9  C   UNL     1     -11.634  12.992  67.823  1.00  0.00    -0.385 A  
BRANCH   7  10
HETATM   10  C   UNL     1     -10.545  10.776  68.382  1.00  0.00    -0.197 C  
BRANCH  10  11
HETATM   11  N   UNL     1     -11.643  10.299  69.204  1.00  0.00    -0.466 NA 
HETATM   12  H   UNL     1     -12.576  10.708  69.153  1.00  0.00     0.000 HD 
BRANCH  11  13
HETATM   13  C   UNL     1     -11.340   9.236  70.078  1.00  0.00    -0.113 A  
HETATM   14  C   UNL     1     -12.018   9.124  71.281  1.00  0.00    -0.394 A  
HETATM   15  C   UNL     1     -11.686   8.031  72.047  1.00  0.00    -0.323 A  
HETATM   16  N   UNL     1     -10.426   8.310  69.692  1.00  0.00    -0.220 NA 
HETATM   17  C   UNL     1     -10.173   7.258  70.496  1.00  0.00    -0.196 A  
HETATM   18  N   UNL     1     -10.768   7.108  71.687  1.00  0.00    -0.212 NA 
BRANCH  14  19
HETATM   19  C   UNL     1     -13.020  10.076  71.810  1.00  0.00    -0.458 C  
HETATM   20  O   UNL     1     -14.055   9.645  72.306  1.00  0.00    -0.260 OA 
HETATM   21  N   UNL     1     -12.721  11.416  71.750  1.00  0.00    -0.318 N  
HETATM   22  H   UNL     1     -11.816  11.702  71.376  1.00  0.00     0.000 HD 
BRANCH  21  23
HETATM   23  C   UNL     1     -13.650  12.441  72.201  1.00  0.00    -0.306 C  
BRANCH  23  24
HETATM   24  C   UNL     1     -13.041  13.821  72.369  1.00  0.00    -0.422 A  
HETATM   25  N   UNL     1     -12.195  14.238  71.401  1.00  0.00    -0.346 NA 
HETATM   26  C   UNL     1     -11.689  15.479  71.528  1.00  0.00    -0.412 A  
HETATM   27  N   UNL     1     -13.375  14.561  73.452  1.00  0.00    -0.449 NA 
HETATM   28  C   UNL     1     -12.845  15.799  73.519  1.00  0.00    -0.584 A  
HETATM   29  C   UNL     1     -11.987  16.315  72.576  1.00  0.00    -0.648 A  
ENDBRANCH  23  24
ENDBRANCH  21  23
ENDBRANCH  14  19
BRANCH  17  30
HETATM   30  N   UNL     1      -9.276   6.307  70.098  1.00  0.00    -0.156 NA 
HETATM   31  C   UNL     1      -8.679   4.452  68.745  1.00  0.00    -0.120 C  
HETATM   32  C   UNL     1      -7.955   6.624  69.601  1.00  0.00    -0.124 C  
HETATM   33  C   UNL     1      -9.671   4.927  69.818  1.00  0.00    -0.192 C  
HETATM   34  C   UNL     1      -7.723   5.611  68.485  1.00  0.00    -0.089 C  
BRANCH  33  35
HETATM   35  C   UNL     1      -9.566   4.083  71.105  1.00  0.00    -0.171 C  
HETATM   36  O   UNL     1      -8.855   4.780  72.132  1.00  0.00    -0.122 OA 
HETATM   37  H   UNL     1      -8.789   4.260  72.924  1.00  0.00     0.000 HD 
ENDBRANCH  33  35
ENDBRANCH  17  30
ENDBRANCH  11  13
ENDBRANCH  10  11
ENDBRANCH   7  10
ENDBRANCH   2   3
TORSDOF 9
ENDMDL
MODEL       16
REMARK 921   NORMALIZED FREE ENERGY PREDICTED BY IDOCK:   -7.06 KCAL/MOL
REMARK 922        TOTAL FREE ENERGY PREDICTED BY IDOCK:  -12.30 KCAL/MOL
REMARK 923 INTER-LIGAND FREE ENERGY PREDICTED BY IDOCK:  -10.28 KCAL/MOL
REMARK 924 INTRA-LIGAND FREE ENERGY PREDICTED BY IDOCK:   -2.02 KCAL/MOL
REMARK 927      BINDING AFFINITY PREDICTED BY RF-SCORE:    0.00 PKD
ROOT
HETATM    1  C   UNL     1     -10.703   5.317  73.884  1.00  0.00    -0.272 C  
HETATM    2  O   UNL     1     -10.376   6.675  74.146  1.00  0.00    -0.356 OA 
ENDROOT
BRANCH   2   3
HETATM    3  C   UNL     1     -10.659   7.585  73.162  1.00  0.00    -0.388 A  
HETATM    4  C   UNL     1      -9.573   8.239  72.561  1.00  0.00    -0.295 A  
HETATM    5 CL   UNL     1      -7.952   7.985  73.112  1.00  0.00    -0.201 Cl 
HETATM    6  C   UNL     1      -9.768   9.132  71.501  1.00  0.00    -0.313 A  
HETATM    7  C   UNL     1     -11.056   9.378  71.010  1.00  0.00    -0.414 A  
HETATM    8  C   UNL     1     -11.947   7.855  72.690  1.00  0.00    -0.299 A  
HETATM    9  C   UNL     1     -12.143   8.749  71.630  1.00  0.00    -0.401 A  
BRANCH   7  10
HETATM   10  C   UNL     1     -11.274  10.343  69.866  1.00  0.00    -0.306 C  
BRANCH  10  11
HETATM   11  N   UNL     1     -11.332   9.570  68.638  1.00  0.00    -0.464 NA 
HETATM   12  H   UNL     1     -11.662   8.605  68.620  1.00  0.00     0.000 HD 
BRANCH  11  13
HETATM   13  C   UNL     1     -10.906  10.236  67.472  1.00  0.00    -0.298 A  
HETATM   14  C   UNL     1     -10.271   9.521  66.469  1.00  0.00    -0.307 A  
HETATM   15  C   UNL     1      -9.931  10.246  65.351  1.00  0.00    -0.302 A  
HETATM   16  N   UNL     1     -11.180  11.558  67.335  1.00  0.00    -0.290 NA 
HETATM   17  C   UNL     1     -10.827  12.189  66.197  1.00  0.00    -0.282 A  
HETATM   18  N   UNL     1     -10.181  11.566  65.203  1.00  0.00    -0.260 NA 
BRANCH  14  19
HETATM   19  C   UNL     1      -9.911   8.086  66.513  1.00  0.00    -0.219 C  
HETATM   20  O   UNL     1      -8.742   7.755  66.350  1.00  0.00    -0.135 OA 
HETATM   21  N   UNL     1     -10.915   7.185  66.773  1.00  0.00    -0.561 N  
HETATM   22  H   UNL     1     -11.856   7.535  66.955  1.00  0.00     0.000 HD 
BRANCH  21  23
HETATM   23  C   UNL     1     -10.683   5.749  66.797  1.00  0.00    -0.297 C  
BRANCH  23  24
HETATM   24  C   UNL     1     -10.324   5.186  68.161  1.00  0.00    -0.071 A  
HETATM   25  N   UNL     1      -9.535   4.089  68.181  1.00  0.00    -0.165 NA 
HETATM   26  C   UNL     1      -9.181   3.616  69.391  1.00  0.00    -0.155 A  
HETATM   27  N   UNL     1     -10.791   5.803  69.271  1.00  0.00    -0.320 NA 
HETATM   28  C   UNL     1     -10.395   5.289  70.453  1.00  0.00    -0.275 A  
HETATM   29  C   UNL     1      -9.583   4.186  70.574  1.00  0.00    -0.261 A  
ENDBRANCH  23  24
ENDBRANCH  21  23
ENDBRANCH  14  19
BRANCH  17  30
HETATM   30  N   UNL     1     -11.127  13.514  66.041  1.00  0.00    -0.292 NA 
HETATM   31  C   UNL     1     -10.497  15.737  65.505  1.00  0.00    -0.425 C  
HETATM   32  C   UNL     1     -12.171  13.990  65.162  1.00  0.00    -0.436 C  
HETATM   33  C   UNL     1     -10.222  14.577  66.476  1.00  0.00    -0.279 C  
HETATM   34  C   UNL     1     -11.599  15.269  64.561  1.00  0.00    -0.312 C  
BRANCH  33  35
HETATM   35  C   UNL     1     -10.537  14.968  67.934  1.00  0.00    -0.259 C  
HETATM   36  O   UNL     1      -9.905  14.082  68.862  1.00  0.00    -0.365 OA 
HETATM   37  H   UNL     1     -10.099  14.323  69.760  1.00  0.00     0.000 HD 
ENDBRANCH  33  35
ENDBRANCH  17  30
ENDBRANCH  11  13
ENDBRANCH  10  11
ENDBRANCH   7  10
ENDBRANCH   2   3
TORSDOF 9
ENDMDL
MODEL       17
REMARK 921   NORMALIZED FREE ENERGY PREDICTED BY IDOCK:   -7.05 KCAL/MOL
REMARK 922        TOTAL FREE ENERGY PREDICTED BY IDOCK:  -12.28 KCAL/MOL
REMARK 923 INTER-LIGAND FREE ENERGY PREDICTED BY IDOCK:  -10.27 KCAL/MOL
REMARK 924 INTRA-LIGAND FREE ENERGY PREDICTED BY IDOCK:   -2.02 KCAL/MOL
REMARK 927      BINDING AFFINITY PREDICTED BY RF-SCORE:    0.00 PKD
ROOT
HETATM    1  C   UNL     1     -12.057  16.277  72.219  1.00  0.00    -0.486 C  
HETATM    2  O   UNL     1     -12.935  15.670  71.282  1.00  0.00    -0.474 OA 
ENDROOT
BRANCH   2   3
HETATM    3  C   UNL     1     -12.906  14.303  71.196  1.00  0.00    -0.359 A  
HETATM    4  C   UNL     1     -12.182  13.742  70.132  1.00  0.00    -0.356 A  
HETATM    5 CL   UNL     1     -11.448  14.735  68.920  1.00  0.00    -0.302 Cl 
HETATM    6  C   UNL     1     -12.044  12.354  70.010  1.00  0.00    -0.335 A  
HETATM    7  C   UNL     1     -12.615  11.498  70.960  1.00  0.00    -0.457 A  
HETATM    8  C   UNL     1     -13.500  13.446  72.127  1.00  0.00    -0.646 A  
HETATM    9  C   UNL     1     -13.362  12.057  72.004  1.00  0.00    -0.447 A  
BRANCH   7  10
HETATM   10  C   UNL     1     -12.470   9.998  70.832  1.00  0.00    -0.337 C  
BRANCH  10  11
HETATM   11  N   UNL     1     -11.704   9.727  69.628  1.00  0.00    -0.451 NA 
HETATM   12  H   UNL     1     -12.015  10.036  68.707  1.00  0.00     0.000 HD 
BRANCH  11  13
HETATM   13  C   UNL     1     -10.505   9.011  69.811  1.00  0.00    -0.218 A  
HETATM   14  C   UNL     1      -9.700   8.734  68.718  1.00  0.00    -0.171 A  
HETATM   15  C   UNL     1      -8.529   8.069  69.000  1.00  0.00    -0.130 A  
HETATM   16  N   UNL     1     -10.138   8.657  71.068  1.00  0.00    -0.201 NA 
HETATM   17  C   UNL     1      -8.964   8.023  71.259  1.00  0.00    -0.139 A  
HETATM   18  N   UNL     1      -8.155   7.695  70.243  1.00  0.00    -0.112 NA 
BRANCH  14  19
HETATM   19  C   UNL     1     -10.002   9.058  67.306  1.00  0.00    -0.216 C  
HETATM   20  O   UNL     1     -10.274   8.152  66.526  1.00  0.00    -0.279 OA 
HETATM   21  N   UNL     1      -9.997  10.383  66.941  1.00  0.00    -0.198 N  
HETATM   22  H   UNL     1      -9.818  11.090  67.655  1.00  0.00     0.000 HD 
BRANCH  21  23
HETATM   23  C   UNL     1     -10.237  10.813  65.572  1.00  0.00    -0.266 C  
BRANCH  23  24
HETATM   24  C   UNL     1     -10.882  12.182  65.440  1.00  0.00    -0.294 A  
HETATM   25  N   UNL     1     -10.118  13.169  64.920  1.00  0.00    -0.257 NA 
HETATM   26  C   UNL     1     -10.704  14.371  64.762  1.00  0.00    -0.403 A  
HETATM   27  N   UNL     1     -12.167  12.344  65.828  1.00  0.00    -0.638 NA 
HETATM   28  C   UNL     1     -12.701  13.567  65.637  1.00  0.00    -0.421 A  
HETATM   29  C   UNL     1     -12.008  14.628  65.103  1.00  0.00    -0.334 A  
ENDBRANCH  23  24
ENDBRANCH  21  23
ENDBRANCH  14  19
BRANCH  17  30
HETATM   30  N   UNL     1      -8.576   7.691  72.527  1.00  0.00    -0.116 NA 
HETATM   31  C   UNL     1      -8.041   6.075  74.179  1.00  0.00    -0.102 C  
HETATM   32  C   UNL     1      -7.355   8.174  73.132  1.00  0.00    -0.124 C  
HETATM   33  C   UNL     1      -9.168   6.571  73.258  1.00  0.00    -0.128 C  
HETATM   34  C   UNL     1      -6.842   6.986  73.938  1.00  0.00    -0.077 C  
BRANCH  33  35
HETATM   35  C   UNL     1     -10.388   7.060  74.064  1.00  0.00    -0.273 C  
HETATM   36  O   UNL     1     -11.544   7.197  73.232  1.00  0.00    -0.524 OA 
HETATM   37  H   UNL     1     -12.296   7.498  73.728  1.00  0.00     0.000 HD 
ENDBRANCH  33  35
ENDBRANCH  17  30
ENDBRANCH  11  13
ENDBRANCH  10  11
ENDBRANCH   7  10
ENDBRANCH   2   3
TORSDOF 9
ENDMDL
MODEL       18
REMARK 921   NORMALIZED FREE ENERGY PREDICTED BY IDOCK:   -7.02 KCAL/MOL
REMARK 922        TOTAL FREE ENERGY PREDICTED BY IDOCK:  -12.25 KCAL/MOL
REMARK 923 INTER-LIGAND FREE ENERGY PREDICTED BY IDOCK:  -10.80 KCAL/MOL
REMARK 924 INTRA-LIGAND FREE ENERGY PREDICTED BY IDOCK:   -1.45 KCAL/MOL
REMARK 927      BINDING AFFINITY PREDICTED BY RF-SCORE:    0.00 PKD
ROOT
HETATM    1  C   UNL     1     -11.121   5.469  73.094  1.00  0.00    -0.287 C  
HETATM    2  O   UNL     1     -12.137   5.974  72.239  1.00  0.00    -0.301 OA 
ENDROOT
BRANCH   2   3
HETATM    3  C   UNL     1     -11.981   7.254  71.775  1.00  0.00    -0.307 A  
HETATM    4  C   UNL     1     -11.274   7.420  70.574  1.00  0.00    -0.274 A  
HETATM    5 CL   UNL     1     -10.538   6.075  69.770  1.00  0.00    -0.321 Cl 
HETATM    6  C   UNL     1     -11.129   8.685  69.994  1.00  0.00    -0.161 A  
HETATM    7  C   UNL     1     -11.703   9.812  70.597  1.00  0.00    -0.377 A  
HETATM    8  C   UNL     1     -12.528   8.383  72.391  1.00  0.00    -0.390 A  
HETATM    9  C   UNL     1     -12.382   9.650  71.811  1.00  0.00    -0.474 A  
BRANCH   7  10
HETATM   10  C   UNL     1     -11.548  11.182  69.976  1.00  0.00    -0.338 C  
BRANCH  10  11
HETATM   11  N   UNL     1     -12.162  11.145  68.661  1.00  0.00    -0.705 NA 
HETATM   12  H   UNL     1     -13.165  11.007  68.534  1.00  0.00     0.000 HD 
BRANCH  11  13
HETATM   13  C   UNL     1     -11.287  11.312  67.569  1.00  0.00    -0.288 A  
HETATM   14  C   UNL     1     -11.084  12.578  67.042  1.00  0.00    -0.326 A  
HETATM   15  C   UNL     1     -10.181  12.650  66.008  1.00  0.00    -0.272 A  
HETATM   16  N   UNL     1     -10.617  10.232  67.095  1.00  0.00    -0.261 NA 
HETATM   17  C   UNL     1      -9.734  10.394  66.089  1.00  0.00    -0.209 A  
HETATM   18  N   UNL     1      -9.516  11.583  65.512  1.00  0.00    -0.225 NA 
BRANCH  14  19
HETATM   19  C   UNL     1     -11.766  13.821  67.468  1.00  0.00    -0.375 C  
HETATM   20  O   UNL     1     -12.599  14.334  66.730  1.00  0.00    -0.276 OA 
HETATM   21  N   UNL     1     -11.451  14.328  68.706  1.00  0.00    -0.277 N  
HETATM   22  H   UNL     1     -10.790  13.818  69.294  1.00  0.00     0.000 HD 
BRANCH  21  23
HETATM   23  C   UNL     1     -12.027  15.566  69.209  1.00  0.00    -0.316 C  
BRANCH  23  24
HETATM   24  C   UNL     1     -12.455  15.523  70.665  1.00  0.00    -0.435 A  
HETATM   25  N   UNL     1     -13.783  15.462  70.910  1.00  0.00    -0.456 NA 
HETATM   26  C   UNL     1     -14.160  15.379  72.200  1.00  0.00    -0.553 A  
HETATM   27  N   UNL     1     -11.507  15.535  71.630  1.00  0.00    -0.406 NA 
HETATM   28  C   UNL     1     -11.945  15.440  72.901  1.00  0.00    -0.448 A  
HETATM   29  C   UNL     1     -13.274  15.360  73.248  1.00  0.00    -0.612 A  
ENDBRANCH  23  24
ENDBRANCH  21  23
ENDBRANCH  14  19
BRANCH  17  30
HETATM   30  N   UNL     1      -9.034   9.314  65.628  1.00  0.00    -0.185 NA 
HETATM   31  C   UNL     1      -6.987   8.195  65.199  1.00  0.00    -0.063 C  
HETATM   32  C   UNL     1      -9.240   7.970  66.118  1.00  0.00    -0.163 C  
HETATM   33  C   UNL     1      -7.800   9.454  64.856  1.00  0.00    -0.117 C  
HETATM   34  C   UNL     1      -7.840   7.366  66.152  1.00  0.00    -0.107 C  
BRANCH  33  35
HETATM   35  C   UNL     1      -8.131   9.526  63.351  1.00  0.00    -0.149 C  
HETATM   36  O   UNL     1      -8.156  10.877  62.884  1.00  0.00    -0.342 OA 
HETATM   37  H   UNL     1      -8.359  10.922  61.957  1.00  0.00     0.000 HD 
ENDBRANCH  33  35
ENDBRANCH  17  30
ENDBRANCH  11  13
ENDBRANCH  10  11
ENDBRANCH   7  10
ENDBRANCH   2   3
TORSDOF 9
ENDMDL
MODEL       19
REMARK 921   NORMALIZED FREE ENERGY PREDICTED BY IDOCK:   -7.01 KCAL/MOL
REMARK 922        TOTAL FREE ENERGY PREDICTED BY IDOCK:  -12.22 KCAL/MOL
REMARK 923 INTER-LIGAND FREE ENERGY PREDICTED BY IDOCK:  -10.39 KCAL/MOL
REMARK 924 INTRA-LIGAND FREE ENERGY PREDICTED BY IDOCK:   -1.83 KCAL/MOL
REMARK 927      BINDING AFFINITY PREDICTED BY RF-SCORE:    0.00 PKD
ROOT
HETATM    1  C   UNL     1     -12.529  13.512  63.619  1.00  0.00    -0.207 C  
HETATM    2  O   UNL     1     -12.815  13.424  65.008  1.00  0.00    -0.685 OA 
ENDROOT
BRANCH   2   3
HETATM    3  C   UNL     1     -11.877  12.817  65.800  1.00  0.00    -0.434 A  
HETATM    4  C   UNL     1     -11.393  13.547  66.897  1.00  0.00    -0.326 A  
HETATM    5 CL   UNL     1     -11.882  15.184  67.174  1.00  0.00    -0.162 Cl 
HETATM    6  C   UNL     1     -10.486  12.977  67.796  1.00  0.00    -0.232 A  
HETATM    7  C   UNL     1     -10.054  11.655  67.626  1.00  0.00    -0.204 A  
HETATM    8  C   UNL     1     -11.422  11.508  65.615  1.00  0.00    -0.074 A  
HETATM    9  C   UNL     1     -10.513  10.937  66.514  1.00  0.00    -0.308 A  
BRANCH   7  10
HETATM   10  C   UNL     1      -9.071  11.034  68.593  1.00  0.00    -0.174 C  
BRANCH  10  11
HETATM   11  N   UNL     1      -9.831  10.459  69.689  1.00  0.00    -0.377 NA 
HETATM   12  H   UNL     1     -10.181  11.026  70.462  1.00  0.00     0.000 HD 
BRANCH  11  13
HETATM   13  C   UNL     1     -10.055   9.070  69.619  1.00  0.00    -0.197 A  
HETATM   14  C   UNL     1     -11.014   8.490  70.434  1.00  0.00    -0.254 A  
HETATM   15  C   UNL     1     -11.192   7.137  70.266  1.00  0.00    -0.276 A  
HETATM   16  N   UNL     1      -9.362   8.339  68.711  1.00  0.00    -0.144 NA 
HETATM   17  C   UNL     1      -9.612   7.019  68.598  1.00  0.00    -0.138 A  
HETATM   18  N   UNL     1     -10.500   6.389  69.377  1.00  0.00    -0.207 NA 
BRANCH  14  19
HETATM   19  C   UNL     1     -11.818   9.182  71.466  1.00  0.00    -0.358 C  
HETATM   20  O   UNL     1     -11.973   8.654  72.562  1.00  0.00    -0.368 OA 
HETATM   21  N   UNL     1     -12.331  10.417  71.152  1.00  0.00    -0.364 N  
HETATM   22  H   UNL     1     -12.116  10.823  70.240  1.00  0.00     0.000 HD 
BRANCH  21  23
HETATM   23  C   UNL     1     -13.171  11.168  72.073  1.00  0.00    -0.323 C  
BRANCH  23  24
HETATM   24  C   UNL     1     -13.246  12.658  71.794  1.00  0.00    -0.359 A  
HETATM   25  N   UNL     1     -12.517  13.123  70.755  1.00  0.00    -0.339 NA 
HETATM   26  C   UNL     1     -12.619  14.437  70.481  1.00  0.00    -0.353 A  
HETATM   27  N   UNL     1     -14.033  13.435  72.574  1.00  0.00    -0.751 NA 
HETATM   28  C   UNL     1     -14.101  14.740  72.245  1.00  0.00    -0.488 A  
HETATM   29  C   UNL     1     -13.408  15.302  71.198  1.00  0.00    -0.568 A  
ENDBRANCH  23  24
ENDBRANCH  21  23
ENDBRANCH  14  19
BRANCH  17  30
HETATM   30  N   UNL     1      -8.938   6.284  67.663  1.00  0.00    -0.117 NA 
HETATM   31  C   UNL     1      -8.235   5.908  65.429  1.00  0.00    -0.139 C  
HETATM   32  C   UNL     1      -7.530   5.970  67.768  1.00  0.00    -0.085 C  
HETATM   33  C   UNL     1      -9.476   6.035  66.326  1.00  0.00    -0.127 C  
HETATM   34  C   UNL     1      -7.018   6.064  66.335  1.00  0.00    -0.067 C  
BRANCH  33  35
HETATM   35  C   UNL     1     -10.311   4.738  66.332  1.00  0.00    -0.273 C  
HETATM   36  O   UNL     1     -11.491   4.871  65.535  1.00  0.00    -0.914 OA 
HETATM   37  H   UNL     1     -12.005   4.073  65.538  1.00  0.00     0.000 HD 
ENDBRANCH  33  35
ENDBRANCH  17  30
ENDBRANCH  11  13
ENDBRANCH  10  11
ENDBRANCH   7  10
ENDBRANCH   2   3
TORSDOF 9
ENDMDL
MODEL       20
REMARK 921   NORMALIZED FREE ENERGY PREDICTED BY IDOCK:   -6.99 KCAL/MOL
REMARK 922        TOTAL FREE ENERGY PREDICTED BY IDOCK:  -12.20 KCAL/MOL
REMARK 923 INTER-LIGAND FREE ENERGY PREDICTED BY IDOCK:  -10.58 KCAL/MOL
REMARK 924 INTRA-LIGAND FREE ENERGY PREDICTED BY IDOCK:   -1.63 KCAL/MOL
REMARK 927      BINDING AFFINITY PREDICTED BY RF-SCORE:    0.00 PKD
ROOT
HETATM    1  C   UNL     1      -9.581   3.493  69.957  1.00  0.00    -0.156 C  
HETATM    2  O   UNL     1      -9.652   3.861  68.587  1.00  0.00    -0.159 OA 
ENDROOT
BRANCH   2   3
HETATM    3  C   UNL     1      -9.821   5.192  68.308  1.00  0.00    -0.156 A  
HETATM    4  C   UNL     1     -10.283   5.524  67.024  1.00  0.00    -0.224 A  
HETATM    5 CL   UNL     1     -10.525   4.312  65.813  1.00  0.00    -0.193 Cl 
HETATM    6  C   UNL     1     -10.550   6.854  66.678  1.00  0.00    -0.197 A  
HETATM    7  C   UNL     1     -10.374   7.880  67.616  1.00  0.00    -0.307 A  
HETATM    8  C   UNL     1      -9.619   6.220  69.233  1.00  0.00    -0.147 A  
HETATM    9  C   UNL     1      -9.885   7.551  68.887  1.00  0.00    -0.159 A  
BRANCH   7  10
HETATM   10  C   UNL     1     -10.658   9.319  67.248  1.00  0.00    -0.233 C  
BRANCH  10  11
HETATM   11  N   UNL     1     -11.585   9.853  68.230  1.00  0.00    -0.543 NA 
HETATM   12  H   UNL     1     -12.223   9.255  68.755  1.00  0.00     0.000 HD 
BRANCH  11  13
HETATM   13  C   UNL     1     -11.549  11.250  68.412  1.00  0.00    -0.308 A  
HETATM   14  C   UNL     1     -11.914  11.790  69.635  1.00  0.00    -0.378 A  
HETATM   15  C   UNL     1     -11.806  13.157  69.733  1.00  0.00    -0.316 A  
HETATM   16  N   UNL     1     -11.102  12.032  67.398  1.00  0.00    -0.263 NA 
HETATM   17  C   UNL     1     -11.009  13.364  67.584  1.00  0.00    -0.259 A  
HETATM   18  N   UNL     1     -11.377  13.954  68.729  1.00  0.00    -0.259 NA 
BRANCH  14  19
HETATM   19  C   UNL     1     -12.427  11.039  70.803  1.00  0.00    -0.396 C  
HETATM   20  O   UNL     1     -13.135  11.613  71.622  1.00  0.00    -0.445 OA 
HETATM   21  N   UNL     1     -12.107   9.706  70.894  1.00  0.00    -0.327 N  
HETATM   22  H   UNL     1     -11.560   9.278  70.147  1.00  0.00     0.000 HD 
BRANCH  21  23
HETATM   23  C   UNL     1     -12.521   8.883  72.021  1.00  0.00    -0.392 C  
BRANCH  23  24
HETATM   24  C   UNL     1     -11.580   7.738  72.351  1.00  0.00    -0.356 A  
HETATM   25  N   UNL     1     -12.065   6.485  72.201  1.00  0.00    -0.300 NA 
HETATM   26  C   UNL     1     -11.217   5.470  72.451  1.00  0.00    -0.247 A  
HETATM   27  N   UNL     1     -10.320   8.017  72.759  1.00  0.00    -0.323 NA 
HETATM   28  C   UNL     1      -9.515   6.960  72.984  1.00  0.00    -0.145 A  
HETATM   29  C   UNL     1      -9.915   5.651  72.846  1.00  0.00    -0.196 A  
ENDBRANCH  23  24
ENDBRANCH  21  23
ENDBRANCH  14  19
BRANCH  17  30
HETATM   30  N   UNL     1     -10.530  14.153  66.576  1.00  0.00    -0.277 NA 
HETATM   31  C   UNL     1     -10.717  16.037  65.147  1.00  0.00    -0.429 C  
HETATM   32  C   UNL     1      -9.223  14.769  66.606  1.00  0.00    -0.275 C  
HETATM   33  C   UNL     1     -11.400  14.719  65.546  1.00  0.00    -0.343 C  
HETATM   34  C   UNL     1      -9.439  16.139  65.973  1.00  0.00    -0.374 C  
BRANCH  33  35
HETATM   35  C   UNL     1     -11.500  13.745  64.354  1.00  0.00    -0.372 C  
HETATM   36  O   UNL     1     -12.435  14.209  63.376  1.00  0.00    -1.122 OA 
HETATM   37  H   UNL     1     -12.497  13.610  62.641  1.00  0.00     0.000 HD 
ENDBRANCH  33  35
ENDBRANCH  17  30
ENDBRANCH  11  13
ENDBRANCH  10  11
ENDBRANCH   7  10
ENDBRANCH   2   3
TORSDOF 9
ENDMDL
MODEL       21
REMARK 921   NORMALIZED FREE ENERGY PREDICTED BY IDOCK:   -6.92 KCAL/MOL
REMARK 922        TOTAL FREE ENERGY PREDICTED BY IDOCK:  -12.10 KCAL/MOL
REMARK 923 INTER-LIGAND FREE ENERGY PREDICTED BY IDOCK:  -10.20 KCAL/MOL
REMARK 924 INTRA-LIGAND FREE ENERGY PREDICTED BY IDOCK:   -1.90 KCAL/MOL
REMARK 927      BINDING AFFINITY PREDICTED BY RF-SCORE:    0.00 PKD
ROOT
HETATM    1  C   UNL     1     -12.506  15.742  74.452  1.00  0.00    -0.638 C  
HETATM    2  O   UNL     1     -12.957  14.716  73.579  1.00  0.00    -0.540 OA 
ENDROOT
BRANCH   2   3
HETATM    3  C   UNL     1     -12.530  14.772  72.279  1.00  0.00    -0.327 A  
HETATM    4  C   UNL     1     -12.837  13.678  71.454  1.00  0.00    -0.360 A  
HETATM    5 CL   UNL     1     -13.625  12.271  72.082  1.00  0.00    -0.493 Cl 
HETATM    6  C   UNL     1     -12.500  13.685  70.096  1.00  0.00    -0.305 A  
HETATM    7  C   UNL     1     -11.861  14.795  69.529  1.00  0.00    -0.366 A  
HETATM    8  C   UNL     1     -11.867  15.867  71.718  1.00  0.00    -0.579 A  
HETATM    9  C   UNL     1     -11.528  15.874  70.359  1.00  0.00    -0.393 A  
BRANCH   7  10
HETATM   10  C   UNL     1     -11.492  14.808  68.063  1.00  0.00    -0.331 C  
BRANCH  10  11
HETATM   11  N   UNL     1     -10.406  13.862  67.870  1.00  0.00    -0.236 NA 
HETATM   12  H   UNL     1     -10.572  12.862  67.759  1.00  0.00     0.000 HD 
BRANCH  11  13
HETATM   13  C   UNL     1      -9.110  14.412  67.846  1.00  0.00    -0.187 A  
HETATM   14  C   UNL     1      -8.010  13.570  67.805  1.00  0.00    -0.168 A  
HETATM   15  C   UNL     1      -6.788  14.196  67.740  1.00  0.00    -0.176 A  
HETATM   16  N   UNL     1      -8.970  15.761  67.806  1.00  0.00    -0.176 NA 
HETATM   17  C   UNL     1      -7.735  16.293  67.724  1.00  0.00    -0.142 A  
HETATM   18  N   UNL     1      -6.628  15.538  67.715  1.00  0.00    -0.145 NA 
BRANCH  14  19
HETATM   19  C   UNL     1      -8.040  12.091  67.857  1.00  0.00    -0.150 C  
HETATM   20  O   UNL     1      -7.561  11.447  66.930  1.00  0.00    -0.139 OA 
HETATM   21  N   UNL     1      -8.582  11.503  68.975  1.00  0.00    -0.375 N  
HETATM   22  H   UNL     1      -8.911  12.099  69.734  1.00  0.00     0.000 HD 
BRANCH  21  23
HETATM   23  C   UNL     1      -8.702  10.059  69.113  1.00  0.00    -0.167 C  
BRANCH  23  24
HETATM   24  C   UNL     1      -9.664   9.602  70.195  1.00  0.00    -0.254 A  
HETATM   25  N   UNL     1     -10.911  10.122  70.162  1.00  0.00    -0.295 NA 
HETATM   26  C   UNL     1     -11.778   9.684  71.095  1.00  0.00    -0.372 A  
HETATM   27  N   UNL     1      -9.242   8.705  71.115  1.00  0.00    -0.192 NA 
HETATM   28  C   UNL     1     -10.157   8.296  72.017  1.00  0.00    -0.261 A  
HETATM   29  C   UNL     1     -11.452   8.758  72.054  1.00  0.00    -0.441 A  
ENDBRANCH  23  24
ENDBRANCH  21  23
ENDBRANCH  14  19
BRANCH  17  30
HETATM   30  N   UNL     1      -7.590  17.651  67.653  1.00  0.00    -0.201 NA 
HETATM   31  C   UNL     1      -7.622  19.798  68.660  1.00  0.00    -0.319 C  
HETATM   32  C   UNL     1      -6.382  18.294  67.186  1.00  0.00    -0.173 C  
HETATM   33  C   UNL     1      -8.492  18.571  68.344  1.00  0.00    -0.328 C  
HETATM   34  C   UNL     1      -6.238  19.516  68.086  1.00  0.00    -0.253 C  
BRANCH  33  35
HETATM   35  C   UNL     1      -9.676  18.933  67.424  1.00  0.00    -0.312 C  
HETATM   36  O   UNL     1     -10.744  17.990  67.550  1.00  0.00    -0.404 OA 
HETATM   37  H   UNL     1     -11.473  18.213  66.983  1.00  0.00     0.000 HD 
ENDBRANCH  33  35
ENDBRANCH  17  30
ENDBRANCH  11  13
ENDBRANCH  10  11
ENDBRANCH   7  10
ENDBRANCH   2   3
TORSDOF 9
ENDMDL
MODEL       22
REMARK 921   NORMALIZED FREE ENERGY PREDICTED BY IDOCK:   -6.91 KCAL/MOL
REMARK 922        TOTAL FREE ENERGY PREDICTED BY IDOCK:  -12.08 KCAL/MOL
REMARK 923 INTER-LIGAND FREE ENERGY PREDICTED BY IDOCK:  -10.46 KCAL/MOL
REMARK 924 INTRA-LIGAND FREE ENERGY PREDICTED BY IDOCK:   -1.62 KCAL/MOL
REMARK 927      BINDING AFFINITY PREDICTED BY RF-SCORE:    0.00 PKD
ROOT
HETATM    1  C   UNL     1      -7.502   9.358  63.723  1.00  0.00    -0.112 C  
HETATM    2  O   UNL     1      -8.892   9.348  63.430  1.00  0.00    -0.225 OA 
ENDROOT
BRANCH   2   3
HETATM    3  C   UNL     1      -9.631  10.410  63.880  1.00  0.00    -0.312 A  
HETATM    4  C   UNL     1     -10.142  10.331  65.185  1.00  0.00    -0.285 A  
HETATM    5 CL   UNL     1      -9.938   8.905  66.146  1.00  0.00    -0.348 Cl 
HETATM    6  C   UNL     1     -10.848  11.400  65.747  1.00  0.00    -0.290 A  
HETATM    7  C   UNL     1     -11.045  12.580  65.019  1.00  0.00    -0.335 A  
HETATM    8  C   UNL     1      -9.854  11.578  63.145  1.00  0.00    -0.413 A  
HETATM    9  C   UNL     1     -10.561  12.648  63.706  1.00  0.00    -0.432 A  
BRANCH   7  10
HETATM   10  C   UNL     1     -11.809  13.739  65.621  1.00  0.00    -0.365 C  
BRANCH  10  11
HETATM   11  N   UNL     1     -11.619  13.697  67.060  1.00  0.00    -0.340 NA 
HETATM   12  H   UNL     1     -12.206  13.126  67.668  1.00  0.00     0.000 HD 
BRANCH  11  13
HETATM   13  C   UNL     1     -10.573  14.494  67.565  1.00  0.00    -0.262 A  
HETATM   14  C   UNL     1      -9.511  13.894  68.222  1.00  0.00    -0.217 A  
HETATM   15  C   UNL     1      -8.517  14.747  68.641  1.00  0.00    -0.167 A  
HETATM   16  N   UNL     1     -10.603  15.832  67.344  1.00  0.00    -0.308 NA 
HETATM   17  C   UNL     1      -9.578  16.595  67.773  1.00  0.00    -0.236 A  
HETATM   18  N   UNL     1      -8.538  16.084  68.444  1.00  0.00    -0.178 NA 
BRANCH  14  19
HETATM   19  C   UNL     1      -9.377  12.452  68.531  1.00  0.00    -0.088 C  
HETATM   20  O   UNL     1      -8.370  11.852  68.173  1.00  0.00    -0.146 OA 
HETATM   21  N   UNL     1     -10.389  11.857  69.245  1.00  0.00    -0.421 N  
HETATM   22  H   UNL     1     -11.172  12.429  69.561  1.00  0.00     0.000 HD 
BRANCH  21  23
HETATM   23  C   UNL     1     -10.382  10.438  69.567  1.00  0.00    -0.237 C  
BRANCH  23  24
HETATM   24  C   UNL     1     -11.461  10.002  70.542  1.00  0.00    -0.330 A  
HETATM   25  N   UNL     1     -12.298  10.961  70.996  1.00  0.00    -0.377 NA 
HETATM   26  C   UNL     1     -13.281  10.567  71.827  1.00  0.00    -0.417 A  
HETATM   27  N   UNL     1     -11.541   8.698  70.896  1.00  0.00    -0.278 NA 
HETATM   28  C   UNL     1     -12.552   8.363  71.722  1.00  0.00    -0.342 A  
HETATM   29  C   UNL     1     -13.460   9.265  72.224  1.00  0.00    -0.548 A  
ENDBRANCH  23  24
ENDBRANCH  21  23
ENDBRANCH  14  19
BRANCH  17  30
HETATM   30  N   UNL     1      -9.589  17.939  67.526  1.00  0.00    -0.265 NA 
HETATM   31  C   UNL     1      -9.243  19.789  66.081  1.00  0.00    -0.418 C  
HETATM   32  C   UNL     1     -10.763  18.765  67.698  1.00  0.00    -0.385 C  
HETATM   33  C   UNL     1      -8.537  18.602  66.757  1.00  0.00    -0.288 C  
HETATM   34  C   UNL     1     -10.697  19.755  66.540  1.00  0.00    -0.508 C  
BRANCH  33  35
HETATM   35  C   UNL     1      -7.415  19.073  67.705  1.00  0.00    -0.246 C  
HETATM   36  O   UNL     1      -7.894  19.238  69.042  1.00  0.00    -0.342 OA 
HETATM   37  H   UNL     1      -7.203  19.528  69.627  1.00  0.00     0.000 HD 
ENDBRANCH  33  35
ENDBRANCH  17  30
ENDBRANCH  11  13
ENDBRANCH  10  11
ENDBRANCH   7  10
ENDBRANCH   2   3
TORSDOF 9
ENDMDL
MODEL       23
REMARK 921   NORMALIZED FREE ENERGY PREDICTED BY IDOCK:   -6.87 KCAL/MOL
REMARK 922        TOTAL FREE ENERGY PREDICTED BY IDOCK:  -12.02 KCAL/MOL
REMARK 923 INTER-LIGAND FREE ENERGY PREDICTED BY IDOCK:  -10.07 KCAL/MOL
REMARK 924 INTRA-LIGAND FREE ENERGY PREDICTED BY IDOCK:   -1.95 KCAL/MOL
REMARK 927      BINDING AFFINITY PREDICTED BY RF-SCORE:    0.00 PKD
ROOT
HETATM    1  C   UNL     1     -10.696   5.052  74.094  1.00  0.00    -0.242 C  
HETATM    2  O   UNL     1     -10.504   6.444  74.302  1.00  0.00    -0.322 OA 
ENDROOT
BRANCH   2   3
HETATM    3  C   UNL     1     -10.644   7.262  73.212  1.00  0.00    -0.382 A  
HETATM    4  C   UNL     1      -9.540   8.053  72.857  1.00  0.00    -0.279 A  
HETATM    5 CL   UNL     1      -8.101   8.073  73.819  1.00  0.00    -0.255 Cl 
HETATM    6  C   UNL     1      -9.573   8.864  71.718  1.00  0.00    -0.353 A  
HETATM    7  C   UNL     1     -10.709   8.890  70.899  1.00  0.00    -0.292 A  
HETATM    8  C   UNL     1     -11.787   7.312  72.410  1.00  0.00    -0.247 A  
HETATM    9  C   UNL     1     -11.822   8.124  71.270  1.00  0.00    -0.317 A  
BRANCH   7  10
HETATM   10  C   UNL     1     -10.752   9.767  69.667  1.00  0.00    -0.242 C  
BRANCH  10  11
HETATM   11  N   UNL     1     -10.893   8.900  68.510  1.00  0.00    -0.442 NA 
HETATM   12  H   UNL     1     -11.227   7.940  68.590  1.00  0.00     0.000 HD 
BRANCH  11  13
HETATM   13  C   UNL     1     -10.537   9.467  67.271  1.00  0.00    -0.248 A  
HETATM   14  C   UNL     1      -9.869   8.698  66.332  1.00  0.00    -0.341 A  
HETATM   15  C   UNL     1      -9.602   9.322  65.137  1.00  0.00    -0.033 A  
HETATM   16  N   UNL     1     -10.911  10.744  67.003  1.00  0.00    -0.267 NA 
HETATM   17  C   UNL     1     -10.626  11.274  65.797  1.00  0.00    -0.248 A  
HETATM   18  N   UNL     1      -9.952  10.597  64.858  1.00  0.00    -0.295 NA 
BRANCH  14  19
HETATM   19  C   UNL     1      -9.402   7.305  66.517  1.00  0.00    -0.170 C  
HETATM   20  O   UNL     1      -8.206   7.088  66.675  1.00  0.00    -0.107 OA 
HETATM   21  N   UNL     1     -10.351   6.312  66.537  1.00  0.00    -0.413 N  
HETATM   22  H   UNL     1     -11.336   6.569  66.456  1.00  0.00     0.000 HD 
BRANCH  21  23
HETATM   23  C   UNL     1     -10.003   4.905  66.669  1.00  0.00    -0.229 C  
BRANCH  23  24
HETATM   24  C   UNL     1      -9.802   4.432  68.098  1.00  0.00    -0.066 A  
HETATM   25  N   UNL     1     -10.244   5.249  69.080  1.00  0.00    -0.216 NA 
HETATM   26  C   UNL     1     -10.106   4.809  70.345  1.00  0.00    -0.231 A  
HETATM   27  N   UNL     1      -9.215   3.233  68.318  1.00  0.00    -0.168 NA 
HETATM   28  C   UNL     1      -9.114   2.843  69.604  1.00  0.00    -0.129 A  
HETATM   29  C   UNL     1      -9.546   3.598  70.669  1.00  0.00    -0.254 A  
ENDBRANCH  23  24
ENDBRANCH  21  23
ENDBRANCH  14  19
BRANCH  17  30
HETATM   30  N   UNL     1     -11.026  12.550  65.511  1.00  0.00    -0.279 NA 
HETATM   31  C   UNL     1     -12.681  14.249  65.480  1.00  0.00    -0.399 C  
HETATM   32  C   UNL     1     -10.358  13.723  66.028  1.00  0.00    -0.308 C  
HETATM   33  C   UNL     1     -12.341  12.849  64.946  1.00  0.00    -0.475 C  
HETATM   34  C   UNL     1     -11.491  14.700  66.321  1.00  0.00    -0.351 C  
BRANCH  33  35
HETATM   35  C   UNL     1     -12.264  12.830  63.405  1.00  0.00    -0.504 C  
HETATM   36  O   UNL     1     -12.447  11.509  62.888  1.00  0.00    -0.964 OA 
HETATM   37  H   UNL     1     -12.399  11.497  61.939  1.00  0.00     0.000 HD 
ENDBRANCH  33  35
ENDBRANCH  17  30
ENDBRANCH  11  13
ENDBRANCH  10  11
ENDBRANCH   7  10
ENDBRANCH   2   3
TORSDOF 9
ENDMDL
MODEL       24
REMARK 921   NORMALIZED FREE ENERGY PREDICTED BY IDOCK:   -6.86 KCAL/MOL
REMARK 922        TOTAL FREE ENERGY PREDICTED BY IDOCK:  -12.00 KCAL/MOL
REMARK 923 INTER-LIGAND FREE ENERGY PREDICTED BY IDOCK:   -9.68 KCAL/MOL
REMARK 924 INTRA-LIGAND FREE ENERGY PREDICTED BY IDOCK:   -2.32 KCAL/MOL
REMARK 927      BINDING AFFINITY PREDICTED BY RF-SCORE:    0.00 PKD
ROOT
HETATM    1  C   UNL     1     -13.614  15.663  72.616  1.00  0.00    -0.579 C  
HETATM    2  O   UNL     1     -12.330  15.147  72.294  1.00  0.00    -0.325 OA 
ENDROOT
BRANCH   2   3
HETATM    3  C   UNL     1     -12.085  14.861  70.977  1.00  0.00    -0.321 A  
HETATM    4  C   UNL     1     -12.355  13.553  70.544  1.00  0.00    -0.342 A  
HETATM    5 CL   UNL     1     -12.872  12.327  71.650  1.00  0.00    -0.429 Cl 
HETATM    6  C   UNL     1     -12.199  13.195  69.200  1.00  0.00    -0.137 A  
HETATM    7  C   UNL     1     -11.784  14.144  68.257  1.00  0.00    -0.383 A  
HETATM    8  C   UNL     1     -11.643  15.799  70.040  1.00  0.00    -0.361 A  
HETATM    9  C   UNL     1     -11.486  15.441  68.695  1.00  0.00    -0.357 A  
BRANCH   7  10
HETATM   10  C   UNL     1     -11.611  13.763  66.803  1.00  0.00    -0.370 C  
BRANCH  10  11
HETATM   11  N   UNL     1     -10.200  13.879  66.478  1.00  0.00    -0.274 NA 
HETATM   12  H   UNL     1      -9.853  14.569  65.813  1.00  0.00     0.000 HD 
BRANCH  11  13
HETATM   13  C   UNL     1      -9.342  12.979  67.140  1.00  0.00    -0.230 A  
HETATM   14  C   UNL     1      -8.311  13.469  67.926  1.00  0.00    -0.175 A  
HETATM   15  C   UNL     1      -7.553  12.517  68.567  1.00  0.00    -0.119 A  
HETATM   16  N   UNL     1      -9.580  11.648  67.035  1.00  0.00    -0.182 NA 
HETATM   17  C   UNL     1      -8.799  10.783  67.711  1.00  0.00    -0.130 A  
HETATM   18  N   UNL     1      -7.766  11.187  68.462  1.00  0.00    -0.121 NA 
BRANCH  14  19
HETATM   19  C   UNL     1      -7.950  14.893  68.105  1.00  0.00    -0.130 C  
HETATM   20  O   UNL     1      -7.830  15.346  69.237  1.00  0.00    -0.193 OA 
HETATM   21  N   UNL     1      -7.730  15.641  66.973  1.00  0.00    -0.222 N  
HETATM   22  H   UNL     1      -7.792  15.186  66.062  1.00  0.00     0.000 HD 
BRANCH  21  23
HETATM   23  C   UNL     1      -7.412  17.060  67.029  1.00  0.00    -0.191 C  
BRANCH  23  24
HETATM   24  C   UNL     1      -8.617  17.978  67.131  1.00  0.00    -0.239 A  
HETATM   25  N   UNL     1      -9.418  18.059  66.045  1.00  0.00    -0.523 NA 
HETATM   26  C   UNL     1     -10.510  18.838  66.151  1.00  0.00    -0.446 A  
HETATM   27  N   UNL     1      -8.837  18.650  68.284  1.00  0.00    -0.317 NA 
HETATM   28  C   UNL     1      -9.951  19.407  68.334  1.00  0.00    -0.437 A  
HETATM   29  C   UNL     1     -10.832  19.540  67.286  1.00  0.00    -0.557 A  
ENDBRANCH  23  24
ENDBRANCH  21  23
ENDBRANCH  14  19
BRANCH  17  30
HETATM   30  N   UNL     1      -9.054   9.442  67.633  1.00  0.00    -0.122 NA 
HETATM   31  C   UNL     1     -10.361   7.618  66.863  1.00  0.00    -0.388 C  
HETATM   32  C   UNL     1      -8.091   8.481  67.141  1.00  0.00    -0.104 C  
HETATM   33  C   UNL     1     -10.408   8.897  67.714  1.00  0.00    -0.242 C  
HETATM   34  C   UNL     1      -8.930   7.481  66.352  1.00  0.00    -0.196 C  
BRANCH  33  35
HETATM   35  C   UNL     1     -10.760   8.590  69.184  1.00  0.00    -0.110 C  
HETATM   36  O   UNL     1     -11.557   9.629  69.760  1.00  0.00    -0.428 OA 
HETATM   37  H   UNL     1     -11.774   9.441  70.665  1.00  0.00     0.000 HD 
ENDBRANCH  33  35
ENDBRANCH  17  30
ENDBRANCH  11  13
ENDBRANCH  10  11
ENDBRANCH   7  10
ENDBRANCH   2   3
TORSDOF 9
ENDMDL
MODEL       25
REMARK 921   NORMALIZED FREE ENERGY PREDICTED BY IDOCK:   -6.83 KCAL/MOL
REMARK 922        TOTAL FREE ENERGY PREDICTED BY IDOCK:  -11.96 KCAL/MOL
REMARK 923 INTER-LIGAND FREE ENERGY PREDICTED BY IDOCK:  -10.43 KCAL/MOL
REMARK 924 INTRA-LIGAND FREE ENERGY PREDICTED BY IDOCK:   -1.53 KCAL/MOL
REMARK 927      BINDING AFFINITY PREDICTED BY RF-SCORE:    0.00 PKD
ROOT
HETATM    1  C   UNL     1     -10.536   7.141  71.951  1.00  0.00    -0.197 C  
HETATM    2  O   UNL     1     -10.920   8.474  72.258  1.00  0.00    -0.338 OA 
ENDROOT
BRANCH   2   3
HETATM    3  C   UNL     1     -10.942   9.370  71.221  1.00  0.00    -0.370 A  
HETATM    4  C   UNL     1     -12.103  10.143  71.065  1.00  0.00    -0.377 A  
HETATM    5 CL   UNL     1     -13.489   9.898  72.072  1.00  0.00    -0.497 Cl 
HETATM    6  C   UNL     1     -12.182  11.130  70.076  1.00  0.00    -0.402 A  
HETATM    7  C   UNL     1     -11.093  11.376  69.231  1.00  0.00    -0.313 A  
HETATM    8  C   UNL     1      -9.866   9.597  70.358  1.00  0.00    -0.315 A  
HETATM    9  C   UNL     1      -9.945  10.584  69.367  1.00  0.00    -0.220 A  
BRANCH   7  10
HETATM   10  C   UNL     1     -11.172  12.439  68.159  1.00  0.00    -0.265 C  
BRANCH  10  11
HETATM   11  N   UNL     1     -11.888  11.876  67.027  1.00  0.00    -0.613 NA 
HETATM   12  H   UNL     1     -12.890  11.688  67.058  1.00  0.00     0.000 HD 
BRANCH  11  13
HETATM   13  C   UNL     1     -11.112  11.606  65.883  1.00  0.00    -0.264 A  
HETATM   14  C   UNL     1     -10.987  12.572  64.897  1.00  0.00    -0.335 A  
HETATM   15  C   UNL     1     -10.175  12.235  63.839  1.00  0.00    -0.395 A  
HETATM   16  N   UNL     1     -10.457  10.421  65.800  1.00  0.00    -0.170 NA 
HETATM   17  C   UNL     1      -9.666  10.178  64.735  1.00  0.00    -0.322 A  
HETATM   18  N   UNL     1      -9.527  11.054  63.731  1.00  0.00    -0.242 NA 
BRANCH  14  19
HETATM   19  C   UNL     1     -11.661  13.889  64.874  1.00  0.00    -0.368 C  
HETATM   20  O   UNL     1     -12.867  13.951  65.087  1.00  0.00    -0.695 OA 
HETATM   21  N   UNL     1     -10.884  14.999  64.646  1.00  0.00    -0.625 N  
HETATM   22  H   UNL     1      -9.877  14.881  64.533  1.00  0.00     0.000 HD 
BRANCH  21  23
HETATM   23  C   UNL     1     -11.447  16.338  64.560  1.00  0.00    -0.169 C  
BRANCH  23  24
HETATM   24  C   UNL     1     -10.904  17.324  65.579  1.00  0.00    -0.023 A  
HETATM   25  N   UNL     1     -10.477  16.813  66.755  1.00  0.00    -0.288 NA 
HETATM   26  C   UNL     1      -9.954  17.681  67.642  1.00  0.00    -0.323 A  
HETATM   27  N   UNL     1     -10.860  18.639  65.265  1.00  0.00    -0.448 NA 
HETATM   28  C   UNL     1     -10.317  19.458  66.188  1.00  0.00    -0.504 A  
HETATM   29  C   UNL     1      -9.844  19.029  67.406  1.00  0.00    -0.386 A  
ENDBRANCH  23  24
ENDBRANCH  21  23
ENDBRANCH  14  19
BRANCH  17  30
HETATM   30  N   UNL     1      -8.980   8.998  64.662  1.00  0.00    -0.128 NA 
HETATM   31  C   UNL     1      -6.961   7.783  64.386  1.00  0.00    -0.060 C  
HETATM   32  C   UNL     1      -9.003   8.003  65.710  1.00  0.00    -0.102 C  
HETATM   33  C   UNL     1      -7.908   8.776  63.692  1.00  0.00    -0.145 C  
HETATM   34  C   UNL     1      -7.579   7.459  65.742  1.00  0.00    -0.090 C  
BRANCH  33  35
HETATM   35  C   UNL     1      -8.494   8.190  62.391  1.00  0.00    -0.099 C  
HETATM   36  O   UNL     1      -8.649   6.771  62.479  1.00  0.00    -0.342 OA 
HETATM   37  H   UNL     1      -9.010   6.410  61.678  1.00  0.00     0.000 HD 
ENDBRANCH  33  35
ENDBRANCH  17  30
ENDBRANCH  11  13
ENDBRANCH  10  11
ENDBRANCH   7  10
ENDBRANCH   2   3
TORSDOF 9
ENDMDL
MODEL       26
REMARK 921   NORMALIZED FREE ENERGY PREDICTED BY IDOCK:   -6.83 KCAL/MOL
REMARK 922        TOTAL FREE ENERGY PREDICTED BY IDOCK:  -11.96 KCAL/MOL
REMARK 923 INTER-LIGAND FREE ENERGY PREDICTED BY IDOCK:  -10.52 KCAL/MOL
REMARK 924 INTRA-LIGAND FREE ENERGY PREDICTED BY IDOCK:   -1.43 KCAL/MOL
REMARK 927      BINDING AFFINITY PREDICTED BY RF-SCORE:    0.00 PKD
ROOT
HETATM    1  C   UNL     1     -14.074   8.624  72.242  1.00  0.00    -0.420 C  
HETATM    2  O   UNL     1     -13.174   9.703  72.455  1.00  0.00    -0.378 OA 
ENDROOT
BRANCH   2   3
HETATM    3  C   UNL     1     -12.542  10.214  71.352  1.00  0.00    -0.422 A  
HETATM    4  C   UNL     1     -12.681  11.590  71.113  1.00  0.00    -0.356 A  
HETATM    5 CL   UNL     1     -13.695  12.579  72.108  1.00  0.00    -0.463 Cl 
HETATM    6  C   UNL     1     -12.012  12.206  70.049  1.00  0.00    -0.391 A  
HETATM    7  C   UNL     1     -11.177  11.459  69.209  1.00  0.00    -0.342 A  
HETATM    8  C   UNL     1     -11.731   9.465  70.496  1.00  0.00    -0.254 A  
HETATM    9  C   UNL     1     -11.062  10.080  69.430  1.00  0.00    -0.265 A  
BRANCH   7  10
HETATM   10  C   UNL     1     -10.453  12.118  68.056  1.00  0.00    -0.212 C  
BRANCH  10  11
HETATM   11  N   UNL     1     -11.261  11.938  66.864  1.00  0.00    -0.308 NA 
HETATM   12  H   UNL     1     -12.246  12.201  66.831  1.00  0.00     0.000 HD 
BRANCH  11  13
HETATM   13  C   UNL     1     -10.601  11.376  65.753  1.00  0.00    -0.260 A  
HETATM   14  C   UNL     1     -10.572  12.068  64.553  1.00  0.00    -0.356 A  
HETATM   15  C   UNL     1      -9.868  11.463  63.538  1.00  0.00    -0.375 A  
HETATM   16  N   UNL     1      -9.958  10.192  65.902  1.00  0.00    -0.257 NA 
HETATM   17  C   UNL     1      -9.274   9.676  64.861  1.00  0.00    -0.246 A  
HETATM   18  N   UNL     1      -9.234  10.276  63.664  1.00  0.00    -0.258 NA 
BRANCH  14  19
HETATM   19  C   UNL     1     -11.245  13.356  64.270  1.00  0.00    -0.380 C  
HETATM   20  O   UNL     1     -12.296  13.359  63.640  1.00  0.00    -0.680 OA 
HETATM   21  N   UNL     1     -10.666  14.500  64.766  1.00  0.00    -0.542 N  
HETATM   22  H   UNL     1      -9.820  14.419  65.331  1.00  0.00     0.000 HD 
BRANCH  21  23
HETATM   23  C   UNL     1     -11.218  15.822  64.513  1.00  0.00    -0.322 C  
BRANCH  23  24
HETATM   24  C   UNL     1     -10.863  16.869  65.555  1.00  0.00    -0.096 A  
HETATM   25  N   UNL     1     -10.816  18.153  65.139  1.00  0.00    -0.577 NA 
HETATM   26  C   UNL     1     -10.545  19.085  66.072  1.00  0.00    -0.423 A  
HETATM   27  N   UNL     1     -10.627  16.476  66.828  1.00  0.00    -0.268 NA 
HETATM   28  C   UNL     1     -10.371  17.455  67.719  1.00  0.00    -0.358 A  
HETATM   29  C   UNL     1     -10.316  18.790  67.393  1.00  0.00    -0.472 A  
ENDBRANCH  23  24
ENDBRANCH  21  23
ENDBRANCH  14  19
BRANCH  17  30
HETATM   30  N   UNL     1      -8.600   8.498  65.015  1.00  0.00    -0.166 NA 
HETATM   31  C   UNL     1      -8.563   6.170  65.472  1.00  0.00    -0.133 C  
HETATM   32  C   UNL     1      -7.745   7.936  63.994  1.00  0.00    -0.133 C  
HETATM   33  C   UNL     1      -8.932   7.538  66.068  1.00  0.00    -0.127 C  
HETATM   34  C   UNL     1      -7.994   6.434  64.082  1.00  0.00    -0.096 C  
BRANCH  33  35
HETATM   35  C   UNL     1      -8.109   7.848  67.336  1.00  0.00    -0.123 C  
HETATM   36  O   UNL     1      -6.731   7.507  67.162  1.00  0.00    -0.062 OA 
HETATM   37  H   UNL     1      -6.224   7.697  67.942  1.00  0.00     0.000 HD 
ENDBRANCH  33  35
ENDBRANCH  17  30
ENDBRANCH  11  13
ENDBRANCH  10  11
ENDBRANCH   7  10
ENDBRANCH   2   3
TORSDOF 9
ENDMDL
MODEL       27
REMARK 921   NORMALIZED FREE ENERGY PREDICTED BY IDOCK:   -6.83 KCAL/MOL
REMARK 922        TOTAL FREE ENERGY PREDICTED BY IDOCK:  -11.95 KCAL/MOL
REMARK 923 INTER-LIGAND FREE ENERGY PREDICTED BY IDOCK:  -10.07 KCAL/MOL
REMARK 924 INTRA-LIGAND FREE ENERGY PREDICTED BY IDOCK:   -1.88 KCAL/MOL
REMARK 927      BINDING AFFINITY PREDICTED BY RF-SCORE:    0.00 PKD
ROOT
HETATM    1  C   UNL     1      -9.410   2.597  68.300  1.00  0.00    -0.201 C  
HETATM    2  O   UNL     1      -9.392   3.315  67.074  1.00  0.00    -0.185 OA 
ENDROOT
BRANCH   2   3
HETATM    3  C   UNL     1      -9.591   4.669  67.142  1.00  0.00    -0.176 A  
HETATM    4  C   UNL     1      -8.462   5.474  67.358  1.00  0.00    -0.109 A  
HETATM    5 CL   UNL     1      -6.900   4.779  67.633  1.00  0.00    -0.058 Cl 
HETATM    6  C   UNL     1      -8.565   6.870  67.372  1.00  0.00    -0.121 A  
HETATM    7  C   UNL     1      -9.802   7.491  67.154  1.00  0.00    -0.263 A  
HETATM    8  C   UNL     1     -10.829   5.290  66.955  1.00  0.00    -0.081 A  
HETATM    9  C   UNL     1     -10.934   6.686  66.969  1.00  0.00    -0.463 A  
BRANCH   7  10
HETATM   10  C   UNL     1      -9.921   8.998  67.170  1.00  0.00    -0.224 C  
BRANCH  10  11
HETATM   11  N   UNL     1     -11.059   9.345  68.003  1.00  0.00    -0.513 NA 
HETATM   12  H   UNL     1     -11.609   8.638  68.491  1.00  0.00     0.000 HD 
BRANCH  11  13
HETATM   13  C   UNL     1     -11.357  10.719  68.096  1.00  0.00    -0.308 A  
HETATM   14  C   UNL     1     -11.784  11.246  69.304  1.00  0.00    -0.403 A  
HETATM   15  C   UNL     1     -12.009  12.603  69.310  1.00  0.00    -0.246 A  
HETATM   16  N   UNL     1     -11.163  11.506  67.009  1.00  0.00    -0.320 NA 
HETATM   17  C   UNL     1     -11.390  12.831  67.106  1.00  0.00    -0.314 A  
HETATM   18  N   UNL     1     -11.836  13.401  68.233  1.00  0.00    -0.352 NA 
BRANCH  14  19
HETATM   19  C   UNL     1     -12.042  10.485  70.547  1.00  0.00    -0.345 C  
HETATM   20  O   UNL     1     -13.086  10.673  71.161  1.00  0.00    -0.368 OA 
HETATM   21  N   UNL     1     -11.098   9.566  70.939  1.00  0.00    -0.306 N  
HETATM   22  H   UNL     1     -10.278   9.420  70.350  1.00  0.00     0.000 HD 
BRANCH  21  23
HETATM   23  C   UNL     1     -11.228   8.794  72.166  1.00  0.00    -0.338 C  
BRANCH  23  24
HETATM   24  C   UNL     1     -10.910   7.316  72.023  1.00  0.00    -0.233 A  
HETATM   25  N   UNL     1     -10.649   6.865  70.776  1.00  0.00    -0.217 NA 
HETATM   26  C   UNL     1     -10.324   5.564  70.656  1.00  0.00    -0.262 A  
HETATM   27  N   UNL     1     -10.890   6.538  73.129  1.00  0.00    -0.265 NA 
HETATM   28  C   UNL     1     -10.549   5.246  72.947  1.00  0.00    -0.229 A  
HETATM   29  C   UNL     1     -10.253   4.700  71.720  1.00  0.00    -0.242 A  
ENDBRANCH  23  24
ENDBRANCH  21  23
ENDBRANCH  14  19
BRANCH  17  30
HETATM   30  N   UNL     1     -11.167  13.634  66.022  1.00  0.00    -0.294 NA 
HETATM   31  C   UNL     1     -11.877  15.301  64.491  1.00  0.00    -0.298 C  
HETATM   32  C   UNL     1     -10.052  14.549  65.931  1.00  0.00    -0.326 C  
HETATM   33  C   UNL     1     -12.195  13.891  65.014  1.00  0.00    -0.425 C  
HETATM   34  C   UNL     1     -10.628  15.773  65.228  1.00  0.00    -0.446 C  
BRANCH  33  35
HETATM   35  C   UNL     1     -12.106  12.834  63.895  1.00  0.00    -0.486 C  
HETATM   36  O   UNL     1     -12.118  13.441  62.600  1.00  0.00    -0.651 OA 
HETATM   37  H   UNL     1     -12.063  12.790  61.910  1.00  0.00     0.000 HD 
ENDBRANCH  33  35
ENDBRANCH  17  30
ENDBRANCH  11  13
ENDBRANCH  10  11
ENDBRANCH   7  10
ENDBRANCH   2   3
TORSDOF 9
ENDMDL
MODEL       28
REMARK 921   NORMALIZED FREE ENERGY PREDICTED BY IDOCK:   -6.80 KCAL/MOL
REMARK 922        TOTAL FREE ENERGY PREDICTED BY IDOCK:  -11.91 KCAL/MOL
REMARK 923 INTER-LIGAND FREE ENERGY PREDICTED BY IDOCK:   -9.71 KCAL/MOL
REMARK 924 INTRA-LIGAND FREE ENERGY PREDICTED BY IDOCK:   -2.20 KCAL/MOL
REMARK 927      BINDING AFFINITY PREDICTED BY RF-SCORE:    0.00 PKD
ROOT
HETATM    1  C   UNL     1      -9.691  17.180  68.795  1.00  0.00    -0.277 C  
HETATM    2  O   UNL     1     -10.957  16.805  69.319  1.00  0.00    -0.294 OA 
ENDROOT
BRANCH   2   3
HETATM    3  C   UNL     1     -11.213  15.464  69.431  1.00  0.00    -0.296 A  
HETATM    4  C   UNL     1     -11.873  15.031  70.591  1.00  0.00    -0.313 A  
HETATM    5 CL   UNL     1     -12.252  16.130  71.874  1.00  0.00    -0.531 Cl 
HETATM    6  C   UNL     1     -12.235  13.689  70.755  1.00  0.00    -0.424 A  
HETATM    7  C   UNL     1     -11.956  12.753  69.751  1.00  0.00    -0.362 A  
HETATM    8  C   UNL     1     -10.909  14.522  68.444  1.00  0.00    -0.250 A  
HETATM    9  C   UNL     1     -11.270  13.179  68.607  1.00  0.00    -0.314 A  
BRANCH   7  10
HETATM   10  C   UNL     1     -12.342  11.300  69.923  1.00  0.00    -0.233 C  
BRANCH  10  11
HETATM   11  N   UNL     1     -11.852  10.572  68.766  1.00  0.00    -0.674 NA 
HETATM   12  H   UNL     1     -12.243  10.709  67.833  1.00  0.00     0.000 HD 
BRANCH  11  13
HETATM   13  C   UNL     1     -10.804   9.663  69.011  1.00  0.00    -0.183 A  
HETATM   14  C   UNL     1      -9.697   9.655  68.178  1.00  0.00    -0.164 A  
HETATM   15  C   UNL     1      -8.706   8.765  68.520  1.00  0.00    -0.135 A  
HETATM   16  N   UNL     1     -10.880   8.852  70.095  1.00  0.00    -0.230 NA 
HETATM   17  C   UNL     1      -9.855   8.020  70.369  1.00  0.00    -0.183 A  
HETATM   18  N   UNL     1      -8.770   7.938  69.587  1.00  0.00    -0.134 NA 
BRANCH  14  19
HETATM   19  C   UNL     1      -9.511  10.481  66.964  1.00  0.00    -0.163 C  
HETATM   20  O   UNL     1      -8.527  11.207  66.875  1.00  0.00    -0.137 OA 
HETATM   21  N   UNL     1     -10.448  10.367  65.965  1.00  0.00    -0.186 N  
HETATM   22  H   UNL     1     -11.212   9.700  66.081  1.00  0.00     0.000 HD 
BRANCH  21  23
HETATM   23  C   UNL     1     -10.388  11.162  64.748  1.00  0.00    -0.325 C  
BRANCH  23  24
HETATM   24  C   UNL     1     -10.985  12.553  64.868  1.00  0.00    -0.300 A  
HETATM   25  N   UNL     1     -12.309  12.629  65.127  1.00  0.00    -0.532 NA 
HETATM   26  C   UNL     1     -12.830  13.862  65.277  1.00  0.00    -0.398 A  
HETATM   27  N   UNL     1     -10.179  13.630  64.725  1.00  0.00    -0.377 NA 
HETATM   28  C   UNL     1     -10.755  14.837  64.896  1.00  0.00    -0.417 A  
HETATM   29  C   UNL     1     -12.090  15.013  65.175  1.00  0.00    -0.073 A  
ENDBRANCH  23  24
ENDBRANCH  21  23
ENDBRANCH  14  19
BRANCH  17  30
HETATM   30  N   UNL     1      -9.912   7.223  71.478  1.00  0.00    -0.182 NA 
HETATM   31  C   UNL     1     -10.494   6.863  73.750  1.00  0.00    -0.390 C  
HETATM   32  C   UNL     1     -10.565   5.932  71.491  1.00  0.00    -0.245 C  
HETATM   33  C   UNL     1      -9.626   7.727  72.821  1.00  0.00    -0.221 C  
HETATM   34  C   UNL     1     -11.226   5.861  72.863  1.00  0.00    -0.291 C  
BRANCH  33  35
HETATM   35  C   UNL     1      -8.124   7.565  73.130  1.00  0.00    -0.116 C  
HETATM   36  O   UNL     1      -7.441   8.821  73.082  1.00  0.00    -0.364 OA 
HETATM   37  H   UNL     1      -6.515   8.721  73.272  1.00  0.00     0.000 HD 
ENDBRANCH  33  35
ENDBRANCH  17  30
ENDBRANCH  11  13
ENDBRANCH  10  11
ENDBRANCH   7  10
ENDBRANCH   2   3
TORSDOF 9
ENDMDL
MODEL       29
REMARK 921   NORMALIZED FREE ENERGY PREDICTED BY IDOCK:   -6.79 KCAL/MOL
REMARK 922        TOTAL FREE ENERGY PREDICTED BY IDOCK:  -11.89 KCAL/MOL
REMARK 923 INTER-LIGAND FREE ENERGY PREDICTED BY IDOCK:  -10.25 KCAL/MOL
REMARK 924 INTRA-LIGAND FREE ENERGY PREDICTED BY IDOCK:   -1.63 KCAL/MOL
REMARK 927      BINDING AFFINITY PREDICTED BY RF-SCORE:    0.00 PKD
ROOT
HETATM    1  C   UNL     1     -12.717  11.990  63.322  1.00  0.00    -0.303 C  
HETATM    2  O   UNL     1     -11.624  12.622  63.974  1.00  0.00    -0.354 OA 
ENDROOT
BRANCH   2   3
HETATM    3  C   UNL     1     -11.226  12.095  65.174  1.00  0.00    -0.329 A  
HETATM    4  C   UNL     1     -11.728  12.698  66.339  1.00  0.00    -0.405 A  
HETATM    5 CL   UNL     1     -12.722  14.113  66.263  1.00  0.00    -0.323 Cl 
HETATM    6  C   UNL     1     -11.427  12.180  67.604  1.00  0.00    -0.399 A  
HETATM    7  C   UNL     1     -10.628  11.036  67.729  1.00  0.00    -0.250 A  
HETATM    8  C   UNL     1     -10.405  10.971  65.304  1.00  0.00    -0.338 A  
HETATM    9  C   UNL     1     -10.103  10.453  66.569  1.00  0.00    -0.285 A  
BRANCH   7  10
HETATM   10  C   UNL     1     -10.298  10.472  69.093  1.00  0.00    -0.220 C  
BRANCH  10  11
HETATM   11  N   UNL     1     -11.412   9.638  69.510  1.00  0.00    -0.444 NA 
HETATM   12  H   UNL     1     -12.325   9.690  69.060  1.00  0.00     0.000 HD 
BRANCH  11  13
HETATM   13  C   UNL     1     -11.151   8.754  70.576  1.00  0.00    -0.246 A  
HETATM   14  C   UNL     1     -11.915   8.830  71.730  1.00  0.00    -0.418 A  
HETATM   15  C   UNL     1     -11.617   7.899  72.697  1.00  0.00    -0.377 A  
HETATM   16  N   UNL     1     -10.192   7.808  70.423  1.00  0.00    -0.195 NA 
HETATM   17  C   UNL     1      -9.976   6.921  71.415  1.00  0.00    -0.181 A  
HETATM   18  N   UNL     1     -10.655   6.959  72.569  1.00  0.00    -0.213 NA 
BRANCH  14  19
HETATM   19  C   UNL     1     -12.975   9.823  72.012  1.00  0.00    -0.423 C  
HETATM   20  O   UNL     1     -14.057   9.442  72.443  1.00  0.00    -0.390 OA 
HETATM   21  N   UNL     1     -12.677  11.149  71.807  1.00  0.00    -0.352 N  
HETATM   22  H   UNL     1     -11.736  11.401  71.501  1.00  0.00     0.000 HD 
BRANCH  21  23
HETATM   23  C   UNL     1     -13.655  12.207  72.011  1.00  0.00    -0.164 C  
BRANCH  23  24
HETATM   24  C   UNL     1     -13.076  13.610  72.051  1.00  0.00    -0.393 A  
HETATM   25  N   UNL     1     -13.400  14.375  73.116  1.00  0.00    -0.612 NA 
HETATM   26  C   UNL     1     -12.850  15.603  73.173  1.00  0.00    -0.509 A  
HETATM   27  N   UNL     1     -12.268  14.017  71.044  1.00  0.00    -0.350 NA 
HETATM   28  C   UNL     1     -11.741  15.252  71.162  1.00  0.00    -0.360 A  
HETATM   29  C   UNL     1     -12.001  16.097  72.215  1.00  0.00    -0.637 A  
ENDBRANCH  23  24
ENDBRANCH  21  23
ENDBRANCH  14  19
BRANCH  17  30
HETATM   30  N   UNL     1      -9.031   5.947  71.254  1.00  0.00    -0.140 NA 
HETATM   31  C   UNL     1      -8.320   3.872  70.350  1.00  0.00    -0.080 C  
HETATM   32  C   UNL     1      -7.708   6.207  70.731  1.00  0.00    -0.102 C  
HETATM   33  C   UNL     1      -9.364   4.523  71.272  1.00  0.00    -0.148 C  
HETATM   34  C   UNL     1      -7.402   4.988  69.867  1.00  0.00    -0.059 C  
BRANCH  33  35
HETATM   35  C   UNL     1      -9.268   3.982  72.713  1.00  0.00    -0.111 C  
HETATM   36  O   UNL     1     -10.536   4.022  73.374  1.00  0.00    -0.148 OA 
HETATM   37  H   UNL     1     -10.477   3.689  74.262  1.00  0.00     0.000 HD 
ENDBRANCH  33  35
ENDBRANCH  17  30
ENDBRANCH  11  13
ENDBRANCH  10  11
ENDBRANCH   7  10
ENDBRANCH   2   3
TORSDOF 9
ENDMDL
MODEL       30
REMARK 921   NORMALIZED FREE ENERGY PREDICTED BY IDOCK:   -6.75 KCAL/MOL
REMARK 922        TOTAL FREE ENERGY PREDICTED BY IDOCK:  -11.83 KCAL/MOL
REMARK 923 INTER-LIGAND FREE ENERGY PREDICTED BY IDOCK:  -10.18 KCAL/MOL
REMARK 924 INTRA-LIGAND FREE ENERGY PREDICTED BY IDOCK:   -1.65 KCAL/MOL
REMARK 927      BINDING AFFINITY PREDICTED BY RF-SCORE:    0.00 PKD
ROOT
HETATM    1  C   UNL     1     -12.081  13.126  63.337  1.00  0.00    -0.486 C  
HETATM    2  O   UNL     1     -11.016  13.261  64.268  1.00  0.00    -0.378 OA 
ENDROOT
BRANCH   2   3
HETATM    3  C   UNL     1     -10.838  12.240  65.163  1.00  0.00    -0.301 A  
HETATM    4  C   UNL     1     -11.421  12.388  66.431  1.00  0.00    -0.373 A  
HETATM    5 CL   UNL     1     -12.239  13.846  66.880  1.00  0.00    -0.451 Cl 
HETATM    6  C   UNL     1     -11.347  11.364  67.381  1.00  0.00    -0.359 A  
HETATM    7  C   UNL     1     -10.699  10.160  67.076  1.00  0.00    -0.264 A  
HETATM    8  C   UNL     1     -10.166  11.049  64.871  1.00  0.00    -0.373 A  
HETATM    9  C   UNL     1     -10.091  10.024  65.822  1.00  0.00    -0.320 A  
BRANCH   7  10
HETATM   10  C   UNL     1     -10.613   9.050  68.100  1.00  0.00    -0.171 C  
BRANCH  10  11
HETATM   11  N   UNL     1     -11.301   9.496  69.298  1.00  0.00    -0.446 NA 
HETATM   12  H   UNL     1     -11.918  10.308  69.298  1.00  0.00     0.000 HD 
BRANCH  11  13
HETATM   13  C   UNL     1     -11.062   8.739  70.462  1.00  0.00    -0.246 A  
HETATM   14  C   UNL     1     -11.838   8.954  71.589  1.00  0.00    -0.415 A  
HETATM   15  C   UNL     1     -11.561   8.139  72.662  1.00  0.00    -0.375 A  
HETATM   16  N   UNL     1     -10.109   7.774  70.432  1.00  0.00    -0.193 NA 
HETATM   17  C   UNL     1      -9.914   7.006  71.522  1.00  0.00    -0.180 A  
HETATM   18  N   UNL     1     -10.606   7.183  72.656  1.00  0.00    -0.237 NA 
BRANCH  14  19
HETATM   19  C   UNL     1     -12.893   9.982  71.741  1.00  0.00    -0.446 C  
HETATM   20  O   UNL     1     -14.010   9.646  72.118  1.00  0.00    -0.308 OA 
HETATM   21  N   UNL     1     -12.552  11.287  71.481  1.00  0.00    -0.346 N  
HETATM   22  H   UNL     1     -11.587  11.503  71.226  1.00  0.00     0.000 HD 
BRANCH  21  23
HETATM   23  C   UNL     1     -13.518  12.373  71.557  1.00  0.00     0.107 C  
BRANCH  23  24
HETATM   24  C   UNL     1     -12.929  13.723  71.927  1.00  0.00    -0.350 A  
HETATM   25  N   UNL     1     -11.991  14.228  71.096  1.00  0.00    -0.325 NA 
HETATM   26  C   UNL     1     -11.501  15.445  71.401  1.00  0.00    -0.406 A  
HETATM   27  N   UNL     1     -13.372  14.350  73.041  1.00  0.00    -0.635 NA 
HETATM   28  C   UNL     1     -12.852  15.569  73.288  1.00  0.00    -0.517 A  
HETATM   29  C   UNL     1     -11.904  16.171  72.494  1.00  0.00    -0.630 A  
ENDBRANCH  23  24
ENDBRANCH  21  23
ENDBRANCH  14  19
BRANCH  17  30
HETATM   30  N   UNL     1      -8.976   6.013  71.487  1.00  0.00    -0.143 NA 
HETATM   31  C   UNL     1      -6.923   5.121  70.700  1.00  0.00    -0.052 C  
HETATM   32  C   UNL     1      -8.317   5.504  72.670  1.00  0.00    -0.114 C  
HETATM   33  C   UNL     1      -8.310   5.609  70.249  1.00  0.00    -0.112 C  
HETATM   34  C   UNL     1      -6.884   5.247  72.219  1.00  0.00    -0.077 C  
BRANCH  33  35
HETATM   35  C   UNL     1      -9.115   4.485  69.566  1.00  0.00    -0.110 C  
HETATM   36  O   UNL     1      -9.873   4.982  68.460  1.00  0.00    -0.146 OA 
HETATM   37  H   UNL     1     -10.369   4.290  68.039  1.00  0.00     0.000 HD 
ENDBRANCH  33  35
ENDBRANCH  17  30
ENDBRANCH  11  13
ENDBRANCH  10  11
ENDBRANCH   7  10
ENDBRANCH   2   3
TORSDOF 9
ENDMDL
MODEL       31
REMARK 921   NORMALIZED FREE ENERGY PREDICTED BY IDOCK:   -6.74 KCAL/MOL
REMARK 922        TOTAL FREE ENERGY PREDICTED BY IDOCK:  -11.81 KCAL/MOL
REMARK 923 INTER-LIGAND FREE ENERGY PREDICTED BY IDOCK:   -9.84 KCAL/MOL
REMARK 924 INTRA-LIGAND FREE ENERGY PREDICTED BY IDOCK:   -1.97 KCAL/MOL
REMARK 927      BINDING AFFINITY PREDICTED BY RF-SCORE:    0.00 PKD
ROOT
HETATM    1  C   UNL     1     -10.552   6.966  73.533  1.00  0.00    -0.348 C  
HETATM    2  O   UNL     1     -11.744   7.488  72.962  1.00  0.00    -0.194 OA 
ENDROOT
BRANCH   2   3
HETATM    3  C   UNL     1     -11.604   8.489  72.036  1.00  0.00    -0.362 A  
HETATM    4  C   UNL     1     -12.743   9.255  71.742  1.00  0.00    -0.381 A  
HETATM    5 CL   UNL     1     -14.283   8.882  72.440  1.00  0.00    -0.511 Cl 
HETATM    6  C   UNL     1     -12.672  10.339  70.861  1.00  0.00    -0.462 A  
HETATM    7  C   UNL     1     -11.454  10.691  70.266  1.00  0.00    -0.422 A  
HETATM    8  C   UNL     1     -10.396   8.823  71.418  1.00  0.00    -0.348 A  
HETATM    9  C   UNL     1     -10.324   9.908  70.536  1.00  0.00    -0.298 A  
BRANCH   7  10
HETATM   10  C   UNL     1     -11.371  11.860  69.311  1.00  0.00    -0.277 C  
BRANCH  10  11
HETATM   11  N   UNL     1     -10.544  11.458  68.187  1.00  0.00    -0.180 NA 
HETATM   12  H   UNL     1     -10.711  10.594  67.672  1.00  0.00     0.000 HD 
BRANCH  11  13
HETATM   13  C   UNL     1      -9.494  12.337  67.852  1.00  0.00    -0.200 A  
HETATM   14  C   UNL     1      -8.181  11.922  68.000  1.00  0.00    -0.157 A  
HETATM   15  C   UNL     1      -7.226  12.830  67.607  1.00  0.00    -0.141 A  
HETATM   16  N   UNL     1      -9.798  13.554  67.336  1.00  0.00    -0.224 NA 
HETATM   17  C   UNL     1      -8.800  14.377  66.958  1.00  0.00    -0.237 A  
HETATM   18  N   UNL     1      -7.509  14.052  67.106  1.00  0.00    -0.015 NA 
BRANCH  14  19
HETATM   19  C   UNL     1      -7.732  10.627  68.561  1.00  0.00    -0.107 C  
HETATM   20  O   UNL     1      -7.206  10.602  69.668  1.00  0.00    -0.129 OA 
HETATM   21  N   UNL     1      -7.961   9.496  67.816  1.00  0.00    -0.099 N  
HETATM   22  H   UNL     1      -8.455   9.583  66.927  1.00  0.00     0.000 HD 
BRANCH  21  23
HETATM   23  C   UNL     1      -7.524   8.178  68.250  1.00  0.00    -0.097 C  
BRANCH  23  24
HETATM   24  C   UNL     1      -8.643   7.249  68.686  1.00  0.00    -0.128 A  
HETATM   25  N   UNL     1      -8.333   6.309  69.607  1.00  0.00    -0.124 NA 
HETATM   26  C   UNL     1      -9.336   5.514  70.026  1.00  0.00    -0.148 A  
HETATM   27  N   UNL     1      -9.876   7.409  68.153  1.00  0.00    -0.151 NA 
HETATM   28  C   UNL     1     -10.841   6.590  68.618  1.00  0.00    -0.295 A  
HETATM   29  C   UNL     1     -10.625   5.615  69.563  1.00  0.00    -0.384 A  
ENDBRANCH  23  24
ENDBRANCH  21  23
ENDBRANCH  14  19
BRANCH  17  30
HETATM   30  N   UNL     1      -9.100  15.593  66.410  1.00  0.00    -0.293 NA 
HETATM   31  C   UNL     1     -10.402  17.575  66.340  1.00  0.00    -0.334 C  
HETATM   32  C   UNL     1      -8.136  16.662  66.278  1.00  0.00    -0.326 C  
HETATM   33  C   UNL     1     -10.478  16.045  66.217  1.00  0.00    -0.320 C  
HETATM   34  C   UNL     1      -8.936  17.926  66.573  1.00  0.00    -0.278 C  
BRANCH  33  35
HETATM   35  C   UNL     1     -10.980  15.610  64.825  1.00  0.00    -0.400 C  
HETATM   36  O   UNL     1     -11.400  16.733  64.045  1.00  0.00    -1.471 OA 
HETATM   37  H   UNL     1     -11.710  16.466  63.188  1.00  0.00     0.000 HD 
ENDBRANCH  33  35
ENDBRANCH  17  30
ENDBRANCH  11  13
ENDBRANCH  10  11
ENDBRANCH   7  10
ENDBRANCH   2   3
TORSDOF 9
ENDMDL
MODEL       32
REMARK 921   NORMALIZED FREE ENERGY PREDICTED BY IDOCK:   -6.73 KCAL/MOL
REMARK 922        TOTAL FREE ENERGY PREDICTED BY IDOCK:  -11.80 KCAL/MOL
REMARK 923 INTER-LIGAND FREE ENERGY PREDICTED BY IDOCK:   -9.97 KCAL/MOL
REMARK 924 INTRA-LIGAND FREE ENERGY PREDICTED BY IDOCK:   -1.83 KCAL/MOL
REMARK 927      BINDING AFFINITY PREDICTED BY RF-SCORE:    0.00 PKD
ROOT
HETATM    1  C   UNL     1      -9.278   2.814  67.915  1.00  0.00    -0.204 C  
HETATM    2  O   UNL     1      -8.651   3.775  67.077  1.00  0.00    -0.102 OA 
ENDROOT
BRANCH   2   3
HETATM    3  C   UNL     1      -9.141   5.054  67.121  1.00  0.00    -0.114 A  
HETATM    4  C   UNL     1      -8.205   6.099  67.164  1.00  0.00    -0.106 A  
HETATM    5 CL   UNL     1      -6.506   5.782  67.266  1.00  0.00    -0.042 Cl 
HETATM    6  C   UNL     1      -8.618   7.436  67.141  1.00  0.00    -0.118 A  
HETATM    7  C   UNL     1      -9.979   7.756  67.059  1.00  0.00    -0.314 A  
HETATM    8  C   UNL     1     -10.500   5.376  67.069  1.00  0.00    -0.319 A  
HETATM    9  C   UNL     1     -10.914   6.713  67.046  1.00  0.00    -0.463 A  
BRANCH   7  10
HETATM   10  C   UNL     1     -10.432   9.199  67.035  1.00  0.00    -0.240 C  
BRANCH  10  11
HETATM   11  N   UNL     1     -11.272   9.419  68.199  1.00  0.00    -0.497 NA 
HETATM   12  H   UNL     1     -11.619   8.649  68.771  1.00  0.00     0.000 HD 
BRANCH  11  13
HETATM   13  C   UNL     1     -11.580  10.763  68.489  1.00  0.00    -0.255 A  
HETATM   14  C   UNL     1     -11.782  11.150  69.805  1.00  0.00    -0.419 A  
HETATM   15  C   UNL     1     -12.034  12.488  69.995  1.00  0.00    -0.299 A  
HETATM   16  N   UNL     1     -11.615  11.661  67.474  1.00  0.00    -0.531 NA 
HETATM   17  C   UNL     1     -11.851  12.959  67.750  1.00  0.00    -0.339 A  
HETATM   18  N   UNL     1     -12.088  13.395  68.994  1.00  0.00    -0.307 NA 
BRANCH  14  19
HETATM   19  C   UNL     1     -11.780  10.260  70.987  1.00  0.00    -0.370 C  
HETATM   20  O   UNL     1     -12.751  10.251  71.735  1.00  0.00    -0.408 OA 
HETATM   21  N   UNL     1     -10.686   9.449  71.173  1.00  0.00    -0.324 N  
HETATM   22  H   UNL     1      -9.937   9.466  70.480  1.00  0.00     0.000 HD 
BRANCH  21  23
HETATM   23  C   UNL     1     -10.559   8.566  72.323  1.00  0.00    -0.338 C  
BRANCH  23  24
HETATM   24  C   UNL     1     -10.250   7.119  71.983  1.00  0.00    -0.190 A  
HETATM   25  N   UNL     1     -10.691   6.180  72.849  1.00  0.00    -0.234 NA 
HETATM   26  C   UNL     1     -10.455   4.895  72.524  1.00  0.00    -0.205 A  
HETATM   27  N   UNL     1      -9.572   6.841  70.845  1.00  0.00    -0.168 NA 
HETATM   28  C   UNL     1      -9.374   5.537  70.569  1.00  0.00    -0.157 A  
HETATM   29  C   UNL     1      -9.798   4.511  71.382  1.00  0.00    -0.264 A  
ENDBRANCH  23  24
ENDBRANCH  21  23
ENDBRANCH  14  19
BRANCH  17  30
HETATM   30  N   UNL     1     -11.858  13.873  66.734  1.00  0.00    -0.400 NA 
HETATM   31  C   UNL     1     -10.831  14.903  64.859  1.00  0.00    -0.431 C  
HETATM   32  C   UNL     1     -12.898  13.934  65.732  1.00  0.00    -0.391 C  
HETATM   33  C   UNL     1     -10.670  14.643  66.366  1.00  0.00    -0.309 C  
HETATM   34  C   UNL     1     -12.157  14.275  64.443  1.00  0.00    -0.490 C  
BRANCH  33  35
HETATM   35  C   UNL     1     -10.631  15.959  67.170  1.00  0.00    -0.316 C  
HETATM   36  O   UNL     1     -10.239  17.063  66.349  1.00  0.00    -0.308 OA 
HETATM   37  H   UNL     1     -10.215  17.873  66.843  1.00  0.00     0.000 HD 
ENDBRANCH  33  35
ENDBRANCH  17  30
ENDBRANCH  11  13
ENDBRANCH  10  11
ENDBRANCH   7  10
ENDBRANCH   2   3
TORSDOF 9
ENDMDL
MODEL       33
REMARK 921   NORMALIZED FREE ENERGY PREDICTED BY IDOCK:   -6.72 KCAL/MOL
REMARK 922        TOTAL FREE ENERGY PREDICTED BY IDOCK:  -11.79 KCAL/MOL
REMARK 923 INTER-LIGAND FREE ENERGY PREDICTED BY IDOCK:   -9.24 KCAL/MOL
REMARK 924 INTRA-LIGAND FREE ENERGY PREDICTED BY IDOCK:   -2.55 KCAL/MOL
REMARK 927      BINDING AFFINITY PREDICTED BY RF-SCORE:    0.00 PKD
ROOT
HETATM    1  C   UNL     1     -10.772  17.289  67.876  1.00  0.00    -0.351 C  
HETATM    2  O   UNL     1     -10.059  16.119  67.499  1.00  0.00    -0.246 OA 
ENDROOT
BRANCH   2   3
HETATM    3  C   UNL     1     -10.508  14.927  68.003  1.00  0.00    -0.246 A  
HETATM    4  C   UNL     1      -9.636  13.829  67.927  1.00  0.00    -0.222 A  
HETATM    5 CL   UNL     1      -8.103  13.950  67.133  1.00  0.00    -0.149 Cl 
HETATM    6  C   UNL     1      -9.988  12.592  68.480  1.00  0.00    -0.166 A  
HETATM    7  C   UNL     1     -11.215  12.432  69.136  1.00  0.00    -0.295 A  
HETATM    8  C   UNL     1     -11.744  14.757  68.633  1.00  0.00    -0.356 A  
HETATM    9  C   UNL     1     -12.097  13.520  69.186  1.00  0.00    -0.331 A  
BRANCH   7  10
HETATM   10  C   UNL     1     -11.601  11.098  69.734  1.00  0.00    -0.334 C  
BRANCH  10  11
HETATM   11  N   UNL     1     -11.543  10.104  68.676  1.00  0.00    -0.532 NA 
HETATM   12  H   UNL     1     -12.135  10.158  67.848  1.00  0.00     0.000 HD 
BRANCH  11  13
HETATM   13  C   UNL     1     -10.616   9.060  68.866  1.00  0.00    -0.180 A  
HETATM   14  C   UNL     1      -9.554   8.920  67.987  1.00  0.00    -0.167 A  
HETATM   15  C   UNL     1      -8.678   7.900  68.276  1.00  0.00    -0.130 A  
HETATM   16  N   UNL     1     -10.755   8.247  69.942  1.00  0.00    -0.240 NA 
HETATM   17  C   UNL     1      -9.840   7.282  70.163  1.00  0.00    -0.179 A  
HETATM   18  N   UNL     1      -8.809   7.071  69.334  1.00  0.00    -0.136 NA 
BRANCH  14  19
HETATM   19  C   UNL     1      -9.308   9.736  66.777  1.00  0.00    -0.152 C  
HETATM   20  O   UNL     1      -8.170  10.119  66.531  1.00  0.00    -0.121 OA 
HETATM   21  N   UNL     1     -10.380  10.000  65.957  1.00  0.00    -0.199 N  
HETATM   22  H   UNL     1     -11.289   9.602  66.193  1.00  0.00     0.000 HD 
BRANCH  21  23
HETATM   23  C   UNL     1     -10.262  10.827  64.766  1.00  0.00    -0.334 C  
BRANCH  23  24
HETATM   24  C   UNL     1     -10.959  12.173  64.855  1.00  0.00    -0.309 A  
HETATM   25  N   UNL     1     -10.298  13.237  64.348  1.00  0.00    -0.404 NA 
HETATM   26  C   UNL     1     -10.935  14.423  64.388  1.00  0.00    -0.153 A  
HETATM   27  N   UNL     1     -12.189  12.241  65.415  1.00  0.00    -0.558 NA 
HETATM   28  C   UNL     1     -12.779  13.453  65.417  1.00  0.00    -0.426 A  
HETATM   29  C   UNL     1     -12.193  14.590  64.912  1.00  0.00    -0.409 A  
ENDBRANCH  23  24
ENDBRANCH  21  23
ENDBRANCH  14  19
BRANCH  17  30
HETATM   30  N   UNL     1      -9.960   6.479  71.263  1.00  0.00    -0.181 NA 
HETATM   31  C   UNL     1     -11.283   5.329  72.861  1.00  0.00    -0.375 C  
HETATM   32  C   UNL     1      -9.371   5.161  71.348  1.00  0.00    -0.148 C  
HETATM   33  C   UNL     1     -10.955   6.725  72.306  1.00  0.00    -0.243 C  
HETATM   34  C   UNL     1     -10.408   4.337  72.102  1.00  0.00    -0.193 C  
BRANCH  33  35
HETATM   35  C   UNL     1     -10.358   7.643  73.392  1.00  0.00    -0.314 C  
HETATM   36  O   UNL     1      -9.957   6.898  74.545  1.00  0.00    -0.462 OA 
HETATM   37  H   UNL     1      -9.589   7.464  75.214  1.00  0.00     0.000 HD 
ENDBRANCH  33  35
ENDBRANCH  17  30
ENDBRANCH  11  13
ENDBRANCH  10  11
ENDBRANCH   7  10
ENDBRANCH   2   3
TORSDOF 9
ENDMDL
MODEL       34
REMARK 921   NORMALIZED FREE ENERGY PREDICTED BY IDOCK:   -6.72 KCAL/MOL
REMARK 922        TOTAL FREE ENERGY PREDICTED BY IDOCK:  -11.78 KCAL/MOL
REMARK 923 INTER-LIGAND FREE ENERGY PREDICTED BY IDOCK:   -9.92 KCAL/MOL
REMARK 924 INTRA-LIGAND FREE ENERGY PREDICTED BY IDOCK:   -1.86 KCAL/MOL
REMARK 927      BINDING AFFINITY PREDICTED BY RF-SCORE:    0.00 PKD
ROOT
HETATM    1  C   UNL     1     -12.890  14.987  73.591  1.00  0.00    -0.446 C  
HETATM    2  O   UNL     1     -13.218  13.947  72.680  1.00  0.00    -0.490 OA 
ENDROOT
BRANCH   2   3
HETATM    3  C   UNL     1     -12.775  14.086  71.391  1.00  0.00    -0.364 A  
HETATM    4  C   UNL     1     -12.475  12.910  70.685  1.00  0.00    -0.252 A  
HETATM    5 CL   UNL     1     -12.557  11.358  71.447  1.00  0.00    -0.467 Cl 
HETATM    6  C   UNL     1     -12.084  12.957  69.343  1.00  0.00    -0.254 A  
HETATM    7  C   UNL     1     -12.000  14.184  68.672  1.00  0.00    -0.373 A  
HETATM    8  C   UNL     1     -12.662  15.311  70.728  1.00  0.00    -0.491 A  
HETATM    9  C   UNL     1     -12.270  15.359  69.384  1.00  0.00    -0.250 A  
BRANCH   7  10
HETATM   10  C   UNL     1     -11.575  14.242  67.221  1.00  0.00    -0.377 C  
BRANCH  10  11
HETATM   11  N   UNL     1     -10.214  13.742  67.136  1.00  0.00    -0.242 NA 
HETATM   12  H   UNL     1     -10.006  12.777  66.882  1.00  0.00     0.000 HD 
BRANCH  11  13
HETATM   13  C   UNL     1      -9.199  14.675  67.427  1.00  0.00    -0.198 A  
HETATM   14  C   UNL     1      -7.908  14.229  67.661  1.00  0.00    -0.191 A  
HETATM   15  C   UNL     1      -6.976  15.213  67.893  1.00  0.00    -0.151 A  
HETATM   16  N   UNL     1      -9.500  15.997  67.414  1.00  0.00    -0.218 NA 
HETATM   17  C   UNL     1      -8.521  16.898  67.633  1.00  0.00    -0.200 A  
HETATM   18  N   UNL     1      -7.260  16.535  67.900  1.00  0.00    -0.136 NA 
BRANCH  14  19
HETATM   19  C   UNL     1      -7.467  12.817  67.712  1.00  0.00    -0.135 C  
HETATM   20  O   UNL     1      -6.442  12.486  67.127  1.00  0.00    -0.150 OA 
HETATM   21  N   UNL     1      -8.221  11.940  68.454  1.00  0.00    -0.162 N  
HETATM   22  H   UNL     1      -9.032  12.296  68.962  1.00  0.00     0.000 HD 
BRANCH  21  23
HETATM   23  C   UNL     1      -7.906  10.522  68.539  1.00  0.00    -0.111 C  
BRANCH  23  24
HETATM   24  C   UNL     1      -8.812   9.724  69.459  1.00  0.00    -0.193 A  
HETATM   25  N   UNL     1      -8.371   9.512  70.718  1.00  0.00    -0.278 NA 
HETATM   26  C   UNL     1      -9.195   8.841  71.546  1.00  0.00    -0.262 A  
HETATM   27  N   UNL     1     -10.001   9.280  68.988  1.00  0.00    -0.176 NA 
HETATM   28  C   UNL     1     -10.786   8.624  69.866  1.00  0.00    -0.225 A  
HETATM   29  C   UNL     1     -10.429   8.373  71.171  1.00  0.00    -0.263 A  
ENDBRANCH  23  24
ENDBRANCH  21  23
ENDBRANCH  14  19
BRANCH  17  30
HETATM   30  N   UNL     1      -8.813  18.233  67.592  1.00  0.00    -0.254 NA 
HETATM   31  C   UNL     1      -9.876  20.096  66.578  1.00  0.00    -0.574 C  
HETATM   32  C   UNL     1      -9.439  18.940  68.687  1.00  0.00    -0.378 C  
HETATM   33  C   UNL     1      -8.834  18.991  66.341  1.00  0.00    -0.321 C  
HETATM   34  C   UNL     1     -10.385  19.923  68.006  1.00  0.00    -0.547 C  
BRANCH  33  35
HETATM   35  C   UNL     1      -7.436  19.577  66.062  1.00  0.00    -0.299 C  
HETATM   36  O   UNL     1      -6.806  18.925  64.956  1.00  0.00    -0.491 OA 
HETATM   37  H   UNL     1      -5.944  19.285  64.783  1.00  0.00     0.000 HD 
ENDBRANCH  33  35
ENDBRANCH  17  30
ENDBRANCH  11  13
ENDBRANCH  10  11
ENDBRANCH   7  10
ENDBRANCH   2   3
TORSDOF 9
ENDMDL
MODEL       35
REMARK 921   NORMALIZED FREE ENERGY PREDICTED BY IDOCK:   -6.71 KCAL/MOL
REMARK 922        TOTAL FREE ENERGY PREDICTED BY IDOCK:  -11.77 KCAL/MOL
REMARK 923 INTER-LIGAND FREE ENERGY PREDICTED BY IDOCK:  -10.35 KCAL/MOL
REMARK 924 INTRA-LIGAND FREE ENERGY PREDICTED BY IDOCK:   -1.42 KCAL/MOL
REMARK 927      BINDING AFFINITY PREDICTED BY RF-SCORE:    0.00 PKD
ROOT
HETATM    1  C   UNL     1      -7.097   4.699  65.160  1.00  0.00    -0.063 C  
HETATM    2  O   UNL     1      -7.913   5.195  66.212  1.00  0.00    -0.102 OA 
ENDROOT
BRANCH   2   3
HETATM    3  C   UNL     1      -8.458   6.441  66.043  1.00  0.00    -0.144 A  
HETATM    4  C   UNL     1      -9.639   6.726  66.746  1.00  0.00    -0.166 A  
HETATM    5 CL   UNL     1     -10.431   5.519  67.701  1.00  0.00    -0.261 Cl 
HETATM    6  C   UNL     1     -10.223   7.996  66.685  1.00  0.00    -0.315 A  
HETATM    7  C   UNL     1      -9.629   9.014  65.929  1.00  0.00    -0.317 A  
HETATM    8  C   UNL     1      -7.882   7.450  65.266  1.00  0.00    -0.121 A  
HETATM    9  C   UNL     1      -8.467   8.721  65.204  1.00  0.00    -0.192 A  
BRANCH   7  10
HETATM   10  C   UNL     1     -10.256  10.388  65.857  1.00  0.00    -0.234 C  
BRANCH  10  11
HETATM   11  N   UNL     1      -9.665  11.202  66.905  1.00  0.00    -0.189 NA 
HETATM   12  H   UNL     1      -8.719  11.577  66.831  1.00  0.00     0.000 HD 
BRANCH  11  13
HETATM   13  C   UNL     1     -10.478  11.440  68.031  1.00  0.00    -0.188 A  
HETATM   14  C   UNL     1     -11.234  12.600  68.095  1.00  0.00    -0.311 A  
HETATM   15  C   UNL     1     -12.029  12.726  69.210  1.00  0.00    -0.246 A  
HETATM   16  N   UNL     1     -10.545  10.497  69.003  1.00  0.00    -0.207 NA 
HETATM   17  C   UNL     1     -11.366  10.691  70.054  1.00  0.00    -0.324 A  
HETATM   18  N   UNL     1     -12.097  11.804  70.196  1.00  0.00    -0.328 NA 
BRANCH  14  19
HETATM   19  C   UNL     1     -11.232  13.701  67.105  1.00  0.00    -0.309 C  
HETATM   20  O   UNL     1     -12.268  13.980  66.515  1.00  0.00    -0.447 OA 
HETATM   21  N   UNL     1     -10.056  14.388  66.919  1.00  0.00    -0.255 N  
HETATM   22  H   UNL     1      -9.245  14.139  67.486  1.00  0.00     0.000 HD 
BRANCH  21  23
HETATM   23  C   UNL     1      -9.928  15.459  65.942  1.00  0.00    -0.346 C  
BRANCH  23  24
HETATM   24  C   UNL     1      -9.860  16.855  66.534  1.00  0.00    -0.296 A  
HETATM   25  N   UNL     1      -8.971  17.710  65.983  1.00  0.00    -0.515 NA 
HETATM   26  C   UNL     1      -8.942  18.961  66.479  1.00  0.00    -0.323 A  
HETATM   27  N   UNL     1     -10.686  17.177  67.557  1.00  0.00    -0.318 NA 
HETATM   28  C   UNL     1     -10.618  18.446  68.005  1.00  0.00    -0.318 A  
HETATM   29  C   UNL     1      -9.755  19.390  67.499  1.00  0.00    -0.432 A  
ENDBRANCH  23  24
ENDBRANCH  21  23
ENDBRANCH  14  19
BRANCH  17  30
HETATM   30  N   UNL     1     -11.460   9.730  71.022  1.00  0.00    -0.352 NA 
HETATM   31  C   UNL     1     -12.215   7.612  71.779  1.00  0.00    -0.341 C  
HETATM   32  C   UNL     1     -10.307   9.134  71.660  1.00  0.00    -0.318 C  
HETATM   33  C   UNL     1     -12.692   8.979  71.261  1.00  0.00    -0.262 C  
HETATM   34  C   UNL     1     -10.693   7.670  71.838  1.00  0.00    -0.259 C  
BRANCH  33  35
HETATM   35  C   UNL     1     -13.556   9.714  72.306  1.00  0.00    -0.367 C  
HETATM   36  O   UNL     1     -14.155   8.798  73.228  1.00  0.00    -1.180 OA 
HETATM   37  H   UNL     1     -14.687   9.250  73.871  1.00  0.00     0.000 HD 
ENDBRANCH  33  35
ENDBRANCH  17  30
ENDBRANCH  11  13
ENDBRANCH  10  11
ENDBRANCH   7  10
ENDBRANCH   2   3
TORSDOF 9
ENDMDL
MODEL       36
REMARK 921   NORMALIZED FREE ENERGY PREDICTED BY IDOCK:   -6.70 KCAL/MOL
REMARK 922        TOTAL FREE ENERGY PREDICTED BY IDOCK:  -11.75 KCAL/MOL
REMARK 923 INTER-LIGAND FREE ENERGY PREDICTED BY IDOCK:  -10.26 KCAL/MOL
REMARK 924 INTRA-LIGAND FREE ENERGY PREDICTED BY IDOCK:   -1.49 KCAL/MOL
REMARK 927      BINDING AFFINITY PREDICTED BY RF-SCORE:    0.00 PKD
ROOT
HETATM    1  C   UNL     1      -8.741   9.339  62.390  1.00  0.00    -0.235 C  
HETATM    2  O   UNL     1      -8.211  10.278  63.315  1.00  0.00    -0.157 OA 
ENDROOT
BRANCH   2   3
HETATM    3  C   UNL     1      -8.659  10.201  64.607  1.00  0.00    -0.183 A  
HETATM    4  C   UNL     1      -7.704   9.951  65.605  1.00  0.00    -0.121 A  
HETATM    5 CL   UNL     1      -6.047   9.645  65.207  1.00  0.00    -0.067 Cl 
HETATM    6  C   UNL     1      -8.065   9.925  66.957  1.00  0.00    -0.110 A  
HETATM    7  C   UNL     1      -9.390  10.166  67.341  1.00  0.00    -0.167 A  
HETATM    8  C   UNL     1      -9.987  10.412  64.991  1.00  0.00    -0.399 A  
HETATM    9  C   UNL     1     -10.349  10.387  66.344  1.00  0.00    -0.278 A  
BRANCH   7  10
HETATM   10  C   UNL     1      -9.787  10.138  68.800  1.00  0.00    -0.175 C  
BRANCH  10  11
HETATM   11  N   UNL     1     -11.227   9.958  68.865  1.00  0.00    -0.442 NA 
HETATM   12  H   UNL     1     -11.728   9.356  68.211  1.00  0.00     0.000 HD 
BRANCH  11  13
HETATM   13  C   UNL     1     -11.889  10.666  69.887  1.00  0.00    -0.315 A  
HETATM   14  C   UNL     1     -12.467   9.971  70.937  1.00  0.00    -0.431 A  
HETATM   15  C   UNL     1     -13.052  10.749  71.909  1.00  0.00    -0.451 A  
HETATM   16  N   UNL     1     -11.897  12.022  69.846  1.00  0.00    -0.337 NA 
HETATM   17  C   UNL     1     -12.477  12.709  70.850  1.00  0.00    -0.278 A  
HETATM   18  N   UNL     1     -13.083  12.099  71.877  1.00  0.00    -0.430 NA 
BRANCH  14  19
HETATM   19  C   UNL     1     -12.531   8.499  71.080  1.00  0.00    -0.174 C  
HETATM   20  O   UNL     1     -13.615   7.961  71.275  1.00  0.00    -0.267 OA 
HETATM   21  N   UNL     1     -11.358   7.795  70.952  1.00  0.00    -0.273 N  
HETATM   22  H   UNL     1     -10.500   8.302  70.734  1.00  0.00     0.000 HD 
BRANCH  21  23
HETATM   23  C   UNL     1     -11.297   6.350  71.117  1.00  0.00    -0.319 C  
BRANCH  23  24
HETATM   24  C   UNL     1     -10.681   5.603  69.947  1.00  0.00    -0.329 A  
HETATM   25  N   UNL     1     -10.030   4.454  70.232  1.00  0.00    -0.213 NA 
HETATM   26  C   UNL     1      -9.522   3.768  69.190  1.00  0.00    -0.172 A  
HETATM   27  N   UNL     1     -10.820   6.105  68.699  1.00  0.00    -0.309 NA 
HETATM   28  C   UNL     1     -10.299   5.370  67.696  1.00  0.00    -0.177 A  
HETATM   29  C   UNL     1      -9.632   4.183  67.886  1.00  0.00    -0.203 A  
ENDBRANCH  23  24
ENDBRANCH  21  23
ENDBRANCH  14  19
BRANCH  17  30
HETATM   30  N   UNL     1     -12.461  14.075  70.828  1.00  0.00    -0.351 NA 
HETATM   31  C   UNL     1     -11.720  16.157  71.691  1.00  0.00    -0.558 C  
HETATM   32  C   UNL     1     -12.087  14.844  69.663  1.00  0.00    -0.295 C  
HETATM   33  C   UNL     1     -12.491  14.877  72.051  1.00  0.00    -0.334 C  
HETATM   34  C   UNL     1     -11.307  16.026  70.229  1.00  0.00    -0.391 C  
BRANCH  33  35
HETATM   35  C   UNL     1     -13.952  15.182  72.441  1.00  0.00    -0.516 C  
HETATM   36  O   UNL     1     -14.030  16.267  73.370  1.00  0.00    -0.808 OA 
HETATM   37  H   UNL     1     -14.930  16.456  73.610  1.00  0.00     0.000 HD 
ENDBRANCH  33  35
ENDBRANCH  17  30
ENDBRANCH  11  13
ENDBRANCH  10  11
ENDBRANCH   7  10
ENDBRANCH   2   3
TORSDOF 9
ENDMDL
MODEL       37
REMARK 921   NORMALIZED FREE ENERGY PREDICTED BY IDOCK:   -6.70 KCAL/MOL
REMARK 922        TOTAL FREE ENERGY PREDICTED BY IDOCK:  -11.75 KCAL/MOL
REMARK 923 INTER-LIGAND FREE ENERGY PREDICTED BY IDOCK:   -9.83 KCAL/MOL
REMARK 924 INTRA-LIGAND FREE ENERGY PREDICTED BY IDOCK:   -1.92 KCAL/MOL
REMARK 927      BINDING AFFINITY PREDICTED BY RF-SCORE:    0.00 PKD
ROOT
HETATM    1  C   UNL     1      -9.990  17.683  66.989  1.00  0.00    -0.320 C  
HETATM    2  O   UNL     1     -10.000  16.828  65.855  1.00  0.00    -0.426 OA 
ENDROOT
BRANCH   2   3
HETATM    3  C   UNL     1      -9.803  15.491  66.081  1.00  0.00    -0.316 A  
HETATM    4  C   UNL     1     -10.604  14.592  65.359  1.00  0.00    -0.374 A  
HETATM    5 CL   UNL     1     -11.861  15.151  64.308  1.00  0.00    -0.346 Cl 
HETATM    6  C   UNL     1     -10.421  13.210  65.478  1.00  0.00    -0.297 A  
HETATM    7  C   UNL     1      -9.419  12.697  66.312  1.00  0.00    -0.207 A  
HETATM    8  C   UNL     1      -8.824  14.976  66.935  1.00  0.00    -0.285 A  
HETATM    9  C   UNL     1      -8.640  13.593  67.055  1.00  0.00    -0.173 A  
BRANCH   7  10
HETATM   10  C   UNL     1      -9.218  11.204  66.446  1.00  0.00    -0.183 C  
BRANCH  10  11
HETATM   11  N   UNL     1     -10.498  10.613  66.792  1.00  0.00    -0.245 NA 
HETATM   12  H   UNL     1     -11.285  10.606  66.144  1.00  0.00     0.000 HD 
BRANCH  11  13
HETATM   13  C   UNL     1     -10.586  10.048  68.080  1.00  0.00    -0.227 A  
HETATM   14  C   UNL     1     -11.183  10.767  69.103  1.00  0.00    -0.323 A  
HETATM   15  C   UNL     1     -11.262  10.118  70.313  1.00  0.00    -0.318 A  
HETATM   16  N   UNL     1     -10.132   8.784  68.274  1.00  0.00    -0.181 NA 
HETATM   17  C   UNL     1     -10.265   8.215  69.489  1.00  0.00    -0.213 A  
HETATM   18  N   UNL     1     -10.801   8.866  70.530  1.00  0.00    -0.228 NA 
BRANCH  14  19
HETATM   19  C   UNL     1     -11.700  12.151  69.012  1.00  0.00    -0.322 C  
HETATM   20  O   UNL     1     -12.524  12.429  68.148  1.00  0.00    -0.028 OA 
HETATM   21  N   UNL     1     -11.250  13.061  69.937  1.00  0.00    -0.486 N  
HETATM   22  H   UNL     1     -10.607  12.748  70.665  1.00  0.00     0.000 HD 
BRANCH  21  23
HETATM   23  C   UNL     1     -11.659  14.458  69.916  1.00  0.00    -0.284 C  
BRANCH  23  24
HETATM   24  C   UNL     1     -12.211  14.979  71.231  1.00  0.00    -0.320 A  
HETATM   25  N   UNL     1     -11.311  15.350  72.168  1.00  0.00    -0.417 NA 
HETATM   26  C   UNL     1     -11.800  15.853  73.316  1.00  0.00    -0.357 A  
HETATM   27  N   UNL     1     -13.552  15.058  71.396  1.00  0.00    -0.426 NA 
HETATM   28  C   UNL     1     -13.981  15.579  72.563  1.00  0.00    -0.555 A  
HETATM   29  C   UNL     1     -13.142  15.996  73.569  1.00  0.00    -0.665 A  
ENDBRANCH  23  24
ENDBRANCH  21  23
ENDBRANCH  14  19
BRANCH  17  30
HETATM   30  N   UNL     1      -9.836   6.932  69.682  1.00  0.00    -0.166 NA 
HETATM   31  C   UNL     1      -8.662   5.302  70.944  1.00  0.00    -0.141 C  
HETATM   32  C   UNL     1     -10.733   5.800  69.746  1.00  0.00    -0.348 C  
HETATM   33  C   UNL     1      -8.494   6.621  70.172  1.00  0.00    -0.136 C  
HETATM   34  C   UNL     1     -10.129   4.904  70.822  1.00  0.00    -0.303 C  
BRANCH  33  35
HETATM   35  C   UNL     1      -7.526   6.464  68.981  1.00  0.00    -0.095 C  
HETATM   36  O   UNL     1      -8.198   6.653  67.733  1.00  0.00    -0.117 OA 
HETATM   37  H   UNL     1      -7.603   6.556  66.999  1.00  0.00     0.000 HD 
ENDBRANCH  33  35
ENDBRANCH  17  30
ENDBRANCH  11  13
ENDBRANCH  10  11
ENDBRANCH   7  10
ENDBRANCH   2   3
TORSDOF 9
ENDMDL
MODEL       38
REMARK 921   NORMALIZED FREE ENERGY PREDICTED BY IDOCK:   -6.70 KCAL/MOL
REMARK 922        TOTAL FREE ENERGY PREDICTED BY IDOCK:  -11.75 KCAL/MOL
REMARK 923 INTER-LIGAND FREE ENERGY PREDICTED BY IDOCK:  -10.89 KCAL/MOL
REMARK 924 INTRA-LIGAND FREE ENERGY PREDICTED BY IDOCK:   -0.85 KCAL/MOL
REMARK 927      BINDING AFFINITY PREDICTED BY RF-SCORE:    0.00 PKD
ROOT
HETATM    1  C   UNL     1     -10.303   6.743  74.182  1.00  0.00    -0.291 C  
HETATM    2  O   UNL     1     -11.066   6.654  72.987  1.00  0.00    -0.255 OA 
ENDROOT
BRANCH   2   3
HETATM    3  C   UNL     1     -11.183   7.794  72.236  1.00  0.00    -0.312 A  
HETATM    4  C   UNL     1     -10.018   8.284  71.626  1.00  0.00    -0.212 A  
HETATM    5 CL   UNL     1      -8.479   7.540  71.897  1.00  0.00    -0.115 Cl 
HETATM    6  C   UNL     1     -10.062   9.402  70.786  1.00  0.00    -0.366 A  
HETATM    7  C   UNL     1     -11.278  10.047  70.528  1.00  0.00    -0.408 A  
HETATM    8  C   UNL     1     -12.391   8.457  72.000  1.00  0.00    -0.413 A  
HETATM    9  C   UNL     1     -12.436   9.577  71.161  1.00  0.00    -0.399 A  
BRANCH   7  10
HETATM   10  C   UNL     1     -11.332  11.258  69.623  1.00  0.00    -0.287 C  
BRANCH  10  11
HETATM   11  N   UNL     1     -11.974  10.858  68.383  1.00  0.00    -0.779 NA 
HETATM   12  H   UNL     1     -12.969  11.007  68.216  1.00  0.00     0.000 HD 
BRANCH  11  13
HETATM   13  C   UNL     1     -11.138  10.250  67.426  1.00  0.00    -0.189 A  
HETATM   14  C   UNL     1     -10.823  10.931  66.261  1.00  0.00    -0.191 A  
HETATM   15  C   UNL     1      -9.967  10.277  65.407  1.00  0.00    -0.302 A  
HETATM   16  N   UNL     1     -10.612   9.029  67.696  1.00  0.00    -0.255 NA 
HETATM   17  C   UNL     1      -9.765   8.466  66.812  1.00  0.00    -0.242 A  
HETATM   18  N   UNL     1      -9.446   9.054  65.652  1.00  0.00    -0.234 NA 
BRANCH  14  19
HETATM   19  C   UNL     1     -11.345  12.256  65.856  1.00  0.00    -0.360 C  
HETATM   20  O   UNL     1     -12.522  12.528  66.063  1.00  0.00    -0.565 OA 
HETATM   21  N   UNL     1     -10.461  13.142  65.289  1.00  0.00    -0.298 N  
HETATM   22  H   UNL     1      -9.481  12.871  65.198  1.00  0.00     0.000 HD 
BRANCH  21  23
HETATM   23  C   UNL     1     -10.873  14.455  64.815  1.00  0.00    -0.399 C  
BRANCH  23  24
HETATM   24  C   UNL     1     -10.668  15.583  65.810  1.00  0.00    -0.353 A  
HETATM   25  N   UNL     1     -10.114  16.722  65.337  1.00  0.00    -0.596 NA 
HETATM   26  C   UNL     1      -9.973  17.738  66.210  1.00  0.00    -0.318 A  
HETATM   27  N   UNL     1     -11.053  15.406  67.095  1.00  0.00    -0.318 NA 
HETATM   28  C   UNL     1     -10.896  16.461  67.919  1.00  0.00    -0.328 A  
HETATM   29  C   UNL     1     -10.355  17.663  67.526  1.00  0.00    -0.365 A  
ENDBRANCH  23  24
ENDBRANCH  21  23
ENDBRANCH  14  19
BRANCH  17  30
HETATM   30  N   UNL     1      -9.209   7.249  67.093  1.00  0.00    -0.131 NA 
HETATM   31  C   UNL     1      -8.088   5.272  66.415  1.00  0.00    -0.108 C  
HETATM   32  C   UNL     1      -8.163   7.065  68.074  1.00  0.00    -0.119 C  
HETATM   33  C   UNL     1      -9.371   6.093  66.212  1.00  0.00    -0.134 C  
HETATM   34  C   UNL     1      -7.252   6.010  67.455  1.00  0.00    -0.076 C  
BRANCH  33  35
HETATM   35  C   UNL     1     -10.627   5.297  66.622  1.00  0.00    -0.270 C  
HETATM   36  O   UNL     1     -11.378   4.879  65.478  1.00  0.00    -0.906 OA 
HETATM   37  H   UNL     1     -12.152   4.388  65.730  1.00  0.00     0.000 HD 
ENDBRANCH  33  35
ENDBRANCH  17  30
ENDBRANCH  11  13
ENDBRANCH  10  11
ENDBRANCH   7  10
ENDBRANCH   2   3
TORSDOF 9
ENDMDL
MODEL       39
REMARK 921   NORMALIZED FREE ENERGY PREDICTED BY IDOCK:   -6.62 KCAL/MOL
REMARK 922        TOTAL FREE ENERGY PREDICTED BY IDOCK:  -11.63 KCAL/MOL
REMARK 923 INTER-LIGAND FREE ENERGY PREDICTED BY IDOCK:   -9.80 KCAL/MOL
REMARK 924 INTRA-LIGAND FREE ENERGY PREDICTED BY IDOCK:   -1.83 KCAL/MOL
REMARK 927      BINDING AFFINITY PREDICTED BY RF-SCORE:    0.00 PKD
ROOT
HETATM    1  C   UNL     1     -10.986   4.241  73.157  1.00  0.00    -0.211 C  
HETATM    2  O   UNL     1     -10.555   5.467  73.732  1.00  0.00    -0.251 OA 
ENDROOT
BRANCH   2   3
HETATM    3  C   UNL     1     -10.810   6.611  73.023  1.00  0.00    -0.267 A  
HETATM    4  C   UNL     1      -9.863   7.644  73.108  1.00  0.00    -0.279 A  
HETATM    5 CL   UNL     1      -8.486   7.518  74.150  1.00  0.00    -0.239 Cl 
HETATM    6  C   UNL     1     -10.010   8.818  72.362  1.00  0.00    -0.224 A  
HETATM    7  C   UNL     1     -11.103   8.979  71.501  1.00  0.00    -0.419 A  
HETATM    8  C   UNL     1     -11.915   6.786  72.185  1.00  0.00    -0.309 A  
HETATM    9  C   UNL     1     -12.064   7.961  71.439  1.00  0.00    -0.333 A  
BRANCH   7  10
HETATM   10  C   UNL     1     -11.270  10.247  70.693  1.00  0.00    -0.325 C  
BRANCH  10  11
HETATM   11  N   UNL     1     -12.003   9.911  69.486  1.00  0.00    -0.435 NA 
HETATM   12  H   UNL     1     -12.881   9.391  69.511  1.00  0.00     0.000 HD 
BRANCH  11  13
HETATM   13  C   UNL     1     -11.427  10.346  68.276  1.00  0.00    -0.144 A  
HETATM   14  C   UNL     1     -10.552   9.514  67.597  1.00  0.00    -0.329 A  
HETATM   15  C   UNL     1     -10.074  10.006  66.405  1.00  0.00    -0.241 A  
HETATM   16  N   UNL     1     -11.790  11.553  67.774  1.00  0.00    -0.626 NA 
HETATM   17  C   UNL     1     -11.288  11.952  66.589  1.00  0.00    -0.337 A  
HETATM   18  N   UNL     1     -10.412  11.212  65.897  1.00  0.00    -0.257 NA 
BRANCH  14  19
HETATM   19  C   UNL     1     -10.076   8.188  68.051  1.00  0.00    -0.197 C  
HETATM   20  O   UNL     1      -8.907   8.054  68.394  1.00  0.00    -0.134 OA 
HETATM   21  N   UNL     1     -10.992   7.165  68.100  1.00  0.00    -0.471 N  
HETATM   22  H   UNL     1     -11.963   7.361  67.854  1.00  0.00     0.000 HD 
BRANCH  21  23
HETATM   23  C   UNL     1     -10.625   5.812  68.490  1.00  0.00    -0.229 C  
BRANCH  23  24
HETATM   24  C   UNL     1     -10.149   4.929  67.350  1.00  0.00    -0.150 A  
HETATM   25  N   UNL     1     -10.677   5.169  66.130  1.00  0.00    -0.265 NA 
HETATM   26  C   UNL     1     -10.222   4.415  65.111  1.00  0.00    -0.179 A  
HETATM   27  N   UNL     1      -9.227   3.971  67.601  1.00  0.00    -0.146 NA 
HETATM   28  C   UNL     1      -8.802   3.256  66.540  1.00  0.00    -0.142 A  
HETATM   29  C   UNL     1      -9.271   3.436  65.260  1.00  0.00    -0.150 A  
ENDBRANCH  23  24
ENDBRANCH  21  23
ENDBRANCH  14  19
BRANCH  17  30
HETATM   30  N   UNL     1     -11.674  13.154  66.064  1.00  0.00    -0.360 NA 
HETATM   31  C   UNL     1     -11.170  15.210  64.994  1.00  0.00    -0.414 C  
HETATM   32  C   UNL     1     -12.669  13.281  65.024  1.00  0.00    -0.375 C  
HETATM   33  C   UNL     1     -10.895  14.377  66.256  1.00  0.00    -0.313 C  
HETATM   34  C   UNL     1     -12.146  14.407  64.140  1.00  0.00    -0.405 C  
BRANCH  33  35
HETATM   35  C   UNL     1     -11.367  15.103  67.532  1.00  0.00    -0.320 C  
HETATM   36  O   UNL     1     -10.727  16.373  67.680  1.00  0.00    -0.322 OA 
HETATM   37  H   UNL     1     -11.017  16.821  68.465  1.00  0.00     0.000 HD 
ENDBRANCH  33  35
ENDBRANCH  17  30
ENDBRANCH  11  13
ENDBRANCH  10  11
ENDBRANCH   7  10
ENDBRANCH   2   3
TORSDOF 9
ENDMDL
MODEL       40
REMARK 921   NORMALIZED FREE ENERGY PREDICTED BY IDOCK:   -6.62 KCAL/MOL
REMARK 922        TOTAL FREE ENERGY PREDICTED BY IDOCK:  -11.63 KCAL/MOL
REMARK 923 INTER-LIGAND FREE ENERGY PREDICTED BY IDOCK:   -9.04 KCAL/MOL
REMARK 924 INTRA-LIGAND FREE ENERGY PREDICTED BY IDOCK:   -2.58 KCAL/MOL
REMARK 927      BINDING AFFINITY PREDICTED BY RF-SCORE:    0.00 PKD
ROOT
HETATM    1  C   UNL     1     -11.475  15.999  64.451  1.00  0.00    -0.242 C  
HETATM    2  O   UNL     1     -11.085  14.634  64.503  1.00  0.00    -0.343 OA 
ENDROOT
BRANCH   2   3
HETATM    3  C   UNL     1     -11.408  13.937  65.638  1.00  0.00    -0.309 A  
HETATM    4  C   UNL     1     -11.344  12.537  65.571  1.00  0.00    -0.331 A  
HETATM    5 CL   UNL     1     -10.977  11.722  64.088  1.00  0.00    -0.404 Cl 
HETATM    6  C   UNL     1     -11.590  11.750  66.702  1.00  0.00    -0.273 A  
HETATM    7  C   UNL     1     -11.891  12.351  67.931  1.00  0.00    -0.370 A  
HETATM    8  C   UNL     1     -11.737  14.534  66.858  1.00  0.00    -0.399 A  
HETATM    9  C   UNL     1     -11.985  13.748  67.990  1.00  0.00    -0.390 A  
BRANCH   7  10
HETATM   10  C   UNL     1     -12.161  11.508  69.157  1.00  0.00    -0.263 C  
BRANCH  10  11
HETATM   11  N   UNL     1     -10.962  11.520  69.976  1.00  0.00    -0.425 NA 
HETATM   12  H   UNL     1     -10.590  12.379  70.381  1.00  0.00     0.000 HD 
BRANCH  11  13
HETATM   13  C   UNL     1     -10.342  10.270  70.177  1.00  0.00    -0.153 A  
HETATM   14  C   UNL     1      -9.169   9.972  69.502  1.00  0.00    -0.238 A  
HETATM   15  C   UNL     1      -8.614   8.748  69.794  1.00  0.00    -0.131 A  
HETATM   16  N   UNL     1     -10.882   9.407  71.073  1.00  0.00    -0.308 NA 
HETATM   17  C   UNL     1     -10.263   8.234  71.314  1.00  0.00    -0.202 A  
HETATM   18  N   UNL     1      -9.146   7.869  70.672  1.00  0.00    -0.152 NA 
BRANCH  14  19
HETATM   19  C   UNL     1      -8.498  10.827  68.497  1.00  0.00    -0.143 C  
HETATM   20  O   UNL     1      -8.205  10.353  67.405  1.00  0.00    -0.117 OA 
HETATM   21  N   UNL     1      -8.264  12.139  68.830  1.00  0.00    -0.344 N  
HETATM   22  H   UNL     1      -8.585  12.483  69.736  1.00  0.00     0.000 HD 
BRANCH  21  23
HETATM   23  C   UNL     1      -7.574  13.057  67.936  1.00  0.00    -0.144 C  
BRANCH  23  24
HETATM   24  C   UNL     1      -8.129  14.470  67.924  1.00  0.00    -0.148 A  
HETATM   25  N   UNL     1      -8.632  14.940  69.087  1.00  0.00    -0.176 NA 
HETATM   26  C   UNL     1      -9.083  16.208  69.087  1.00  0.00    -0.243 A  
HETATM   27  N   UNL     1      -8.085  15.184  66.775  1.00  0.00    -0.159 NA 
HETATM   28  C   UNL     1      -8.543  16.451  66.839  1.00  0.00    -0.214 A  
HETATM   29  C   UNL     1      -9.059  17.020  67.980  1.00  0.00    -0.237 A  
ENDBRANCH  23  24
ENDBRANCH  21  23
ENDBRANCH  14  19
BRANCH  17  30
HETATM   30  N   UNL     1     -10.787   7.374  72.238  1.00  0.00    -0.233 NA 
HETATM   31  C   UNL     1     -11.322   5.180  72.965  1.00  0.00    -0.381 C  
HETATM   32  C   UNL     1     -10.341   7.323  73.613  1.00  0.00    -0.352 C  
HETATM   33  C   UNL     1     -11.592   6.213  71.859  1.00  0.00    -0.296 C  
HETATM   34  C   UNL     1     -10.374   5.839  73.961  1.00  0.00    -0.295 C  
BRANCH  33  35
HETATM   35  C   UNL     1     -13.081   6.608  71.799  1.00  0.00    -0.081 C  
HETATM   36  O   UNL     1     -13.383   7.334  70.605  1.00  0.00    -0.543 OA 
HETATM   37  H   UNL     1     -14.301   7.577  70.567  1.00  0.00     0.000 HD 
ENDBRANCH  33  35
ENDBRANCH  17  30
ENDBRANCH  11  13
ENDBRANCH  10  11
ENDBRANCH   7  10
ENDBRANCH   2   3
TORSDOF 9
ENDMDL
MODEL       41
REMARK 921   NORMALIZED FREE ENERGY PREDICTED BY IDOCK:   -6.61 KCAL/MOL
REMARK 922        TOTAL FREE ENERGY PREDICTED BY IDOCK:  -11.62 KCAL/MOL
REMARK 923 INTER-LIGAND FREE ENERGY PREDICTED BY IDOCK:   -9.84 KCAL/MOL
REMARK 924 INTRA-LIGAND FREE ENERGY PREDICTED BY IDOCK:   -1.78 KCAL/MOL
REMARK 927      BINDING AFFINITY PREDICTED BY RF-SCORE:    0.00 PKD
ROOT
HETATM    1  C   UNL     1     -13.859  15.841  72.868  1.00  0.00    -0.488 C  
HETATM    2  O   UNL     1     -12.964  15.734  71.770  1.00  0.00    -0.448 OA 
ENDROOT
BRANCH   2   3
HETATM    3  C   UNL     1     -12.768  14.484  71.245  1.00  0.00    -0.342 A  
HETATM    4  C   UNL     1     -12.087  14.401  70.020  1.00  0.00    -0.343 A  
HETATM    5 CL   UNL     1     -11.611  15.824  69.158  1.00  0.00    -0.378 Cl 
HETATM    6  C   UNL     1     -11.783  13.160  69.449  1.00  0.00    -0.386 A  
HETATM    7  C   UNL     1     -12.141  11.973  70.100  1.00  0.00    -0.377 A  
HETATM    8  C   UNL     1     -13.151  13.298  71.879  1.00  0.00    -0.483 A  
HETATM    9  C   UNL     1     -12.847  12.056  71.307  1.00  0.00    -0.364 A  
BRANCH   7  10
HETATM   10  C   UNL     1     -11.818  10.629  69.487  1.00  0.00    -0.273 C  
BRANCH  10  11
HETATM   11  N   UNL     1     -10.391  10.404  69.639  1.00  0.00    -0.290 NA 
HETATM   12  H   UNL     1      -9.722  11.173  69.675  1.00  0.00     0.000 HD 
BRANCH  11  13
HETATM   13  C   UNL     1      -9.988   9.057  69.734  1.00  0.00    -0.196 A  
HETATM   14  C   UNL     1      -9.282   8.479  68.691  1.00  0.00    -0.142 A  
HETATM   15  C   UNL     1      -8.894   7.175  68.891  1.00  0.00    -0.130 A  
HETATM   16  N   UNL     1     -10.255   8.372  70.873  1.00  0.00    -0.190 NA 
HETATM   17  C   UNL     1      -9.822   7.101  70.995  1.00  0.00    -0.180 A  
HETATM   18  N   UNL     1      -9.164   6.472  70.013  1.00  0.00    -0.157 NA 
BRANCH  14  19
HETATM   19  C   UNL     1      -8.947   9.123  67.400  1.00  0.00    -0.117 C  
HETATM   20  O   UNL     1      -7.800   9.504  67.199  1.00  0.00    -0.095 OA 
HETATM   21  N   UNL     1      -9.947   9.232  66.464  1.00  0.00    -0.256 N  
HETATM   22  H   UNL     1     -10.866   8.843  66.677  1.00  0.00     0.000 HD 
BRANCH  21  23
HETATM   23  C   UNL     1      -9.741   9.885  65.180  1.00  0.00    -0.306 C  
BRANCH  23  24
HETATM   24  C   UNL     1     -10.620  11.099  64.936  1.00  0.00    -0.289 A  
HETATM   25  N   UNL     1     -11.117  11.723  66.026  1.00  0.00    -0.319 NA 
HETATM   26  C   UNL     1     -11.860  12.825  65.811  1.00  0.00    -0.434 A  
HETATM   27  N   UNL     1     -10.851  11.498  63.664  1.00  0.00    -0.402 NA 
HETATM   28  C   UNL     1     -11.594  12.613  63.512  1.00  0.00    -0.514 A  
HETATM   29  C   UNL     1     -12.130  13.323  64.561  1.00  0.00    -0.461 A  
ENDBRANCH  23  24
ENDBRANCH  21  23
ENDBRANCH  14  19
BRANCH  17  30
HETATM   30  N   UNL     1     -10.061   6.416  72.153  1.00  0.00    -0.177 NA 
HETATM   31  C   UNL     1      -9.302   5.172  74.025  1.00  0.00    -0.128 C  
HETATM   32  C   UNL     1     -10.754   6.992  73.284  1.00  0.00    -0.340 C  
HETATM   33  C   UNL     1      -9.360   5.177  72.489  1.00  0.00    -0.135 C  
HETATM   34  C   UNL     1     -10.022   6.430  74.498  1.00  0.00    -0.370 C  
BRANCH  33  35
HETATM   35  C   UNL     1     -10.147   3.968  71.944  1.00  0.00    -0.144 C  
HETATM   36  O   UNL     1      -9.683   3.582  70.647  1.00  0.00    -0.180 OA 
HETATM   37  H   UNL     1     -10.167   2.837  70.311  1.00  0.00     0.000 HD 
ENDBRANCH  33  35
ENDBRANCH  17  30
ENDBRANCH  11  13
ENDBRANCH  10  11
ENDBRANCH   7  10
ENDBRANCH   2   3
TORSDOF 9
ENDMDL
MODEL       42
REMARK 921   NORMALIZED FREE ENERGY PREDICTED BY IDOCK:   -6.60 KCAL/MOL
REMARK 922        TOTAL FREE ENERGY PREDICTED BY IDOCK:  -11.61 KCAL/MOL
REMARK 923 INTER-LIGAND FREE ENERGY PREDICTED BY IDOCK:  -10.03 KCAL/MOL
REMARK 924 INTRA-LIGAND FREE ENERGY PREDICTED BY IDOCK:   -1.58 KCAL/MOL
REMARK 927      BINDING AFFINITY PREDICTED BY RF-SCORE:    0.00 PKD
ROOT
HETATM    1  C   UNL     1     -11.270   4.025  73.370  1.00  0.00    -0.217 C  
HETATM    2  O   UNL     1     -10.507   5.214  73.520  1.00  0.00    -0.195 OA 
ENDROOT
BRANCH   2   3
HETATM    3  C   UNL     1     -10.983   6.342  72.905  1.00  0.00    -0.254 A  
HETATM    4  C   UNL     1     -10.264   7.532  73.101  1.00  0.00    -0.327 A  
HETATM    5 CL   UNL     1      -8.897   7.593  74.161  1.00  0.00    -0.294 Cl 
HETATM    6  C   UNL     1     -10.640   8.714  72.453  1.00  0.00    -0.310 A  
HETATM    7  C   UNL     1     -11.738   8.727  71.583  1.00  0.00    -0.402 A  
HETATM    8  C   UNL     1     -12.095   6.364  72.058  1.00  0.00    -0.353 A  
HETATM    9  C   UNL     1     -12.472   7.547  71.411  1.00  0.00    -0.382 A  
BRANCH   7  10
HETATM   10  C   UNL     1     -12.151  10.002  70.882  1.00  0.00    -0.355 C  
BRANCH  10  11
HETATM   11  N   UNL     1     -10.959  10.596  70.303  1.00  0.00    -0.448 NA 
HETATM   12  H   UNL     1     -10.361  11.235  70.828  1.00  0.00     0.000 HD 
BRANCH  11  13
HETATM   13  C   UNL     1     -10.678  10.237  68.970  1.00  0.00    -0.227 A  
HETATM   14  C   UNL     1     -10.810  11.181  67.964  1.00  0.00    -0.274 A  
HETATM   15  C   UNL     1     -10.473  10.751  66.702  1.00  0.00    -0.246 A  
HETATM   16  N   UNL     1     -10.229   8.983  68.710  1.00  0.00    -0.203 NA 
HETATM   17  C   UNL     1      -9.903   8.649  67.445  1.00  0.00    -0.192 A  
HETATM   18  N   UNL     1     -10.039   9.502  66.421  1.00  0.00    -0.264 NA 
BRANCH  14  19
HETATM   19  C   UNL     1     -11.301  12.568  68.127  1.00  0.00    -0.295 C  
HETATM   20  O   UNL     1     -12.055  13.041  67.285  1.00  0.00    -0.348 OA 
HETATM   21  N   UNL     1     -10.908  13.255  69.250  1.00  0.00    -0.440 N  
HETATM   22  H   UNL     1     -10.324  12.780  69.939  1.00  0.00     0.000 HD 
BRANCH  21  23
HETATM   23  C   UNL     1     -11.294  14.637  69.491  1.00  0.00    -0.280 C  
BRANCH  23  24
HETATM   24  C   UNL     1     -12.036  14.871  70.795  1.00  0.00    -0.314 A  
HETATM   25  N   UNL     1     -11.295  15.254  71.859  1.00  0.00    -0.422 NA 
HETATM   26  C   UNL     1     -11.958  15.505  73.003  1.00  0.00    -0.461 A  
HETATM   27  N   UNL     1     -13.378  14.702  70.829  1.00  0.00    -0.301 NA 
HETATM   28  C   UNL     1     -13.987  14.977  72.000  1.00  0.00    -0.503 A  
HETATM   29  C   UNL     1     -13.319  15.385  73.131  1.00  0.00    -0.608 A  
ENDBRANCH  23  24
ENDBRANCH  21  23
ENDBRANCH  14  19
BRANCH  17  30
HETATM   30  N   UNL     1      -9.422   7.397  67.182  1.00  0.00    -0.142 NA 
HETATM   31  C   UNL     1      -9.627   5.264  66.164  1.00  0.00    -0.176 C  
HETATM   32  C   UNL     1      -8.135   7.157  66.568  1.00  0.00    -0.114 C  
HETATM   33  C   UNL     1     -10.280   6.213  67.183  1.00  0.00    -0.199 C  
HETATM   34  C   UNL     1      -8.377   5.967  65.646  1.00  0.00    -0.145 C  
BRANCH  33  35
HETATM   35  C   UNL     1     -10.316   5.595  68.595  1.00  0.00    -0.208 C  
HETATM   36  O   UNL     1      -9.129   5.901  69.332  1.00  0.00    -0.126 OA 
HETATM   37  H   UNL     1      -9.150   5.521  70.202  1.00  0.00     0.000 HD 
ENDBRANCH  33  35
ENDBRANCH  17  30
ENDBRANCH  11  13
ENDBRANCH  10  11
ENDBRANCH   7  10
ENDBRANCH   2   3
TORSDOF 9
ENDMDL
MODEL       43
REMARK 921   NORMALIZED FREE ENERGY PREDICTED BY IDOCK:   -6.53 KCAL/MOL
REMARK 922        TOTAL FREE ENERGY PREDICTED BY IDOCK:  -11.50 KCAL/MOL
REMARK 923 INTER-LIGAND FREE ENERGY PREDICTED BY IDOCK:   -9.90 KCAL/MOL
REMARK 924 INTRA-LIGAND FREE ENERGY PREDICTED BY IDOCK:   -1.60 KCAL/MOL
REMARK 927      BINDING AFFINITY PREDICTED BY RF-SCORE:    0.00 PKD
ROOT
HETATM    1  C   UNL     1      -7.232  20.062  67.983  1.00  0.00    -0.293 C  
HETATM    2  O   UNL     1      -7.862  19.761  66.746  1.00  0.00    -0.267 OA 
ENDROOT
BRANCH   2   3
HETATM    3  C   UNL     1      -8.394  18.506  66.607  1.00  0.00    -0.272 A  
HETATM    4  C   UNL     1      -9.789  18.409  66.487  1.00  0.00    -0.359 A  
HETATM    5 CL   UNL     1     -10.803  19.806  66.617  1.00  0.00    -0.523 Cl 
HETATM    6  C   UNL     1     -10.408  17.172  66.272  1.00  0.00    -0.315 A  
HETATM    7  C   UNL     1      -9.641  16.006  66.157  1.00  0.00    -0.366 A  
HETATM    8  C   UNL     1      -7.632  17.336  66.521  1.00  0.00    -0.324 A  
HETATM    9  C   UNL     1      -8.251  16.099  66.307  1.00  0.00    -0.275 A  
BRANCH   7  10
HETATM   10  C   UNL     1     -10.304  14.666  65.927  1.00  0.00    -0.319 C  
BRANCH  10  11
HETATM   11  N   UNL     1      -9.661  13.697  66.797  1.00  0.00    -0.267 NA 
HETATM   12  H   UNL     1      -8.655  13.527  66.769  1.00  0.00     0.000 HD 
BRANCH  11  13
HETATM   13  C   UNL     1     -10.512  13.006  67.681  1.00  0.00    -0.225 A  
HETATM   14  C   UNL     1     -10.708  11.644  67.517  1.00  0.00    -0.257 A  
HETATM   15  C   UNL     1     -11.520  11.047  68.454  1.00  0.00    -0.308 A  
HETATM   16  N   UNL     1     -11.077  13.684  68.711  1.00  0.00    -0.260 NA 
HETATM   17  C   UNL     1     -11.845  13.018  69.596  1.00  0.00    -0.319 A  
HETATM   18  N   UNL     1     -12.104  11.709  69.477  1.00  0.00    -0.295 NA 
BRANCH  14  19
HETATM   19  C   UNL     1     -10.157  10.806  66.429  1.00  0.00    -0.227 C  
HETATM   20  O   UNL     1     -10.426  11.079  65.265  1.00  0.00    -0.273 OA 
HETATM   21  N   UNL     1      -9.328   9.768  66.781  1.00  0.00    -0.148 N  
HETATM   22  H   UNL     1      -9.100   9.632  67.766  1.00  0.00     0.000 HD 
BRANCH  21  23
HETATM   23  C   UNL     1      -8.765   8.855  65.798  1.00  0.00    -0.176 C  
BRANCH  23  24
HETATM   24  C   UNL     1      -8.508   7.449  66.309  1.00  0.00    -0.137 A  
HETATM   25  N   UNL     1      -8.585   6.447  65.406  1.00  0.00    -0.122 NA 
HETATM   26  C   UNL     1      -8.314   5.205  65.851  1.00  0.00    -0.118 A  
HETATM   27  N   UNL     1      -8.209   7.269  67.617  1.00  0.00    -0.114 NA 
HETATM   28  C   UNL     1      -7.938   6.005  68.000  1.00  0.00    -0.109 A  
HETATM   29  C   UNL     1      -7.977   4.924  67.152  1.00  0.00    -0.099 A  
ENDBRANCH  23  24
ENDBRANCH  21  23
ENDBRANCH  14  19
BRANCH  17  30
HETATM   30  N   UNL     1     -12.393  13.690  70.653  1.00  0.00    -0.361 NA 
HETATM   31  C   UNL     1     -13.924  15.268  71.542  1.00  0.00    -0.627 C  
HETATM   32  C   UNL     1     -12.987  13.026  71.791  1.00  0.00    -0.321 C  
HETATM   33  C   UNL     1     -12.731  15.111  70.585  1.00  0.00    -0.398 C  
HETATM   34  C   UNL     1     -14.189  13.893  72.145  1.00  0.00    -0.595 C  
BRANCH  33  35
HETATM   35  C   UNL     1     -11.524  15.958  71.036  1.00  0.00    -0.418 C  
HETATM   36  O   UNL     1     -11.005  16.745  69.960  1.00  0.00    -0.415 OA 
HETATM   37  H   UNL     1     -10.261  17.266  70.238  1.00  0.00     0.000 HD 
ENDBRANCH  33  35
ENDBRANCH  17  30
ENDBRANCH  11  13
ENDBRANCH  10  11
ENDBRANCH   7  10
ENDBRANCH   2   3
TORSDOF 9
ENDMDL
MODEL       44
REMARK 921   NORMALIZED FREE ENERGY PREDICTED BY IDOCK:   -6.51 KCAL/MOL
REMARK 922        TOTAL FREE ENERGY PREDICTED BY IDOCK:  -11.46 KCAL/MOL
REMARK 923 INTER-LIGAND FREE ENERGY PREDICTED BY IDOCK:   -9.09 KCAL/MOL
REMARK 924 INTRA-LIGAND FREE ENERGY PREDICTED BY IDOCK:   -2.37 KCAL/MOL
REMARK 927      BINDING AFFINITY PREDICTED BY RF-SCORE:    0.00 PKD
ROOT
HETATM    1  C   UNL     1     -11.918  16.080  72.733  1.00  0.00    -0.518 C  
HETATM    2  O   UNL     1     -12.910  15.791  71.757  1.00  0.00    -0.438 OA 
ENDROOT
BRANCH   2   3
HETATM    3  C   UNL     1     -12.483  15.238  70.579  1.00  0.00    -0.405 A  
HETATM    4  C   UNL     1     -12.621  13.849  70.434  1.00  0.00    -0.282 A  
HETATM    5 CL   UNL     1     -13.206  12.863  71.730  1.00  0.00    -0.511 Cl 
HETATM    6  C   UNL     1     -12.275  13.213  69.236  1.00  0.00    -0.165 A  
HETATM    7  C   UNL     1     -11.796  13.958  68.151  1.00  0.00    -0.407 A  
HETATM    8  C   UNL     1     -11.978  15.976  69.504  1.00  0.00    -0.194 A  
HETATM    9  C   UNL     1     -11.631  15.340  68.306  1.00  0.00    -0.357 A  
BRANCH   7  10
HETATM   10  C   UNL     1     -11.418  13.276  66.855  1.00  0.00    -0.338 C  
BRANCH  10  11
HETATM   11  N   UNL     1      -9.992  13.462  66.655  1.00  0.00    -0.270 NA 
HETATM   12  H   UNL     1      -9.621  14.152  66.002  1.00  0.00     0.000 HD 
BRANCH  11  13
HETATM   13  C   UNL     1      -9.151  12.629  67.420  1.00  0.00    -0.191 A  
HETATM   14  C   UNL     1      -8.125  13.190  68.163  1.00  0.00    -0.155 A  
HETATM   15  C   UNL     1      -7.385  12.304  68.911  1.00  0.00    -0.041 A  
HETATM   16  N   UNL     1      -9.404  11.297  67.454  1.00  0.00    -0.161 NA 
HETATM   17  C   UNL     1      -8.640  10.501  68.229  1.00  0.00    -0.127 A  
HETATM   18  N   UNL     1      -7.612  10.973  68.946  1.00  0.00    -0.126 NA 
BRANCH  14  19
HETATM   19  C   UNL     1      -7.749  14.621  68.193  1.00  0.00    -0.125 C  
HETATM   20  O   UNL     1      -7.432  15.137  69.259  1.00  0.00    -0.162 OA 
HETATM   21  N   UNL     1      -7.742  15.303  67.000  1.00  0.00    -0.232 N  
HETATM   22  H   UNL     1      -7.963  14.797  66.142  1.00  0.00     0.000 HD 
BRANCH  21  23
HETATM   23  C   UNL     1      -7.431  16.722  66.918  1.00  0.00    -0.222 C  
BRANCH  23  24
HETATM   24  C   UNL     1      -8.628  17.645  67.066  1.00  0.00    -0.237 A  
HETATM   25  N   UNL     1      -9.324  17.928  65.943  1.00  0.00    -0.514 NA 
HETATM   26  C   UNL     1     -10.411  18.710  66.082  1.00  0.00    -0.430 A  
HETATM   27  N   UNL     1      -8.943  18.122  68.293  1.00  0.00    -0.290 NA 
HETATM   28  C   UNL     1     -10.047  18.892  68.370  1.00  0.00    -0.392 A  
HETATM   29  C   UNL     1     -10.826  19.222  67.286  1.00  0.00    -0.554 A  
ENDBRANCH  23  24
ENDBRANCH  21  23
ENDBRANCH  14  19
BRANCH  17  30
HETATM   30  N   UNL     1      -8.910   9.162  68.291  1.00  0.00    -0.129 NA 
HETATM   31  C   UNL     1      -8.206   6.897  68.230  1.00  0.00    -0.123 C  
HETATM   32  C   UNL     1      -9.575   8.540  69.414  1.00  0.00    -0.170 C  
HETATM   33  C   UNL     1      -8.266   8.193  67.405  1.00  0.00    -0.122 C  
HETATM   34  C   UNL     1      -8.868   7.198  69.570  1.00  0.00    -0.137 C  
BRANCH  33  35
HETATM   35  C   UNL     1      -9.108   8.016  66.125  1.00  0.00    -0.176 C  
HETATM   36  O   UNL     1      -9.465   6.646  65.919  1.00  0.00    -0.385 OA 
HETATM   37  H   UNL     1      -9.983   6.536  65.131  1.00  0.00     0.000 HD 
ENDBRANCH  33  35
ENDBRANCH  17  30
ENDBRANCH  11  13
ENDBRANCH  10  11
ENDBRANCH   7  10
ENDBRANCH   2   3
TORSDOF 9
ENDMDL
MODEL       45
REMARK 921   NORMALIZED FREE ENERGY PREDICTED BY IDOCK:   -6.50 KCAL/MOL
REMARK 922        TOTAL FREE ENERGY PREDICTED BY IDOCK:  -11.45 KCAL/MOL
REMARK 923 INTER-LIGAND FREE ENERGY PREDICTED BY IDOCK:  -10.59 KCAL/MOL
REMARK 924 INTRA-LIGAND FREE ENERGY PREDICTED BY IDOCK:   -0.86 KCAL/MOL
REMARK 927      BINDING AFFINITY PREDICTED BY RF-SCORE:    0.00 PKD
ROOT
HETATM    1  C   UNL     1     -12.908  14.773  73.578  1.00  0.00    -0.404 C  
HETATM    2  O   UNL     1     -13.697  13.950  72.730  1.00  0.00    -0.686 OA 
ENDROOT
BRANCH   2   3
HETATM    3  C   UNL     1     -13.068  13.377  71.657  1.00  0.00    -0.375 A  
HETATM    4  C   UNL     1     -12.520  14.242  70.696  1.00  0.00    -0.358 A  
HETATM    5 CL   UNL     1     -12.725  15.957  70.809  1.00  0.00    -0.362 Cl 
HETATM    6  C   UNL     1     -11.800  13.741  69.605  1.00  0.00    -0.393 A  
HETATM    7  C   UNL     1     -11.600  12.363  69.460  1.00  0.00    -0.353 A  
HETATM    8  C   UNL     1     -12.892  11.999  71.494  1.00  0.00    -0.403 A  
HETATM    9  C   UNL     1     -12.173  11.498  70.402  1.00  0.00    -0.442 A  
BRANCH   7  10
HETATM   10  C   UNL     1     -10.825  11.816  68.283  1.00  0.00    -0.220 C  
BRANCH  10  11
HETATM   11  N   UNL     1     -11.418  10.542  67.914  1.00  0.00    -0.633 NA 
HETATM   12  H   UNL     1     -12.410  10.449  67.694  1.00  0.00     0.000 HD 
BRANCH  11  13
HETATM   13  C   UNL     1     -10.538   9.442  67.879  1.00  0.00    -0.237 A  
HETATM   14  C   UNL     1      -9.719   9.255  66.777  1.00  0.00    -0.260 A  
HETATM   15  C   UNL     1      -8.864   8.181  66.852  1.00  0.00    -0.131 A  
HETATM   16  N   UNL     1     -10.474   8.620  68.956  1.00  0.00    -0.216 NA 
HETATM   17  C   UNL     1      -9.593   7.600  68.955  1.00  0.00    -0.151 A  
HETATM   18  N   UNL     1      -8.797   7.342  67.909  1.00  0.00    -0.133 NA 
BRANCH  14  19
HETATM   19  C   UNL     1      -9.712  10.076  65.545  1.00  0.00    -0.289 C  
HETATM   20  O   UNL     1      -8.663  10.224  64.928  1.00  0.00    -0.166 OA 
HETATM   21  N   UNL     1     -10.907  10.612  65.129  1.00  0.00    -0.018 N  
HETATM   22  H   UNL     1     -11.753  10.401  65.660  1.00  0.00     0.000 HD 
BRANCH  21  23
HETATM   23  C   UNL     1     -11.008  11.469  63.958  1.00  0.00    -0.383 C  
BRANCH  23  24
HETATM   24  C   UNL     1     -11.108  12.953  64.263  1.00  0.00    -0.378 A  
HETATM   25  N   UNL     1     -10.081  13.507  64.944  1.00  0.00    -0.300 NA 
HETATM   26  C   UNL     1     -10.149  14.832  65.176  1.00  0.00    -0.323 A  
HETATM   27  N   UNL     1     -12.193  13.641  63.837  1.00  0.00    -0.641 NA 
HETATM   28  C   UNL     1     -12.199  14.965  64.090  1.00  0.00    -0.255 A  
HETATM   29  C   UNL     1     -11.194  15.620  64.763  1.00  0.00    -0.391 A  
ENDBRANCH  23  24
ENDBRANCH  21  23
ENDBRANCH  14  19
BRANCH  17  30
HETATM   30  N   UNL     1      -9.503   6.787  70.050  1.00  0.00    -0.158 NA 
HETATM   31  C   UNL     1     -10.337   5.027  71.405  1.00  0.00    -0.251 C  
HETATM   32  C   UNL     1      -8.351   5.959  70.328  1.00  0.00    -0.122 C  
HETATM   33  C   UNL     1     -10.670   6.422  70.852  1.00  0.00    -0.250 C  
HETATM   34  C   UNL     1      -8.942   4.674  70.899  1.00  0.00    -0.163 C  
BRANCH  33  35
HETATM   35  C   UNL     1     -10.869   7.450  71.984  1.00  0.00    -0.227 C  
HETATM   36  O   UNL     1     -11.535   6.869  73.109  1.00  0.00    -0.516 OA 
HETATM   37  H   UNL     1     -11.657   7.502  73.806  1.00  0.00     0.000 HD 
ENDBRANCH  33  35
ENDBRANCH  17  30
ENDBRANCH  11  13
ENDBRANCH  10  11
ENDBRANCH   7  10
ENDBRANCH   2   3
TORSDOF 9
ENDMDL
MODEL       46
REMARK 921   NORMALIZED FREE ENERGY PREDICTED BY IDOCK:   -6.48 KCAL/MOL
REMARK 922        TOTAL FREE ENERGY PREDICTED BY IDOCK:  -11.43 KCAL/MOL
REMARK 923 INTER-LIGAND FREE ENERGY PREDICTED BY IDOCK:   -9.96 KCAL/MOL
REMARK 924 INTRA-LIGAND FREE ENERGY PREDICTED BY IDOCK:   -1.46 KCAL/MOL
REMARK 927      BINDING AFFINITY PREDICTED BY RF-SCORE:    0.00 PKD
ROOT
HETATM    1  C   UNL     1      -7.159   6.504  62.537  1.00  0.00    -0.041 C  
HETATM    2  O   UNL     1      -7.413   6.859  63.890  1.00  0.00    -0.080 OA 
ENDROOT
BRANCH   2   3
HETATM    3  C   UNL     1      -8.078   8.036  64.111  1.00  0.00    -0.102 A  
HETATM    4  C   UNL     1      -8.185   8.472  65.441  1.00  0.00    -0.145 A  
HETATM    5 CL   UNL     1      -7.595   7.511  66.754  1.00  0.00    -0.099 Cl 
HETATM    6  C   UNL     1      -8.787   9.697  65.749  1.00  0.00    -0.186 A  
HETATM    7  C   UNL     1      -9.283  10.520  64.730  1.00  0.00    -0.266 A  
HETATM    8  C   UNL     1      -8.600   8.844  63.098  1.00  0.00    -0.123 A  
HETATM    9  C   UNL     1      -9.204  10.070  63.406  1.00  0.00    -0.317 A  
BRANCH   7  10
HETATM   10  C   UNL     1      -9.937  11.844  65.057  1.00  0.00    -0.248 C  
BRANCH  10  11
HETATM   11  N   UNL     1     -11.260  11.566  65.588  1.00  0.00    -0.208 NA 
HETATM   12  H   UNL     1     -12.007  11.180  65.010  1.00  0.00     0.000 HD 
BRANCH  11  13
HETATM   13  C   UNL     1     -11.449  11.863  66.952  1.00  0.00    -0.322 A  
HETATM   14  C   UNL     1     -11.679  13.173  67.342  1.00  0.00    -0.419 A  
HETATM   15  C   UNL     1     -11.895  13.361  68.687  1.00  0.00    -0.362 A  
HETATM   16  N   UNL     1     -11.457  10.846  67.850  1.00  0.00    -0.487 NA 
HETATM   17  C   UNL     1     -11.695  11.116  69.149  1.00  0.00    -0.338 A  
HETATM   18  N   UNL     1     -11.891  12.362  69.598  1.00  0.00    -0.319 NA 
BRANCH  14  19
HETATM   19  C   UNL     1     -11.681  14.360  66.457  1.00  0.00    -0.391 C  
HETATM   20  O   UNL     1     -12.567  14.484  65.619  1.00  0.00    -0.328 OA 
HETATM   21  N   UNL     1     -10.693  15.296  66.645  1.00  0.00    -0.306 N  
HETATM   22  H   UNL     1     -10.020  15.157  67.400  1.00  0.00     0.000 HD 
BRANCH  21  23
HETATM   23  C   UNL     1     -10.573  16.479  65.806  1.00  0.00    -0.296 C  
BRANCH  23  24
HETATM   24  C   UNL     1     -10.309  17.770  66.561  1.00  0.00    -0.345 A  
HETATM   25  N   UNL     1     -10.498  18.923  65.884  1.00  0.00    -0.559 NA 
HETATM   26  C   UNL     1     -10.307  20.068  66.566  1.00  0.00    -0.450 A  
HETATM   27  N   UNL     1      -9.916  17.707  67.854  1.00  0.00    -0.307 NA 
HETATM   28  C   UNL     1      -9.750  18.885  68.488  1.00  0.00    -0.387 A  
HETATM   29  C   UNL     1      -9.932  20.109  67.886  1.00  0.00    -0.537 A  
ENDBRANCH  23  24
ENDBRANCH  21  23
ENDBRANCH  14  19
BRANCH  17  30
HETATM   30  N   UNL     1     -11.733  10.091  70.053  1.00  0.00    -0.213 NA 
HETATM   31  C   UNL     1     -10.978   9.051  72.047  1.00  0.00    -0.355 C  
HETATM   32  C   UNL     1     -12.941   9.683  70.735  1.00  0.00    -0.087 C  
HETATM   33  C   UNL     1     -10.524   9.539  70.662  1.00  0.00    -0.308 C  
HETATM   34  C   UNL     1     -12.474   9.331  72.144  1.00  0.00    -0.421 C  
BRANCH  33  35
HETATM   35  C   UNL     1      -9.986   8.380  69.798  1.00  0.00    -0.191 C  
HETATM   36  O   UNL     1     -10.920   8.008  68.780  1.00  0.00    -0.420 OA 
HETATM   37  H   UNL     1     -10.590   7.295  68.247  1.00  0.00     0.000 HD 
ENDBRANCH  33  35
ENDBRANCH  17  30
ENDBRANCH  11  13
ENDBRANCH  10  11
ENDBRANCH   7  10
ENDBRANCH   2   3
TORSDOF 9
ENDMDL
MODEL       47
REMARK 921   NORMALIZED FREE ENERGY PREDICTED BY IDOCK:   -6.46 KCAL/MOL
REMARK 922        TOTAL FREE ENERGY PREDICTED BY IDOCK:  -11.39 KCAL/MOL
REMARK 923 INTER-LIGAND FREE ENERGY PREDICTED BY IDOCK:  -10.05 KCAL/MOL
REMARK 924 INTRA-LIGAND FREE ENERGY PREDICTED BY IDOCK:   -1.34 KCAL/MOL
REMARK 927      BINDING AFFINITY PREDICTED BY RF-SCORE:    0.00 PKD
ROOT
HETATM    1  C   UNL     1      -9.218   9.621  62.400  1.00  0.00    -0.223 C  
HETATM    2  O   UNL     1      -9.054   9.520  63.808  1.00  0.00    -0.224 OA 
ENDROOT
BRANCH   2   3
HETATM    3  C   UNL     1      -9.829  10.339  64.586  1.00  0.00    -0.327 A  
HETATM    4  C   UNL     1      -9.893  10.049  65.958  1.00  0.00    -0.257 A  
HETATM    5 CL   UNL     1      -9.112   8.653  66.620  1.00  0.00    -0.186 Cl 
HETATM    6  C   UNL     1     -10.605  10.875  66.835  1.00  0.00    -0.312 A  
HETATM    7  C   UNL     1     -11.256  12.019  66.359  1.00  0.00    -0.389 A  
HETATM    8  C   UNL     1     -10.504  11.466  64.108  1.00  0.00    -0.421 A  
HETATM    9  C   UNL     1     -11.217  12.292  64.985  1.00  0.00    -0.367 A  
BRANCH   7  10
HETATM   10  C   UNL     1     -12.029  12.915  67.301  1.00  0.00    -0.309 C  
BRANCH  10  11
HETATM   11  N   UNL     1     -11.262  13.036  68.528  1.00  0.00    -0.256 NA 
HETATM   12  H   UNL     1     -10.331  13.452  68.547  1.00  0.00     0.000 HD 
BRANCH  11  13
HETATM   13  C   UNL     1     -11.882  12.541  69.692  1.00  0.00    -0.314 A  
HETATM   14  C   UNL     1     -12.322  13.427  70.663  1.00  0.00    -0.423 A  
HETATM   15  C   UNL     1     -12.954  12.856  71.742  1.00  0.00    -0.315 A  
HETATM   16  N   UNL     1     -12.087  11.205  69.809  1.00  0.00    -0.337 NA 
HETATM   17  C   UNL     1     -12.732  10.730  70.893  1.00  0.00    -0.384 A  
HETATM   18  N   UNL     1     -13.152  11.527  71.884  1.00  0.00    -0.459 NA 
BRANCH  14  19
HETATM   19  C   UNL     1     -12.143  14.897  70.649  1.00  0.00    -0.307 C  
HETATM   20  O   UNL     1     -12.968  15.608  71.211  1.00  0.00    -0.474 OA 
HETATM   21  N   UNL     1     -11.025  15.397  70.025  1.00  0.00    -0.276 N  
HETATM   22  H   UNL     1     -10.350  14.744  69.626  1.00  0.00     0.000 HD 
BRANCH  21  23
HETATM   23  C   UNL     1     -10.771  16.826  69.914  1.00  0.00    -0.119 C  
BRANCH  23  24
HETATM   24  C   UNL     1      -9.850  17.220  68.773  1.00  0.00    -0.306 A  
HETATM   25  N   UNL     1     -10.404  17.906  67.750  1.00  0.00    -0.370 NA 
HETATM   26  C   UNL     1      -9.579  18.294  66.759  1.00  0.00    -0.299 A  
HETATM   27  N   UNL     1      -8.541  16.885  68.839  1.00  0.00    -0.239 NA 
HETATM   28  C   UNL     1      -7.762  17.309  67.823  1.00  0.00    -0.190 A  
HETATM   29  C   UNL     1      -8.233  18.024  66.747  1.00  0.00    -0.272 A  
ENDBRANCH  23  24
ENDBRANCH  21  23
ENDBRANCH  14  19
BRANCH  17  30
HETATM   30  N   UNL     1     -12.967   9.387  71.001  1.00  0.00    -0.222 NA 
HETATM   31  C   UNL     1     -12.561   7.283  72.018  1.00  0.00    -0.254 C  
HETATM   32  C   UNL     1     -14.281   8.831  71.233  1.00  0.00    -0.130 C  
HETATM   33  C   UNL     1     -11.893   8.421  71.229  1.00  0.00    -0.289 C  
HETATM   34  C   UNL     1     -14.030   7.659  72.176  1.00  0.00    -0.202 C  
BRANCH  33  35
HETATM   35  C   UNL     1     -11.340   7.927  69.876  1.00  0.00     0.042 C  
HETATM   36  O   UNL     1     -11.926   6.681  69.494  1.00  0.00    -0.642 OA 
HETATM   37  H   UNL     1     -11.586   6.376  68.661  1.00  0.00     0.000 HD 
ENDBRANCH  33  35
ENDBRANCH  17  30
ENDBRANCH  11  13
ENDBRANCH  10  11
ENDBRANCH   7  10
ENDBRANCH   2   3
TORSDOF 9
ENDMDL
MODEL       48
REMARK 921   NORMALIZED FREE ENERGY PREDICTED BY IDOCK:   -6.43 KCAL/MOL
REMARK 922        TOTAL FREE ENERGY PREDICTED BY IDOCK:  -11.34 KCAL/MOL
REMARK 923 INTER-LIGAND FREE ENERGY PREDICTED BY IDOCK:   -8.81 KCAL/MOL
REMARK 924 INTRA-LIGAND FREE ENERGY PREDICTED BY IDOCK:   -2.53 KCAL/MOL
REMARK 927      BINDING AFFINITY PREDICTED BY RF-SCORE:    0.00 PKD
ROOT
HETATM    1  C   UNL     1     -11.527   4.361  73.574  1.00  0.00    -0.184 C  
HETATM    2  O   UNL     1     -10.702   5.512  73.680  1.00  0.00    -0.261 OA 
ENDROOT
BRANCH   2   3
HETATM    3  C   UNL     1     -11.002   6.571  72.863  1.00  0.00    -0.250 A  
HETATM    4  C   UNL     1     -10.151   7.685  72.918  1.00  0.00    -0.286 A  
HETATM    5 CL   UNL     1      -8.841   7.763  74.047  1.00  0.00    -0.316 Cl 
HETATM    6  C   UNL     1     -10.344   8.780  72.068  1.00  0.00    -0.411 A  
HETATM    7  C   UNL     1     -11.386   8.776  71.132  1.00  0.00    -0.345 A  
HETATM    8  C   UNL     1     -12.059   6.581  71.948  1.00  0.00    -0.388 A  
HETATM    9  C   UNL     1     -12.253   7.676  71.098  1.00  0.00    -0.310 A  
BRANCH   7  10
HETATM   10  C   UNL     1     -11.602   9.957  70.212  1.00  0.00    -0.250 C  
BRANCH  10  11
HETATM   11  N   UNL     1     -11.094   9.596  68.900  1.00  0.00    -0.438 NA 
HETATM   12  H   UNL     1     -11.312   8.701  68.461  1.00  0.00     0.000 HD 
BRANCH  11  13
HETATM   13  C   UNL     1     -10.279  10.558  68.271  1.00  0.00    -0.163 A  
HETATM   14  C   UNL     1      -8.915  10.563  68.513  1.00  0.00    -0.147 A  
HETATM   15  C   UNL     1      -8.195  11.509  67.821  1.00  0.00    -0.135 A  
HETATM   16  N   UNL     1     -10.846  11.425  67.395  1.00  0.00    -0.238 NA 
HETATM   17  C   UNL     1     -10.065  12.310  66.745  1.00  0.00    -0.209 A  
HETATM   18  N   UNL     1      -8.744  12.391  66.957  1.00  0.00    -0.203 NA 
BRANCH  14  19
HETATM   19  C   UNL     1      -8.191   9.677  69.452  1.00  0.00    -0.132 C  
HETATM   20  O   UNL     1      -7.597  10.169  70.405  1.00  0.00    -0.249 OA 
HETATM   21  N   UNL     1      -8.250   8.323  69.226  1.00  0.00    -0.116 N  
HETATM   22  H   UNL     1      -8.809   7.978  68.445  1.00  0.00     0.000 HD 
BRANCH  21  23
HETATM   23  C   UNL     1      -7.541   7.364  70.060  1.00  0.00    -0.089 C  
BRANCH  23  24
HETATM   24  C   UNL     1      -8.277   6.056  70.289  1.00  0.00    -0.119 A  
HETATM   25  N   UNL     1      -9.366   5.825  69.522  1.00  0.00    -0.129 NA 
HETATM   26  C   UNL     1      -9.992   4.645  69.695  1.00  0.00    -0.211 A  
HETATM   27  N   UNL     1      -7.812   5.194  71.222  1.00  0.00    -0.103 NA 
HETATM   28  C   UNL     1      -8.474   4.026  71.342  1.00  0.00    -0.085 A  
HETATM   29  C   UNL     1      -9.583   3.696  70.598  1.00  0.00    -0.254 A  
ENDBRANCH  23  24
ENDBRANCH  21  23
ENDBRANCH  14  19
BRANCH  17  30
HETATM   30  N   UNL     1     -10.626  13.166  65.839  1.00  0.00    -0.276 NA 
HETATM   31  C   UNL     1     -12.503  14.320  64.959  1.00  0.00    -0.409 C  
HETATM   32  C   UNL     1     -10.164  14.521  65.638  1.00  0.00    -0.357 C  
HETATM   33  C   UNL     1     -11.936  12.918  65.237  1.00  0.00    -0.419 C  
HETATM   34  C   UNL     1     -11.440  15.320  65.402  1.00  0.00    -0.184 C  
BRANCH  33  35
HETATM   35  C   UNL     1     -11.769  12.104  63.938  1.00  0.00    -0.458 C  
HETATM   36  O   UNL     1     -11.687  12.956  62.793  1.00  0.00    -0.687 OA 
HETATM   37  H   UNL     1     -11.584  12.455  61.992  1.00  0.00     0.000 HD 
ENDBRANCH  33  35
ENDBRANCH  17  30
ENDBRANCH  11  13
ENDBRANCH  10  11
ENDBRANCH   7  10
ENDBRANCH   2   3
TORSDOF 9
ENDMDL
MODEL       49
REMARK 921   NORMALIZED FREE ENERGY PREDICTED BY IDOCK:   -6.39 KCAL/MOL
REMARK 922        TOTAL FREE ENERGY PREDICTED BY IDOCK:  -11.29 KCAL/MOL
REMARK 923 INTER-LIGAND FREE ENERGY PREDICTED BY IDOCK:  -10.16 KCAL/MOL
REMARK 924 INTRA-LIGAND FREE ENERGY PREDICTED BY IDOCK:   -1.13 KCAL/MOL
REMARK 927      BINDING AFFINITY PREDICTED BY RF-SCORE:    0.00 PKD
ROOT
HETATM    1  C   UNL     1      -7.752  17.229  66.234  1.00  0.00    -0.318 C  
HETATM    2  O   UNL     1      -9.056  16.857  65.812  1.00  0.00    -0.523 OA 
ENDROOT
BRANCH   2   3
HETATM    3  C   UNL     1      -9.453  15.571  66.073  1.00  0.00    -0.352 A  
HETATM    4  C   UNL     1     -10.607  15.111  65.421  1.00  0.00    -0.391 A  
HETATM    5 CL   UNL     1     -11.551  16.157  64.415  1.00  0.00    -0.321 Cl 
HETATM    6  C   UNL     1     -11.043  13.790  65.576  1.00  0.00    -0.300 A  
HETATM    7  C   UNL     1     -10.321  12.895  66.377  1.00  0.00    -0.277 A  
HETATM    8  C   UNL     1      -8.750  14.685  66.895  1.00  0.00    -0.251 A  
HETATM    9  C   UNL     1      -9.185  13.363  67.051  1.00  0.00    -0.242 A  
BRANCH   7  10
HETATM   10  C   UNL     1     -10.787  11.467  66.551  1.00  0.00    -0.288 C  
BRANCH  10  11
HETATM   11  N   UNL     1     -10.131  10.926  67.728  1.00  0.00    -0.174 NA 
HETATM   12  H   UNL     1      -9.172  10.578  67.703  1.00  0.00     0.000 HD 
BRANCH  11  13
HETATM   13  C   UNL     1     -10.900  10.911  68.908  1.00  0.00    -0.219 A  
HETATM   14  C   UNL     1     -11.093   9.717  69.584  1.00  0.00    -0.223 A  
HETATM   15  C   UNL     1     -11.820   9.807  70.747  1.00  0.00    -0.319 A  
HETATM   16  N   UNL     1     -11.390  12.082  69.386  1.00  0.00    -0.264 NA 
HETATM   17  C   UNL     1     -12.078  12.085  70.546  1.00  0.00    -0.311 A  
HETATM   18  N   UNL     1     -12.329  10.962  71.231  1.00  0.00    -0.358 NA 
BRANCH  14  19
HETATM   19  C   UNL     1     -10.620   8.382  69.152  1.00  0.00    -0.163 C  
HETATM   20  O   UNL     1     -10.032   8.270  68.083  1.00  0.00    -0.177 OA 
HETATM   21  N   UNL     1     -10.836   7.324  70.002  1.00  0.00    -0.249 N  
HETATM   22  H   UNL     1     -11.281   7.499  70.903  1.00  0.00     0.000 HD 
BRANCH  21  23
HETATM   23  C   UNL     1     -10.452   5.963  69.661  1.00  0.00    -0.277 C  
BRANCH  23  24
HETATM   24  C   UNL     1     -10.258   5.040  70.851  1.00  0.00    -0.217 A  
HETATM   25  N   UNL     1     -10.636   5.514  72.059  1.00  0.00    -0.222 NA 
HETATM   26  C   UNL     1     -10.505   4.679  73.108  1.00  0.00    -0.193 A  
HETATM   27  N   UNL     1      -9.739   3.807  70.650  1.00  0.00    -0.187 NA 
HETATM   28  C   UNL     1      -9.642   3.014  71.736  1.00  0.00    -0.154 A  
HETATM   29  C   UNL     1     -10.013   3.402  73.002  1.00  0.00    -0.208 A  
ENDBRANCH  23  24
ENDBRANCH  21  23
ENDBRANCH  14  19
BRANCH  17  30
HETATM   30  N   UNL     1     -12.547  13.266  71.048  1.00  0.00    -0.354 NA 
HETATM   31  C   UNL     1     -13.750  15.296  70.801  1.00  0.00    -0.255 C  
HETATM   32  C   UNL     1     -13.373  13.350  72.231  1.00  0.00    -0.544 C  
HETATM   33  C   UNL     1     -12.546  14.503  70.267  1.00  0.00    -0.323 C  
HETATM   34  C   UNL     1     -14.373  14.457  71.911  1.00  0.00    -0.627 C  
BRANCH  33  35
HETATM   35  C   UNL     1     -11.221  15.261  70.490  1.00  0.00    -0.310 C  
HETATM   36  O   UNL     1     -11.449  16.565  71.033  1.00  0.00    -0.574 OA 
HETATM   37  H   UNL     1     -10.633  17.032  71.170  1.00  0.00     0.000 HD 
ENDBRANCH  33  35
ENDBRANCH  17  30
ENDBRANCH  11  13
ENDBRANCH  10  11
ENDBRANCH   7  10
ENDBRANCH   2   3
TORSDOF 9
ENDMDL
MODEL       50
REMARK 921   NORMALIZED FREE ENERGY PREDICTED BY IDOCK:   -6.36 KCAL/MOL
REMARK 922        TOTAL FREE ENERGY PREDICTED BY IDOCK:  -11.23 KCAL/MOL
REMARK 923 INTER-LIGAND FREE ENERGY PREDICTED BY IDOCK:   -9.25 KCAL/MOL
REMARK 924 INTRA-LIGAND FREE ENERGY PREDICTED BY IDOCK:   -1.97 KCAL/MOL
REMARK 927      BINDING AFFINITY PREDICTED BY RF-SCORE:    0.00 PKD
ROOT
HETATM    1  C   UNL     1      -7.319   5.840  68.369  1.00  0.00    -0.080 C  
HETATM    2  O   UNL     1      -8.441   6.669  68.638  1.00  0.00    -0.122 OA 
ENDROOT
BRANCH   2   3
HETATM    3  C   UNL     1      -8.373   7.968  68.208  1.00  0.00    -0.123 A  
HETATM    4  C   UNL     1      -9.454   8.452  67.455  1.00  0.00    -0.147 A  
HETATM    5 CL   UNL     1     -10.767   7.420  66.998  1.00  0.00    -0.426 Cl 
HETATM    6  C   UNL     1      -9.498   9.786  67.035  1.00  0.00    -0.195 A  
HETATM    7  C   UNL     1      -8.466  10.670  67.374  1.00  0.00    -0.122 A  
HETATM    8  C   UNL     1      -7.330   8.845  68.520  1.00  0.00    -0.081 A  
HETATM    9  C   UNL     1      -7.373  10.180  68.099  1.00  0.00    -0.082 A  
BRANCH   7  10
HETATM   10  C   UNL     1      -8.506  12.113  66.921  1.00  0.00    -0.173 C  
BRANCH  10  11
HETATM   11  N   UNL     1      -9.894  12.542  66.931  1.00  0.00    -0.223 NA 
HETATM   12  H   UNL     1     -10.612  12.067  66.384  1.00  0.00     0.000 HD 
BRANCH  11  13
HETATM   13  C   UNL     1     -10.187  13.656  67.743  1.00  0.00    -0.242 A  
HETATM   14  C   UNL     1     -11.054  13.513  68.814  1.00  0.00    -0.298 A  
HETATM   15  C   UNL     1     -11.245  14.642  69.574  1.00  0.00    -0.269 A  
HETATM   16  N   UNL     1      -9.565  14.834  67.488  1.00  0.00    -0.207 NA 
HETATM   17  C   UNL     1      -9.795  15.889  68.295  1.00  0.00    -0.217 A  
HETATM   18  N   UNL     1     -10.647  15.829  69.327  1.00  0.00    -0.225 NA 
BRANCH  14  19
HETATM   19  C   UNL     1     -11.796  12.285  69.179  1.00  0.00    -0.301 C  
HETATM   20  O   UNL     1     -12.244  11.567  68.292  1.00  0.00    -0.561 OA 
HETATM   21  N   UNL     1     -11.919  11.988  70.515  1.00  0.00    -0.498 N  
HETATM   22  H   UNL     1     -11.472  12.600  71.199  1.00  0.00     0.000 HD 
BRANCH  21  23
HETATM   23  C   UNL     1     -12.663  10.831  70.989  1.00  0.00    -0.415 C  
BRANCH  23  24
HETATM   24  C   UNL     1     -11.804   9.658  71.426  1.00  0.00    -0.406 A  
HETATM   25  N   UNL     1     -12.379   8.753  72.249  1.00  0.00    -0.384 NA 
HETATM   26  C   UNL     1     -11.631   7.690  72.600  1.00  0.00    -0.317 A  
HETATM   27  N   UNL     1     -10.533   9.568  70.971  1.00  0.00    -0.314 NA 
HETATM   28  C   UNL     1      -9.837   8.477  71.349  1.00  0.00    -0.228 A  
HETATM   29  C   UNL     1     -10.341   7.496  72.172  1.00  0.00    -0.252 A  
ENDBRANCH  23  24
ENDBRANCH  21  23
ENDBRANCH  14  19
BRANCH  17  30
HETATM   30  N   UNL     1      -9.148  17.070  68.061  1.00  0.00    -0.232 NA 
HETATM   31  C   UNL     1      -8.908  19.407  68.389  1.00  0.00    -0.397 C  
HETATM   32  C   UNL     1      -7.738  17.263  68.314  1.00  0.00    -0.234 C  
HETATM   33  C   UNL     1      -9.866  18.328  67.858  1.00  0.00    -0.317 C  
HETATM   34  C   UNL     1      -7.646  18.688  68.851  1.00  0.00    -0.283 C  
BRANCH  33  35
HETATM   35  C   UNL     1     -10.166  18.522  66.357  1.00  0.00    -0.420 C  
HETATM   36  O   UNL     1     -10.764  19.796  66.103  1.00  0.00    -0.465 OA 
HETATM   37  H   UNL     1     -10.949  19.916  65.179  1.00  0.00     0.000 HD 
ENDBRANCH  33  35
ENDBRANCH  17  30
ENDBRANCH  11  13
ENDBRANCH  10  11
ENDBRANCH   7  10
ENDBRANCH   2   3
TORSDOF 9
ENDMDL
MODEL       51
REMARK 921   NORMALIZED FREE ENERGY PREDICTED BY IDOCK:   -6.35 KCAL/MOL
REMARK 922        TOTAL FREE ENERGY PREDICTED BY IDOCK:  -11.23 KCAL/MOL
REMARK 923 INTER-LIGAND FREE ENERGY PREDICTED BY IDOCK:   -9.77 KCAL/MOL
REMARK 924 INTRA-LIGAND FREE ENERGY PREDICTED BY IDOCK:   -1.45 KCAL/MOL
REMARK 927      BINDING AFFINITY PREDICTED BY RF-SCORE:    0.00 PKD
ROOT
HETATM    1  C   UNL     1     -12.685  14.197  65.444  1.00  0.00    -0.431 C  
HETATM    2  O   UNL     1     -11.302  13.873  65.437  1.00  0.00    -0.302 OA 
ENDROOT
BRANCH   2   3
HETATM    3  C   UNL     1     -10.872  12.956  66.359  1.00  0.00    -0.274 A  
HETATM    4  C   UNL     1      -9.957  13.400  67.327  1.00  0.00    -0.232 A  
HETATM    5 CL   UNL     1      -9.318  15.008  67.291  1.00  0.00    -0.200 Cl 
HETATM    6  C   UNL     1      -9.520  12.547  68.347  1.00  0.00    -0.167 A  
HETATM    7  C   UNL     1     -10.002  11.235  68.429  1.00  0.00    -0.201 A  
HETATM    8  C   UNL     1     -11.329  11.637  66.426  1.00  0.00    -0.312 A  
HETATM    9  C   UNL     1     -10.891  10.783  67.446  1.00  0.00    -0.345 A  
BRANCH   7  10
HETATM   10  C   UNL     1      -9.532  10.308  69.528  1.00  0.00    -0.185 C  
BRANCH  10  11
HETATM   11  N   UNL     1     -10.598  10.205  70.508  1.00  0.00    -0.410 NA 
HETATM   12  H   UNL     1     -11.060  11.028  70.896  1.00  0.00     0.000 HD 
BRANCH  11  13
HETATM   13  C   UNL     1     -10.956   8.897  70.891  1.00  0.00    -0.266 A  
HETATM   14  C   UNL     1     -12.165   8.679  71.534  1.00  0.00    -0.368 A  
HETATM   15  C   UNL     1     -12.448   7.366  71.830  1.00  0.00    -0.336 A  
HETATM   16  N   UNL     1     -10.130   7.871  70.570  1.00  0.00    -0.192 NA 
HETATM   17  C   UNL     1     -10.493   6.610  70.881  1.00  0.00    -0.215 A  
HETATM   18  N   UNL     1     -11.631   6.333  71.531  1.00  0.00    -0.302 NA 
BRANCH  14  19
HETATM   19  C   UNL     1     -13.136   9.718  71.945  1.00  0.00    -0.446 C  
HETATM   20  O   UNL     1     -14.144   9.390  72.559  1.00  0.00    -0.388 OA 
HETATM   21  N   UNL     1     -12.837  11.025  71.642  1.00  0.00    -0.443 N  
HETATM   22  H   UNL     1     -11.952  11.233  71.178  1.00  0.00     0.000 HD 
BRANCH  21  23
HETATM   23  C   UNL     1     -13.738  12.122  71.960  1.00  0.00    -0.006 C  
BRANCH  23  24
HETATM   24  C   UNL     1     -13.086  13.493  71.987  1.00  0.00    -0.387 A  
HETATM   25  N   UNL     1     -12.140  13.738  71.055  1.00  0.00    -0.310 NA 
HETATM   26  C   UNL     1     -11.593  14.969  71.052  1.00  0.00    -0.322 A  
HETATM   27  N   UNL     1     -13.483  14.392  72.918  1.00  0.00    -0.624 NA 
HETATM   28  C   UNL     1     -12.907  15.609  72.859  1.00  0.00    -0.471 A  
HETATM   29  C   UNL     1     -11.946  15.956  71.938  1.00  0.00    -0.588 A  
ENDBRANCH  23  24
ENDBRANCH  21  23
ENDBRANCH  14  19
BRANCH  17  30
HETATM   30  N   UNL     1      -9.679   5.569  70.532  1.00  0.00    -0.175 NA 
HETATM   31  C   UNL     1      -8.809   3.395  70.912  1.00  0.00    -0.143 C  
HETATM   32  C   UNL     1      -9.732   4.921  69.241  1.00  0.00    -0.188 C  
HETATM   33  C   UNL     1      -8.923   4.802  71.522  1.00  0.00    -0.134 C  
HETATM   34  C   UNL     1      -9.499   3.447  69.553  1.00  0.00    -0.219 C  
BRANCH  33  35
HETATM   35  C   UNL     1      -7.538   5.444  71.735  1.00  0.00    -0.098 C  
HETATM   36  O   UNL     1      -7.528   6.299  72.882  1.00  0.00    -0.094 OA 
HETATM   37  H   UNL     1      -6.675   6.695  73.014  1.00  0.00     0.000 HD 
ENDBRANCH  33  35
ENDBRANCH  17  30
ENDBRANCH  11  13
ENDBRANCH  10  11
ENDBRANCH   7  10
ENDBRANCH   2   3
TORSDOF 9
ENDMDL
MODEL       52
REMARK 921   NORMALIZED FREE ENERGY PREDICTED BY IDOCK:   -6.34 KCAL/MOL
REMARK 922        TOTAL FREE ENERGY PREDICTED BY IDOCK:  -11.21 KCAL/MOL
REMARK 923 INTER-LIGAND FREE ENERGY PREDICTED BY IDOCK:   -8.78 KCAL/MOL
REMARK 924 INTRA-LIGAND FREE ENERGY PREDICTED BY IDOCK:   -2.43 KCAL/MOL
REMARK 927      BINDING AFFINITY PREDICTED BY RF-SCORE:    0.00 PKD
ROOT
HETATM    1  C   UNL     1     -10.807  17.289  67.772  1.00  0.00    -0.261 C  
HETATM    2  O   UNL     1      -9.931  16.182  67.931  1.00  0.00    -0.233 OA 
ENDROOT
BRANCH   2   3
HETATM    3  C   UNL     1     -10.481  15.010  68.379  1.00  0.00    -0.238 A  
HETATM    4  C   UNL     1      -9.743  13.834  68.173  1.00  0.00    -0.227 A  
HETATM    5 CL   UNL     1      -8.250  13.850  67.297  1.00  0.00    -0.190 Cl 
HETATM    6  C   UNL     1     -10.199  12.604  68.661  1.00  0.00    -0.165 A  
HETATM    7  C   UNL     1     -11.399  12.527  69.379  1.00  0.00    -0.275 A  
HETATM    8  C   UNL     1     -11.693  14.927  69.070  1.00  0.00    -0.347 A  
HETATM    9  C   UNL     1     -12.151  13.696  69.557  1.00  0.00    -0.368 A  
BRANCH   7  10
HETATM   10  C   UNL     1     -11.899  11.201  69.906  1.00  0.00    -0.363 C  
BRANCH  10  11
HETATM   11  N   UNL     1     -11.711  10.209  68.863  1.00  0.00    -0.508 NA 
HETATM   12  H   UNL     1     -12.217  10.250  67.978  1.00  0.00     0.000 HD 
BRANCH  11  13
HETATM   13  C   UNL     1     -10.786   9.185  69.148  1.00  0.00    -0.172 A  
HETATM   14  C   UNL     1      -9.689   9.005  68.321  1.00  0.00    -0.169 A  
HETATM   15  C   UNL     1      -8.818   8.011  68.702  1.00  0.00    -0.134 A  
HETATM   16  N   UNL     1     -10.963   8.434  70.263  1.00  0.00    -0.241 NA 
HETATM   17  C   UNL     1     -10.051   7.491  70.574  1.00  0.00    -0.188 A  
HETATM   18  N   UNL     1      -8.986   7.242  69.801  1.00  0.00    -0.142 NA 
BRANCH  14  19
HETATM   19  C   UNL     1      -9.400   9.752  67.076  1.00  0.00    -0.147 C  
HETATM   20  O   UNL     1      -8.240  10.037  66.801  1.00  0.00    -0.120 OA 
HETATM   21  N   UNL     1     -10.461  10.066  66.261  1.00  0.00    -0.151 N  
HETATM   22  H   UNL     1     -11.395   9.749  66.523  1.00  0.00     0.000 HD 
BRANCH  21  23
HETATM   23  C   UNL     1     -10.299  10.835  65.036  1.00  0.00    -0.287 C  
BRANCH  23  24
HETATM   24  C   UNL     1     -10.955  12.204  65.054  1.00  0.00    -0.309 A  
HETATM   25  N   UNL     1     -12.165  12.294  65.648  1.00  0.00    -0.597 NA 
HETATM   26  C   UNL     1     -12.726  13.517  65.703  1.00  0.00    -0.421 A  
HETATM   27  N   UNL     1     -10.304  13.252  64.498  1.00  0.00    -0.398 NA 
HETATM   28  C   UNL     1     -10.911  14.452  64.593  1.00  0.00    -0.354 A  
HETATM   29  C   UNL     1     -12.135  14.645  65.190  1.00  0.00    -0.308 A  
ENDBRANCH  23  24
ENDBRANCH  21  23
ENDBRANCH  14  19
BRANCH  17  30
HETATM   30  N   UNL     1     -10.209   6.751  71.713  1.00  0.00    -0.191 NA 
HETATM   31  C   UNL     1      -9.310   5.557  73.555  1.00  0.00    -0.137 C  
HETATM   32  C   UNL     1     -10.968   7.210  72.855  1.00  0.00    -0.320 C  
HETATM   33  C   UNL     1      -9.365   5.597  72.019  1.00  0.00    -0.150 C  
HETATM   34  C   UNL     1     -10.177   6.706  74.057  1.00  0.00    -0.395 C  
BRANCH  33  35
HETATM   35  C   UNL     1     -10.001   4.317  71.439  1.00  0.00    -0.168 C  
HETATM   36  O   UNL     1      -9.322   3.143  71.893  1.00  0.00    -0.109 OA 
HETATM   37  H   UNL     1      -9.713   2.354  71.535  1.00  0.00     0.000 HD 
ENDBRANCH  33  35
ENDBRANCH  17  30
ENDBRANCH  11  13
ENDBRANCH  10  11
ENDBRANCH   7  10
ENDBRANCH   2   3
TORSDOF 9
ENDMDL
MODEL       53
REMARK 921   NORMALIZED FREE ENERGY PREDICTED BY IDOCK:   -6.33 KCAL/MOL
REMARK 922        TOTAL FREE ENERGY PREDICTED BY IDOCK:  -11.19 KCAL/MOL
REMARK 923 INTER-LIGAND FREE ENERGY PREDICTED BY IDOCK:   -9.19 KCAL/MOL
REMARK 924 INTRA-LIGAND FREE ENERGY PREDICTED BY IDOCK:   -2.00 KCAL/MOL
REMARK 927      BINDING AFFINITY PREDICTED BY RF-SCORE:    0.00 PKD
ROOT
HETATM    1  C   UNL     1      -7.334  15.506  69.271  1.00  0.00    -0.202 C  
HETATM    2  O   UNL     1      -8.220  15.270  68.186  1.00  0.00    -0.136 OA 
ENDROOT
BRANCH   2   3
HETATM    3  C   UNL     1      -8.845  14.052  68.146  1.00  0.00    -0.182 A  
HETATM    4  C   UNL     1     -10.236  14.051  67.953  1.00  0.00    -0.240 A  
HETATM    5 CL   UNL     1     -11.136  15.528  67.878  1.00  0.00    -0.313 Cl 
HETATM    6  C   UNL     1     -10.944  12.850  67.830  1.00  0.00    -0.266 A  
HETATM    7  C   UNL     1     -10.271  11.622  67.882  1.00  0.00    -0.203 A  
HETATM    8  C   UNL     1      -8.180  12.826  68.226  1.00  0.00    -0.159 A  
HETATM    9  C   UNL     1      -8.888  11.623  68.104  1.00  0.00    -0.164 A  
BRANCH   7  10
HETATM   10  C   UNL     1     -11.030  10.321  67.752  1.00  0.00    -0.300 C  
BRANCH  10  11
HETATM   11  N   UNL     1     -11.817  10.143  68.960  1.00  0.00    -0.511 NA 
HETATM   12  H   UNL     1     -12.664  10.684  69.139  1.00  0.00     0.000 HD 
BRANCH  11  13
HETATM   13  C   UNL     1     -11.340   9.179  69.869  1.00  0.00    -0.030 A  
HETATM   14  C   UNL     1     -11.870   9.122  71.148  1.00  0.00    -0.374 A  
HETATM   15  C   UNL     1     -11.374   8.121  71.949  1.00  0.00    -0.296 A  
HETATM   16  N   UNL     1     -10.406   8.288  69.449  1.00  0.00    -0.219 NA 
HETATM   17  C   UNL     1      -9.987   7.326  70.294  1.00  0.00    -0.187 A  
HETATM   18  N   UNL     1     -10.433   7.235  71.554  1.00  0.00    -0.203 NA 
BRANCH  14  19
HETATM   19  C   UNL     1     -12.878  10.044  71.717  1.00  0.00    -0.446 C  
HETATM   20  O   UNL     1     -13.834   9.585  72.332  1.00  0.00    -0.424 OA 
HETATM   21  N   UNL     1     -12.670  11.393  71.556  1.00  0.00    -0.382 N  
HETATM   22  H   UNL     1     -11.823  11.708  71.082  1.00  0.00     0.000 HD 
BRANCH  21  23
HETATM   23  C   UNL     1     -13.617  12.388  72.037  1.00  0.00    -0.252 C  
BRANCH  23  24
HETATM   24  C   UNL     1     -13.055  13.793  72.160  1.00  0.00    -0.406 A  
HETATM   25  N   UNL     1     -13.581  14.580  73.124  1.00  0.00    -0.527 NA 
HETATM   26  C   UNL     1     -13.052  15.810  73.262  1.00  0.00    -0.584 A  
HETATM   27  N   UNL     1     -12.064  14.180  71.324  1.00  0.00    -0.337 NA 
HETATM   28  C   UNL     1     -11.568  15.419  71.517  1.00  0.00    -0.411 A  
HETATM   29  C   UNL     1     -12.029  16.286  72.479  1.00  0.00    -0.648 A  
ENDBRANCH  23  24
ENDBRANCH  21  23
ENDBRANCH  14  19
BRANCH  17  30
HETATM   30  N   UNL     1      -9.069   6.408  69.867  1.00  0.00    -0.141 NA 
HETATM   31  C   UNL     1      -7.340   5.732  68.389  1.00  0.00    -0.080 C  
HETATM   32  C   UNL     1      -8.047   5.851  70.726  1.00  0.00    -0.119 C  
HETATM   33  C   UNL     1      -8.817   6.155  68.448  1.00  0.00    -0.113 C  
HETATM   34  C   UNL     1      -6.823   5.735  69.824  1.00  0.00    -0.061 C  
BRANCH  33  35
HETATM   35  C   UNL     1      -9.751   5.037  67.943  1.00  0.00    -0.153 C  
HETATM   36  O   UNL     1      -9.062   3.788  67.835  1.00  0.00    -0.126 OA 
HETATM   37  H   UNL     1      -9.637   3.099  67.523  1.00  0.00     0.000 HD 
ENDBRANCH  33  35
ENDBRANCH  17  30
ENDBRANCH  11  13
ENDBRANCH  10  11
ENDBRANCH   7  10
ENDBRANCH   2   3
TORSDOF 9
ENDMDL
MODEL       54
REMARK 921   NORMALIZED FREE ENERGY PREDICTED BY IDOCK:   -6.31 KCAL/MOL
REMARK 922        TOTAL FREE ENERGY PREDICTED BY IDOCK:  -11.16 KCAL/MOL
REMARK 923 INTER-LIGAND FREE ENERGY PREDICTED BY IDOCK:   -9.06 KCAL/MOL
REMARK 924 INTRA-LIGAND FREE ENERGY PREDICTED BY IDOCK:   -2.10 KCAL/MOL
REMARK 927      BINDING AFFINITY PREDICTED BY RF-SCORE:    0.00 PKD
ROOT
HETATM    1  C   UNL     1     -12.871   9.860  71.084  1.00  0.00    -0.368 C  
HETATM    2  O   UNL     1     -11.744   9.735  70.228  1.00  0.00    -0.251 OA 
ENDROOT
BRANCH   2   3
HETATM    3  C   UNL     1     -11.569  10.711  69.283  1.00  0.00    -0.275 A  
HETATM    4  C   UNL     1     -11.134  10.302  68.012  1.00  0.00    -0.274 A  
HETATM    5 CL   UNL     1     -10.733   8.650  67.686  1.00  0.00    -0.257 Cl 
HETATM    6  C   UNL     1     -10.996  11.224  66.968  1.00  0.00    -0.352 A  
HETATM    7  C   UNL     1     -11.306  12.575  67.171  1.00  0.00    -0.381 A  
HETATM    8  C   UNL     1     -11.850  12.064  69.490  1.00  0.00    -0.390 A  
HETATM    9  C   UNL     1     -11.711  12.987  68.447  1.00  0.00    -0.386 A  
BRANCH   7  10
HETATM   10  C   UNL     1     -11.157  13.577  66.048  1.00  0.00    -0.293 C  
BRANCH  10  11
HETATM   11  N   UNL     1      -9.737  13.777  65.817  1.00  0.00    -0.481 NA 
HETATM   12  H   UNL     1      -9.249  13.340  65.035  1.00  0.00     0.000 HD 
BRANCH  11  13
HETATM   13  C   UNL     1      -9.076  14.613  66.738  1.00  0.00    -0.264 A  
HETATM   14  C   UNL     1      -8.082  14.087  67.548  1.00  0.00    -0.197 A  
HETATM   15  C   UNL     1      -7.464  14.986  68.384  1.00  0.00    -0.113 A  
HETATM   16  N   UNL     1      -9.392  15.931  66.771  1.00  0.00    -0.226 NA 
HETATM   17  C   UNL     1      -8.723  16.749  67.609  1.00  0.00    -0.204 A  
HETATM   18  N   UNL     1      -7.775  16.300  68.442  1.00  0.00    -0.161 NA 
BRANCH  14  19
HETATM   19  C   UNL     1      -7.664  12.668  67.608  1.00  0.00    -0.155 C  
HETATM   20  O   UNL     1      -8.011  11.978  68.559  1.00  0.00    -0.147 OA 
HETATM   21  N   UNL     1      -6.923  12.178  66.559  1.00  0.00    -0.317 N  
HETATM   22  H   UNL     1      -6.716  12.793  65.771  1.00  0.00     0.000 HD 
BRANCH  21  23
HETATM   23  C   UNL     1      -6.421  10.812  66.533  1.00  0.00    -0.119 C  
BRANCH  23  24
HETATM   24  C   UNL     1      -6.954   9.961  65.394  1.00  0.00    -0.113 A  
HETATM   25  N   UNL     1      -7.777   8.941  65.726  1.00  0.00    -0.093 NA 
HETATM   26  C   UNL     1      -8.284   8.215  64.712  1.00  0.00    -0.133 A  
HETATM   27  N   UNL     1      -6.598  10.264  64.124  1.00  0.00    -0.109 NA 
HETATM   28  C   UNL     1      -7.145   9.507  63.152  1.00  0.00    -0.101 A  
HETATM   29  C   UNL     1      -8.002   8.459  63.391  1.00  0.00    -0.160 A  
ENDBRANCH  23  24
ENDBRANCH  21  23
ENDBRANCH  14  19
BRANCH  17  30
HETATM   30  N   UNL     1      -9.017  18.084  67.625  1.00  0.00    -0.250 NA 
HETATM   31  C   UNL     1      -9.935  20.020  66.608  1.00  0.00    -0.598 C  
HETATM   32  C   UNL     1      -9.801  18.709  68.666  1.00  0.00    -0.385 C  
HETATM   33  C   UNL     1      -8.861  18.932  66.444  1.00  0.00    -0.306 C  
HETATM   34  C   UNL     1     -10.645  19.743  67.928  1.00  0.00    -0.468 C  
BRANCH  33  35
HETATM   35  C   UNL     1      -7.441  19.534  66.416  1.00  0.00    -0.266 C  
HETATM   36  O   UNL     1      -7.441  20.851  65.859  1.00  0.00    -0.465 OA 
HETATM   37  H   UNL     1      -6.567  21.222  65.842  1.00  0.00     0.000 HD 
ENDBRANCH  33  35
ENDBRANCH  17  30
ENDBRANCH  11  13
ENDBRANCH  10  11
ENDBRANCH   7  10
ENDBRANCH   2   3
TORSDOF 9
ENDMDL
MODEL       55
REMARK 921   NORMALIZED FREE ENERGY PREDICTED BY IDOCK:   -6.29 KCAL/MOL
REMARK 922        TOTAL FREE ENERGY PREDICTED BY IDOCK:  -11.13 KCAL/MOL
REMARK 923 INTER-LIGAND FREE ENERGY PREDICTED BY IDOCK:   -9.17 KCAL/MOL
REMARK 924 INTRA-LIGAND FREE ENERGY PREDICTED BY IDOCK:   -1.96 KCAL/MOL
REMARK 927      BINDING AFFINITY PREDICTED BY RF-SCORE:    0.00 PKD
ROOT
HETATM    1  C   UNL     1      -6.079  10.250  63.063  1.00  0.00    -0.145 C  
HETATM    2  O   UNL     1      -6.377   9.493  64.227  1.00  0.00    -0.089 OA 
ENDROOT
BRANCH   2   3
HETATM    3  C   UNL     1      -7.512   9.830  64.916  1.00  0.00    -0.129 A  
HETATM    4  C   UNL     1      -7.366  10.700  66.008  1.00  0.00    -0.132 A  
HETATM    5 CL   UNL     1      -5.805  11.237  66.528  1.00  0.00    -0.138 Cl 
HETATM    6  C   UNL     1      -8.482  11.150  66.723  1.00  0.00    -0.153 A  
HETATM    7  C   UNL     1      -9.771  10.751  66.350  1.00  0.00    -0.241 A  
HETATM    8  C   UNL     1      -8.798   9.410  64.563  1.00  0.00    -0.235 A  
HETATM    9  C   UNL     1      -9.914   9.860  65.278  1.00  0.00    -0.320 A  
BRANCH   7  10
HETATM   10  C   UNL     1     -10.981  11.232  67.119  1.00  0.00    -0.291 C  
BRANCH  10  11
HETATM   11  N   UNL     1     -10.536  11.626  68.445  1.00  0.00    -0.205 NA 
HETATM   12  H   UNL     1      -9.791  12.308  68.586  1.00  0.00     0.000 HD 
BRANCH  11  13
HETATM   13  C   UNL     1     -11.198  11.007  69.524  1.00  0.00    -0.279 A  
HETATM   14  C   UNL     1     -11.988  11.769  70.369  1.00  0.00    -0.422 A  
HETATM   15  C   UNL     1     -12.628  11.072  71.367  1.00  0.00    -0.393 A  
HETATM   16  N   UNL     1     -11.090   9.663  69.675  1.00  0.00    -0.223 NA 
HETATM   17  C   UNL     1     -11.767   9.056  70.670  1.00  0.00    -0.198 A  
HETATM   18  N   UNL     1     -12.520   9.737  71.543  1.00  0.00    -0.374 NA 
BRANCH  14  19
HETATM   19  C   UNL     1     -12.169  13.237  70.309  1.00  0.00    -0.321 C  
HETATM   20  O   UNL     1     -13.264  13.719  70.576  1.00  0.00    -0.069 OA 
HETATM   21  N   UNL     1     -11.074  14.001  69.983  1.00  0.00    -0.473 N  
HETATM   22  H   UNL     1     -10.178  13.538  69.828  1.00  0.00     0.000 HD 
BRANCH  21  23
HETATM   23  C   UNL     1     -11.148  15.449  69.853  1.00  0.00    -0.293 C  
BRANCH  23  24
HETATM   24  C   UNL     1     -10.649  15.993  68.526  1.00  0.00    -0.268 A  
HETATM   25  N   UNL     1     -10.574  17.337  68.407  1.00  0.00    -0.373 NA 
HETATM   26  C   UNL     1     -10.089  17.819  67.247  1.00  0.00    -0.337 A  
HETATM   27  N   UNL     1     -10.297  15.126  67.550  1.00  0.00    -0.240 NA 
HETATM   28  C   UNL     1      -9.810  15.667  66.415  1.00  0.00    -0.274 A  
HETATM   29  C   UNL     1      -9.683  17.021  66.207  1.00  0.00    -0.302 A  
ENDBRANCH  23  24
ENDBRANCH  21  23
ENDBRANCH  14  19
BRANCH  17  30
HETATM   30  N   UNL     1     -11.685   7.698  70.809  1.00  0.00    -0.272 NA 
HETATM   31  C   UNL     1     -10.419   5.709  71.067  1.00  0.00    -0.316 C  
HETATM   32  C   UNL     1     -12.356   6.969  71.862  1.00  0.00    -0.323 C  
HETATM   33  C   UNL     1     -10.664   6.902  70.129  1.00  0.00    -0.237 C  
HETATM   34  C   UNL     1     -11.365   5.878  72.251  1.00  0.00    -0.351 C  
BRANCH  33  35
HETATM   35  C   UNL     1     -11.187   6.446  68.752  1.00  0.00    -0.274 C  
HETATM   36  O   UNL     1     -11.023   7.468  67.765  1.00  0.00    -0.476 OA 
HETATM   37  H   UNL     1     -11.345   7.187  66.916  1.00  0.00     0.000 HD 
ENDBRANCH  33  35
ENDBRANCH  17  30
ENDBRANCH  11  13
ENDBRANCH  10  11
ENDBRANCH   7  10
ENDBRANCH   2   3
TORSDOF 9
ENDMDL
MODEL       56
REMARK 921   NORMALIZED FREE ENERGY PREDICTED BY IDOCK:   -6.28 KCAL/MOL
REMARK 922        TOTAL FREE ENERGY PREDICTED BY IDOCK:  -11.12 KCAL/MOL
REMARK 923 INTER-LIGAND FREE ENERGY PREDICTED BY IDOCK:   -9.68 KCAL/MOL
REMARK 924 INTRA-LIGAND FREE ENERGY PREDICTED BY IDOCK:   -1.43 KCAL/MOL
REMARK 927      BINDING AFFINITY PREDICTED BY RF-SCORE:    0.00 PKD
ROOT
HETATM    1  C   UNL     1     -10.674   4.003  73.722  1.00  0.00    -0.239 C  
HETATM    2  O   UNL     1     -10.715   5.361  74.138  1.00  0.00    -0.274 OA 
ENDROOT
BRANCH   2   3
HETATM    3  C   UNL     1     -10.704   6.315  73.155  1.00  0.00    -0.261 A  
HETATM    4  C   UNL     1      -9.674   7.269  73.198  1.00  0.00    -0.209 A  
HETATM    5 CL   UNL     1      -8.532   7.302  74.498  1.00  0.00    -0.228 Cl 
HETATM    6  C   UNL     1      -9.548   8.236  72.194  1.00  0.00    -0.338 A  
HETATM    7  C   UNL     1     -10.442   8.260  71.116  1.00  0.00    -0.254 A  
HETATM    8  C   UNL     1     -11.612   6.359  72.094  1.00  0.00    -0.357 A  
HETATM    9  C   UNL     1     -11.487   7.327  71.090  1.00  0.00    -0.312 A  
BRANCH   7  10
HETATM   10  C   UNL     1     -10.312   9.303  70.029  1.00  0.00    -0.217 C  
BRANCH  10  11
HETATM   11  N   UNL     1     -11.070   8.843  68.879  1.00  0.00    -0.433 NA 
HETATM   12  H   UNL     1     -11.862   8.206  68.971  1.00  0.00     0.000 HD 
BRANCH  11  13
HETATM   13  C   UNL     1     -10.645   9.331  67.628  1.00  0.00    -0.261 A  
HETATM   14  C   UNL     1     -10.055   8.465  66.721  1.00  0.00    -0.373 A  
HETATM   15  C   UNL     1      -9.712   9.020  65.511  1.00  0.00    -0.014 A  
HETATM   16  N   UNL     1     -10.875  10.631  67.318  1.00  0.00    -0.286 NA 
HETATM   17  C   UNL     1     -10.524  11.090  66.100  1.00  0.00    -0.244 A  
HETATM   18  N   UNL     1      -9.919  10.316  65.190  1.00  0.00    -0.319 NA 
BRANCH  14  19
HETATM   19  C   UNL     1      -9.743   7.036  66.953  1.00  0.00    -0.175 C  
HETATM   20  O   UNL     1      -9.038   6.721  67.905  1.00  0.00    -0.118 OA 
HETATM   21  N   UNL     1     -10.297   6.116  66.095  1.00  0.00    -0.424 N  
HETATM   22  H   UNL     1     -10.921   6.443  65.357  1.00  0.00     0.000 HD 
BRANCH  21  23
HETATM   23  C   UNL     1     -10.024   4.691  66.203  1.00  0.00    -0.247 C  
BRANCH  23  24
HETATM   24  C   UNL     1      -9.823   3.980  64.877  1.00  0.00    -0.200 A  
HETATM   25  N   UNL     1     -10.898   3.353  64.350  1.00  0.00    -0.042 NA 
HETATM   26  C   UNL     1     -10.731   2.761  63.153  1.00  0.00    -0.224 A  
HETATM   27  N   UNL     1      -8.605   4.017  64.288  1.00  0.00    -0.105 NA 
HETATM   28  C   UNL     1      -8.502   3.414  63.087  1.00  0.00    -0.089 A  
HETATM   29  C   UNL     1      -9.543   2.764  62.466  1.00  0.00    -0.092 A  
ENDBRANCH  23  24
ENDBRANCH  21  23
ENDBRANCH  14  19
BRANCH  17  30
HETATM   30  N   UNL     1     -10.781  12.392  65.772  1.00  0.00    -0.260 NA 
HETATM   31  C   UNL     1     -12.256  14.244  65.625  1.00  0.00    -0.409 C  
HETATM   32  C   UNL     1     -10.027  13.506  66.303  1.00  0.00    -0.298 C  
HETATM   33  C   UNL     1     -12.030  12.805  65.133  1.00  0.00    -0.424 C  
HETATM   34  C   UNL     1     -11.072  14.595  66.520  1.00  0.00    -0.329 C  
BRANCH  33  35
HETATM   35  C   UNL     1     -11.877  12.745  63.600  1.00  0.00    -0.532 C  
HETATM   36  O   UNL     1     -12.530  13.848  62.964  1.00  0.00    -1.099 OA 
HETATM   37  H   UNL     1     -12.436  13.811  62.020  1.00  0.00     0.000 HD 
ENDBRANCH  33  35
ENDBRANCH  17  30
ENDBRANCH  11  13
ENDBRANCH  10  11
ENDBRANCH   7  10
ENDBRANCH   2   3
TORSDOF 9
ENDMDL
MODEL       57
REMARK 921   NORMALIZED FREE ENERGY PREDICTED BY IDOCK:   -6.27 KCAL/MOL
REMARK 922        TOTAL FREE ENERGY PREDICTED BY IDOCK:  -11.10 KCAL/MOL
REMARK 923 INTER-LIGAND FREE ENERGY PREDICTED BY IDOCK:   -9.31 KCAL/MOL
REMARK 924 INTRA-LIGAND FREE ENERGY PREDICTED BY IDOCK:   -1.80 KCAL/MOL
REMARK 927      BINDING AFFINITY PREDICTED BY RF-SCORE:    0.00 PKD
ROOT
HETATM    1  C   UNL     1      -7.658   6.579  64.270  1.00  0.00    -0.100 C  
HETATM    2  O   UNL     1      -7.887   7.916  63.847  1.00  0.00    -0.134 OA 
ENDROOT
BRANCH   2   3
HETATM    3  C   UNL     1      -8.645   8.708  64.668  1.00  0.00    -0.089 A  
HETATM    4  C   UNL     1      -9.152   9.898  64.122  1.00  0.00    -0.252 A  
HETATM    5 CL   UNL     1      -8.747  10.395  62.515  1.00  0.00    -0.217 Cl 
HETATM    6  C   UNL     1      -9.993  10.731  64.870  1.00  0.00    -0.374 A  
HETATM    7  C   UNL     1     -10.357  10.381  66.176  1.00  0.00    -0.269 A  
HETATM    8  C   UNL     1      -8.986   8.376  65.982  1.00  0.00    -0.228 A  
HETATM    9  C   UNL     1      -9.827   9.209  66.731  1.00  0.00    -0.291 A  
BRANCH   7  10
HETATM   10  C   UNL     1     -11.263  11.278  66.990  1.00  0.00    -0.255 C  
BRANCH  10  11
HETATM   11  N   UNL     1     -10.525  11.708  68.164  1.00  0.00    -0.188 NA 
HETATM   12  H   UNL     1     -10.739  11.359  69.098  1.00  0.00     0.000 HD 
BRANCH  11  13
HETATM   13  C   UNL     1      -9.493  12.639  67.933  1.00  0.00    -0.204 A  
HETATM   14  C   UNL     1      -8.192  12.320  68.288  1.00  0.00    -0.167 A  
HETATM   15  C   UNL     1      -7.246  13.272  67.985  1.00  0.00    -0.121 A  
HETATM   16  N   UNL     1      -9.791  13.809  67.314  1.00  0.00    -0.236 NA 
HETATM   17  C   UNL     1      -8.800  14.679  67.038  1.00  0.00    -0.241 A  
HETATM   18  N   UNL     1      -7.527  14.449  67.383  1.00  0.00    -0.187 NA 
BRANCH  14  19
HETATM   19  C   UNL     1      -7.751  11.086  68.977  1.00  0.00    -0.132 C  
HETATM   20  O   UNL     1      -6.616  10.665  68.788  1.00  0.00    -0.051 OA 
HETATM   21  N   UNL     1      -8.641  10.483  69.833  1.00  0.00    -0.338 N  
HETATM   22  H   UNL     1      -9.550  10.919  69.987  1.00  0.00     0.000 HD 
BRANCH  21  23
HETATM   23  C   UNL     1      -8.330   9.243  70.529  1.00  0.00    -0.205 C  
BRANCH  23  24
HETATM   24  C   UNL     1      -9.511   8.595  71.231  1.00  0.00    -0.224 A  
HETATM   25  N   UNL     1      -9.285   8.085  72.462  1.00  0.00    -0.192 NA 
HETATM   26  C   UNL     1     -10.342   7.550  73.102  1.00  0.00    -0.347 A  
HETATM   27  N   UNL     1     -10.712   8.570  70.609  1.00  0.00    -0.214 NA 
HETATM   28  C   UNL     1     -11.734   8.030  71.304  1.00  0.00    -0.282 A  
HETATM   29  C   UNL     1     -11.605   7.500  72.566  1.00  0.00    -0.352 A  
ENDBRANCH  23  24
ENDBRANCH  21  23
ENDBRANCH  14  19
BRANCH  17  30
HETATM   30  N   UNL     1      -9.091  15.846  66.387  1.00  0.00    -0.289 NA 
HETATM   31  C   UNL     1     -10.418  17.793  66.107  1.00  0.00    -0.301 C  
HETATM   32  C   UNL     1      -8.138  16.921  66.227  1.00  0.00    -0.316 C  
HETATM   33  C   UNL     1     -10.464  16.256  66.092  1.00  0.00    -0.322 C  
HETATM   34  C   UNL     1      -8.972  18.188  66.386  1.00  0.00    -0.256 C  
BRANCH  33  35
HETATM   35  C   UNL     1     -10.886  15.712  64.712  1.00  0.00    -0.355 C  
HETATM   36  O   UNL     1     -11.578  16.703  63.948  1.00  0.00    -1.582 OA 
HETATM   37  H   UNL     1     -11.838  16.369  63.098  1.00  0.00     0.000 HD 
ENDBRANCH  33  35
ENDBRANCH  17  30
ENDBRANCH  11  13
ENDBRANCH  10  11
ENDBRANCH   7  10
ENDBRANCH   2   3
TORSDOF 9
ENDMDL
MODEL       58
REMARK 921   NORMALIZED FREE ENERGY PREDICTED BY IDOCK:   -6.26 KCAL/MOL
REMARK 922        TOTAL FREE ENERGY PREDICTED BY IDOCK:  -11.08 KCAL/MOL
REMARK 923 INTER-LIGAND FREE ENERGY PREDICTED BY IDOCK:   -9.77 KCAL/MOL
REMARK 924 INTRA-LIGAND FREE ENERGY PREDICTED BY IDOCK:   -1.30 KCAL/MOL
REMARK 927      BINDING AFFINITY PREDICTED BY RF-SCORE:    0.00 PKD
ROOT
HETATM    1  C   UNL     1     -11.946  15.662  64.081  1.00  0.00    -0.039 C  
HETATM    2  O   UNL     1     -12.594  14.408  63.918  1.00  0.00    -0.814 OA 
ENDROOT
BRANCH   2   3
HETATM    3  C   UNL     1     -11.849  13.285  64.163  1.00  0.00    -0.443 A  
HETATM    4  C   UNL     1     -11.808  12.817  65.486  1.00  0.00    -0.422 A  
HETATM    5 CL   UNL     1     -12.579  13.684  66.771  1.00  0.00    -0.221 Cl 
HETATM    6  C   UNL     1     -11.128  11.638  65.811  1.00  0.00    -0.313 A  
HETATM    7  C   UNL     1     -10.486  10.892  64.815  1.00  0.00    -0.373 A  
HETATM    8  C   UNL     1     -11.183  12.555  63.175  1.00  0.00    -0.120 A  
HETATM    9  C   UNL     1     -10.501  11.375  63.500  1.00  0.00    -0.477 A  
BRANCH   7  10
HETATM   10  C   UNL     1      -9.748   9.618  65.160  1.00  0.00    -0.217 C  
BRANCH  10  11
HETATM   11  N   UNL     1      -8.955   9.873  66.350  1.00  0.00    -0.145 NA 
HETATM   12  H   UNL     1      -8.166  10.519  66.348  1.00  0.00     0.000 HD 
BRANCH  11  13
HETATM   13  C   UNL     1      -9.344   9.172  67.509  1.00  0.00    -0.135 A  
HETATM   14  C   UNL     1      -9.737   9.877  68.635  1.00  0.00    -0.163 A  
HETATM   15  C   UNL     1     -10.140   9.109  69.702  1.00  0.00    -0.198 A  
HETATM   16  N   UNL     1      -9.378   7.817  67.475  1.00  0.00    -0.138 NA 
HETATM   17  C   UNL     1      -9.805   7.140  68.560  1.00  0.00    -0.153 A  
HETATM   18  N   UNL     1     -10.166   7.758  69.692  1.00  0.00    -0.201 NA 
BRANCH  14  19
HETATM   19  C   UNL     1      -9.729  11.349  68.792  1.00  0.00    -0.145 C  
HETATM   20  O   UNL     1      -8.766  11.991  68.388  1.00  0.00    -0.173 OA 
HETATM   21  N   UNL     1     -10.834  11.936  69.359  1.00  0.00    -0.448 N  
HETATM   22  H   UNL     1     -11.625  11.346  69.621  1.00  0.00     0.000 HD 
BRANCH  21  23
HETATM   23  C   UNL     1     -10.916  13.368  69.601  1.00  0.00     0.134 C  
BRANCH  23  24
HETATM   24  C   UNL     1     -12.049  13.794  70.519  1.00  0.00    -0.345 A  
HETATM   25  N   UNL     1     -12.610  12.832  71.284  1.00  0.00    -0.319 NA 
HETATM   26  C   UNL     1     -13.583  13.219  72.130  1.00  0.00    -0.562 A  
HETATM   27  N   UNL     1     -12.427  15.093  70.537  1.00  0.00    -0.355 NA 
HETATM   28  C   UNL     1     -13.400  15.421  71.411  1.00  0.00    -0.519 A  
HETATM   29  C   UNL     1     -14.020  14.515  72.239  1.00  0.00    -0.600 A  
ENDBRANCH  23  24
ENDBRANCH  21  23
ENDBRANCH  14  19
BRANCH  17  30
HETATM   30  N   UNL     1      -9.869   5.776  68.520  1.00  0.00    -0.133 NA 
HETATM   31  C   UNL     1      -8.884   3.661  68.089  1.00  0.00    -0.149 C  
HETATM   32  C   UNL     1     -10.218   4.967  69.667  1.00  0.00    -0.195 C  
HETATM   33  C   UNL     1      -9.277   4.996  67.434  1.00  0.00    -0.119 C  
HETATM   34  C   UNL     1      -9.315   3.743  69.549  1.00  0.00    -0.249 C  
BRANCH  33  35
HETATM   35  C   UNL     1     -10.313   4.795  66.309  1.00  0.00    -0.291 C  
HETATM   36  O   UNL     1     -11.294   5.836  66.309  1.00  0.00    -0.733 OA 
HETATM   37  H   UNL     1     -11.932   5.713  65.616  1.00  0.00     0.000 HD 
ENDBRANCH  33  35
ENDBRANCH  17  30
ENDBRANCH  11  13
ENDBRANCH  10  11
ENDBRANCH   7  10
ENDBRANCH   2   3
TORSDOF 9
ENDMDL
MODEL       59
REMARK 921   NORMALIZED FREE ENERGY PREDICTED BY IDOCK:   -6.24 KCAL/MOL
REMARK 922        TOTAL FREE ENERGY PREDICTED BY IDOCK:  -11.05 KCAL/MOL
REMARK 923 INTER-LIGAND FREE ENERGY PREDICTED BY IDOCK:   -9.09 KCAL/MOL
REMARK 924 INTRA-LIGAND FREE ENERGY PREDICTED BY IDOCK:   -1.97 KCAL/MOL
REMARK 927      BINDING AFFINITY PREDICTED BY RF-SCORE:    0.00 PKD
ROOT
HETATM    1  C   UNL     1      -9.948   4.579  72.620  1.00  0.00    -0.165 C  
HETATM    2  O   UNL     1     -10.578   5.645  73.317  1.00  0.00    -0.216 OA 
ENDROOT
BRANCH   2   3
HETATM    3  C   UNL     1     -10.872   6.772  72.597  1.00  0.00    -0.250 A  
HETATM    4  C   UNL     1      -9.930   7.813  72.620  1.00  0.00    -0.238 A  
HETATM    5 CL   UNL     1      -8.509   7.718  73.604  1.00  0.00    -0.245 Cl 
HETATM    6  C   UNL     1     -10.118   8.971  71.858  1.00  0.00    -0.323 A  
HETATM    7  C   UNL     1     -11.248   9.106  71.041  1.00  0.00    -0.380 A  
HETATM    8  C   UNL     1     -12.013   6.921  71.804  1.00  0.00    -0.372 A  
HETATM    9  C   UNL     1     -12.203   8.080  71.041  1.00  0.00    -0.199 A  
BRANCH   7  10
HETATM   10  C   UNL     1     -11.459  10.356  70.216  1.00  0.00    -0.325 C  
BRANCH  10  11
HETATM   11  N   UNL     1     -10.210  10.656  69.538  1.00  0.00    -0.366 NA 
HETATM   12  H   UNL     1      -9.372  10.940  70.047  1.00  0.00     0.000 HD 
BRANCH  11  13
HETATM   13  C   UNL     1     -10.226  10.530  68.135  1.00  0.00    -0.162 A  
HETATM   14  C   UNL     1      -9.979   9.296  67.556  1.00  0.00    -0.254 A  
HETATM   15  C   UNL     1     -10.060   9.261  66.183  1.00  0.00    -0.233 A  
HETATM   16  N   UNL     1     -10.542  11.615  67.384  1.00  0.00    -0.212 NA 
HETATM   17  C   UNL     1     -10.617  11.489  66.044  1.00  0.00    -0.261 A  
HETATM   18  N   UNL     1     -10.357  10.334  65.417  1.00  0.00    -0.232 NA 
BRANCH  14  19
HETATM   19  C   UNL     1      -9.614   8.052  68.271  1.00  0.00    -0.146 C  
HETATM   20  O   UNL     1      -8.577   8.016  68.922  1.00  0.00    -0.130 OA 
HETATM   21  N   UNL     1     -10.489   6.995  68.197  1.00  0.00    -0.191 N  
HETATM   22  H   UNL     1     -11.363   7.113  67.683  1.00  0.00     0.000 HD 
BRANCH  21  23
HETATM   23  C   UNL     1     -10.212   5.712  68.824  1.00  0.00    -0.204 C  
BRANCH  23  24
HETATM   24  C   UNL     1      -9.512   4.704  67.929  1.00  0.00    -0.152 A  
HETATM   25  N   UNL     1     -10.045   4.502  66.704  1.00  0.00    -0.229 NA 
HETATM   26  C   UNL     1      -9.399   3.642  65.894  1.00  0.00    -0.166 A  
HETATM   27  N   UNL     1      -8.404   4.077  68.385  1.00  0.00    -0.089 NA 
HETATM   28  C   UNL     1      -7.796   3.234  67.526  1.00  0.00    -0.077 A  
HETATM   29  C   UNL     1      -8.255   2.976  66.256  1.00  0.00    -0.091 A  
ENDBRANCH  23  24
ENDBRANCH  21  23
ENDBRANCH  14  19
BRANCH  17  30
HETATM   30  N   UNL     1     -10.963  12.571  65.284  1.00  0.00    -0.286 NA 
HETATM   31  C   UNL     1     -12.376  14.422  64.828  1.00  0.00    -0.427 C  
HETATM   32  C   UNL     1     -10.059  13.665  65.006  1.00  0.00    -0.267 C  
HETATM   33  C   UNL     1     -12.355  12.890  64.966  1.00  0.00    -0.485 C  
HETATM   34  C   UNL     1     -10.947  14.904  65.050  1.00  0.00    -0.432 C  
BRANCH  33  35
HETATM   35  C   UNL     1     -12.764  12.194  63.653  1.00  0.00    -0.432 C  
HETATM   36  O   UNL     1     -11.647  11.554  63.030  1.00  0.00    -0.848 OA 
HETATM   37  H   UNL     1     -11.898  11.124  62.221  1.00  0.00     0.000 HD 
ENDBRANCH  33  35
ENDBRANCH  17  30
ENDBRANCH  11  13
ENDBRANCH  10  11
ENDBRANCH   7  10
ENDBRANCH   2   3
TORSDOF 9
ENDMDL
MODEL       60
REMARK 921   NORMALIZED FREE ENERGY PREDICTED BY IDOCK:   -6.23 KCAL/MOL
REMARK 922        TOTAL FREE ENERGY PREDICTED BY IDOCK:  -11.03 KCAL/MOL
REMARK 923 INTER-LIGAND FREE ENERGY PREDICTED BY IDOCK:   -9.25 KCAL/MOL
REMARK 924 INTRA-LIGAND FREE ENERGY PREDICTED BY IDOCK:   -1.78 KCAL/MOL
REMARK 927      BINDING AFFINITY PREDICTED BY RF-SCORE:    0.00 PKD
ROOT
HETATM    1  C   UNL     1     -10.620   5.601  74.076  1.00  0.00    -0.229 C  
HETATM    2  O   UNL     1      -9.958   6.129  72.935  1.00  0.00    -0.170 OA 
ENDROOT
BRANCH   2   3
HETATM    3  C   UNL     1     -10.541   7.204  72.319  1.00  0.00    -0.215 A  
HETATM    4  C   UNL     1      -9.704   8.277  71.973  1.00  0.00    -0.252 A  
HETATM    5 CL   UNL     1      -8.028   8.286  72.403  1.00  0.00    -0.187 Cl 
HETATM    6  C   UNL     1     -10.205   9.385  71.279  1.00  0.00    -0.340 A  
HETATM    7  C   UNL     1     -11.553   9.435  70.903  1.00  0.00    -0.380 A  
HETATM    8  C   UNL     1     -11.892   7.270  71.968  1.00  0.00    -0.332 A  
HETATM    9  C   UNL     1     -12.394   8.378  71.275  1.00  0.00    -0.289 A  
BRANCH   7  10
HETATM   10  C   UNL     1     -12.101  10.630  70.154  1.00  0.00    -0.333 C  
BRANCH  10  11
HETATM   11  N   UNL     1     -11.988  10.353  68.733  1.00  0.00    -0.715 NA 
HETATM   12  H   UNL     1     -12.580   9.665  68.266  1.00  0.00     0.000 HD 
BRANCH  11  13
HETATM   13  C   UNL     1     -11.011  11.093  68.038  1.00  0.00    -0.252 A  
HETATM   14  C   UNL     1     -10.210  10.459  67.103  1.00  0.00    -0.271 A  
HETATM   15  C   UNL     1      -9.315  11.269  66.444  1.00  0.00    -0.192 A  
HETATM   16  N   UNL     1     -10.917  12.427  68.263  1.00  0.00    -0.223 NA 
HETATM   17  C   UNL     1     -10.024  13.152  67.560  1.00  0.00    -0.223 A  
HETATM   18  N   UNL     1      -9.196  12.597  66.665  1.00  0.00    -0.228 NA 
BRANCH  14  19
HETATM   19  C   UNL     1     -10.215   9.013  66.785  1.00  0.00    -0.271 C  
HETATM   20  O   UNL     1      -9.578   8.607  65.819  1.00  0.00    -0.190 OA 
HETATM   21  N   UNL     1     -10.917   8.179  67.621  1.00  0.00    -0.502 N  
HETATM   22  H   UNL     1     -11.379   8.577  68.440  1.00  0.00     0.000 HD 
BRANCH  21  23
HETATM   23  C   UNL     1     -11.026   6.748  67.380  1.00  0.00    -0.337 C  
BRANCH  23  24
HETATM   24  C   UNL     1      -9.990   5.902  68.099  1.00  0.00    -0.145 A  
HETATM   25  N   UNL     1     -10.349   5.379  69.292  1.00  0.00    -0.252 NA 
HETATM   26  C   UNL     1      -9.446   4.593  69.908  1.00  0.00    -0.167 A  
HETATM   27  N   UNL     1      -8.784   5.704  67.517  1.00  0.00    -0.108 NA 
HETATM   28  C   UNL     1      -7.926   4.900  68.177  1.00  0.00    -0.086 A  
HETATM   29  C   UNL     1      -8.207   4.313  69.389  1.00  0.00    -0.069 A  
ENDBRANCH  23  24
ENDBRANCH  21  23
ENDBRANCH  14  19
BRANCH  17  30
HETATM   30  N   UNL     1      -9.946  14.502  67.761  1.00  0.00    -0.223 NA 
HETATM   31  C   UNL     1     -10.972  16.620  68.065  1.00  0.00    -0.311 C  
HETATM   32  C   UNL     1      -9.239  15.097  68.873  1.00  0.00    -0.209 C  
HETATM   33  C   UNL     1     -10.832  15.447  67.081  1.00  0.00    -0.321 C  
HETATM   34  C   UNL     1     -10.107  16.284  69.276  1.00  0.00    -0.267 C  
BRANCH  33  35
HETATM   35  C   UNL     1     -10.196  15.894  65.749  1.00  0.00    -0.365 C  
HETATM   36  O   UNL     1     -10.786  15.220  64.634  1.00  0.00    -0.594 OA 
HETATM   37  H   UNL     1     -10.395  15.494  63.814  1.00  0.00     0.000 HD 
ENDBRANCH  33  35
ENDBRANCH  17  30
ENDBRANCH  11  13
ENDBRANCH  10  11
ENDBRANCH   7  10
ENDBRANCH   2   3
TORSDOF 9
ENDMDL
MODEL       61
REMARK 921   NORMALIZED FREE ENERGY PREDICTED BY IDOCK:   -6.21 KCAL/MOL
REMARK 922        TOTAL FREE ENERGY PREDICTED BY IDOCK:  -11.00 KCAL/MOL
REMARK 923 INTER-LIGAND FREE ENERGY PREDICTED BY IDOCK:   -9.13 KCAL/MOL
REMARK 924 INTRA-LIGAND FREE ENERGY PREDICTED BY IDOCK:   -1.87 KCAL/MOL
REMARK 927      BINDING AFFINITY PREDICTED BY RF-SCORE:    0.00 PKD
ROOT
HETATM    1  C   UNL     1     -11.906  15.770  64.301  1.00  0.00    -0.118 C  
HETATM    2  O   UNL     1     -12.615  14.538  64.316  1.00  0.00    -0.681 OA 
ENDROOT
BRANCH   2   3
HETATM    3  C   UNL     1     -11.879  13.398  64.502  1.00  0.00    -0.398 A  
HETATM    4  C   UNL     1     -11.636  13.001  65.827  1.00  0.00    -0.356 A  
HETATM    5 CL   UNL     1     -12.152  13.968  67.166  1.00  0.00    -0.464 Cl 
HETATM    6  C   UNL     1     -10.953  11.812  66.107  1.00  0.00    -0.355 A  
HETATM    7  C   UNL     1     -10.511  10.986  65.065  1.00  0.00    -0.344 A  
HETATM    8  C   UNL     1     -11.412  12.587  63.464  1.00  0.00    -0.570 A  
HETATM    9  C   UNL     1     -10.727  11.398  63.744  1.00  0.00    -0.470 A  
BRANCH   7  10
HETATM   10  C   UNL     1      -9.771   9.701  65.361  1.00  0.00    -0.295 C  
BRANCH  10  11
HETATM   11  N   UNL     1      -8.485  10.052  65.938  1.00  0.00    -0.129 NA 
HETATM   12  H   UNL     1      -7.694  10.343  65.363  1.00  0.00     0.000 HD 
BRANCH  11  13
HETATM   13  C   UNL     1      -8.397   9.966  67.341  1.00  0.00    -0.118 A  
HETATM   14  C   UNL     1      -7.907  11.043  68.063  1.00  0.00    -0.112 A  
HETATM   15  C   UNL     1      -7.899  10.884  69.429  1.00  0.00    -0.040 A  
HETATM   16  N   UNL     1      -8.850   8.847  67.959  1.00  0.00    -0.133 NA 
HETATM   17  C   UNL     1      -8.824   8.781  69.305  1.00  0.00    -0.140 A  
HETATM   18  N   UNL     1      -8.331   9.771  70.062  1.00  0.00    -0.188 NA 
BRANCH  14  19
HETATM   19  C   UNL     1      -7.375  12.304  67.499  1.00  0.00    -0.137 C  
HETATM   20  O   UNL     1      -6.372  12.272  66.795  1.00  0.00    -0.143 OA 
HETATM   21  N   UNL     1      -8.063  13.462  67.768  1.00  0.00    -0.158 N  
HETATM   22  H   UNL     1      -8.923  13.409  68.314  1.00  0.00     0.000 HD 
BRANCH  21  23
HETATM   23  C   UNL     1      -7.608  14.763  67.301  1.00  0.00    -0.165 C  
BRANCH  23  24
HETATM   24  C   UNL     1      -8.637  15.874  67.411  1.00  0.00    -0.172 A  
HETATM   25  N   UNL     1      -8.674  16.775  66.405  1.00  0.00    -0.280 NA 
HETATM   26  C   UNL     1      -9.616  17.734  66.482  1.00  0.00    -0.308 A  
HETATM   27  N   UNL     1      -9.462  15.902  68.484  1.00  0.00    -0.203 NA 
HETATM   28  C   UNL     1     -10.390  16.880  68.499  1.00  0.00    -0.336 A  
HETATM   29  C   UNL     1     -10.513  17.833  67.516  1.00  0.00    -0.376 A  
ENDBRANCH  23  24
ENDBRANCH  21  23
ENDBRANCH  14  19
BRANCH  17  30
HETATM   30  N   UNL     1      -9.307   7.668  69.934  1.00  0.00    -0.151 NA 
HETATM   31  C   UNL     1     -10.604   5.682  69.936  1.00  0.00    -0.399 C  
HETATM   32  C   UNL     1      -8.455   6.672  70.546  1.00  0.00    -0.138 C  
HETATM   33  C   UNL     1     -10.684   7.207  69.761  1.00  0.00    -0.239 C  
HETATM   34  C   UNL     1      -9.148   5.349  70.240  1.00  0.00    -0.166 C  
BRANCH  33  35
HETATM   35  C   UNL     1     -11.590   7.856  70.826  1.00  0.00    -0.247 C  
HETATM   36  O   UNL     1     -12.909   7.302  70.801  1.00  0.00    -0.598 OA 
HETATM   37  H   UNL     1     -13.467   7.701  71.457  1.00  0.00     0.000 HD 
ENDBRANCH  33  35
ENDBRANCH  17  30
ENDBRANCH  11  13
ENDBRANCH  10  11
ENDBRANCH   7  10
ENDBRANCH   2   3
TORSDOF 9
ENDMDL
MODEL       62
REMARK 921   NORMALIZED FREE ENERGY PREDICTED BY IDOCK:   -6.20 KCAL/MOL
REMARK 922        TOTAL FREE ENERGY PREDICTED BY IDOCK:  -10.98 KCAL/MOL
REMARK 923 INTER-LIGAND FREE ENERGY PREDICTED BY IDOCK:   -9.13 KCAL/MOL
REMARK 924 INTRA-LIGAND FREE ENERGY PREDICTED BY IDOCK:   -1.85 KCAL/MOL
REMARK 927      BINDING AFFINITY PREDICTED BY RF-SCORE:    0.00 PKD
ROOT
HETATM    1  C   UNL     1      -7.425  20.269  66.431  1.00  0.00    -0.245 C  
HETATM    2  O   UNL     1      -8.212  19.554  67.373  1.00  0.00    -0.273 OA 
ENDROOT
BRANCH   2   3
HETATM    3  C   UNL     1      -8.141  18.186  67.334  1.00  0.00    -0.227 A  
HETATM    4  C   UNL     1      -7.312  17.560  68.278  1.00  0.00    -0.223 A  
HETATM    5 CL   UNL     1      -6.338  18.481  69.373  1.00  0.00    -0.273 Cl 
HETATM    6  C   UNL     1      -7.235  16.164  68.354  1.00  0.00    -0.135 A  
HETATM    7  C   UNL     1      -8.000  15.365  67.494  1.00  0.00    -0.192 A  
HETATM    8  C   UNL     1      -8.881  17.387  66.459  1.00  0.00    -0.290 A  
HETATM    9  C   UNL     1      -8.804  15.991  66.533  1.00  0.00    -0.340 A  
BRANCH   7  10
HETATM   10  C   UNL     1      -7.920  13.856  67.569  1.00  0.00    -0.179 C  
BRANCH  10  11
HETATM   11  N   UNL     1      -8.922  13.313  66.669  1.00  0.00    -0.417 NA 
HETATM   12  H   UNL     1      -9.093  13.711  65.745  1.00  0.00     0.000 HD 
BRANCH  11  13
HETATM   13  C   UNL     1      -9.643  12.203  67.150  1.00  0.00    -0.194 A  
HETATM   14  C   UNL     1     -10.881  12.397  67.742  1.00  0.00    -0.257 A  
HETATM   15  C   UNL     1     -11.530  11.252  68.142  1.00  0.00    -0.306 A  
HETATM   16  N   UNL     1      -9.131  10.960  66.971  1.00  0.00    -0.148 NA 
HETATM   17  C   UNL     1      -9.842   9.889  67.377  1.00  0.00    -0.179 A  
HETATM   18  N   UNL     1     -11.029  10.007  67.986  1.00  0.00    -0.260 NA 
BRANCH  14  19
HETATM   19  C   UNL     1     -11.532  13.701  68.001  1.00  0.00    -0.310 C  
HETATM   20  O   UNL     1     -12.405  14.099  67.238  1.00  0.00    -0.350 OA 
HETATM   21  N   UNL     1     -11.143  14.396  69.120  1.00  0.00    -0.256 N  
HETATM   22  H   UNL     1     -10.451  13.979  69.744  1.00  0.00     0.000 HD 
BRANCH  21  23
HETATM   23  C   UNL     1     -11.684  15.706  69.449  1.00  0.00    -0.383 C  
BRANCH  23  24
HETATM   24  C   UNL     1     -12.346  15.796  70.813  1.00  0.00    -0.390 A  
HETATM   25  N   UNL     1     -13.658  15.479  70.877  1.00  0.00    -0.513 NA 
HETATM   26  C   UNL     1     -14.234  15.516  72.094  1.00  0.00    -0.522 A  
HETATM   27  N   UNL     1     -11.605  16.171  71.880  1.00  0.00    -0.449 NA 
HETATM   28  C   UNL     1     -12.233  16.181  73.073  1.00  0.00    -0.541 A  
HETATM   29  C   UNL     1     -13.560  15.860  73.240  1.00  0.00    -0.512 A  
ENDBRANCH  23  24
ENDBRANCH  21  23
ENDBRANCH  14  19
BRANCH  17  30
HETATM   30  N   UNL     1      -9.343   8.633  67.172  1.00  0.00    -0.146 NA 
HETATM   31  C   UNL     1      -8.517   6.567  67.993  1.00  0.00    -0.119 C  
HETATM   32  C   UNL     1     -10.030   7.627  66.393  1.00  0.00    -0.072 C  
HETATM   33  C   UNL     1      -8.256   8.082  67.979  1.00  0.00    -0.129 C  
HETATM   34  C   UNL     1      -9.759   6.326  67.141  1.00  0.00    -0.164 C  
BRANCH  33  35
HETATM   35  C   UNL     1      -6.899   8.420  67.329  1.00  0.00    -0.070 C  
HETATM   36  O   UNL     1      -6.515   9.773  67.589  1.00  0.00    -0.066 OA 
HETATM   37  H   UNL     1      -5.680   9.981  67.189  1.00  0.00     0.000 HD 
ENDBRANCH  33  35
ENDBRANCH  17  30
ENDBRANCH  11  13
ENDBRANCH  10  11
ENDBRANCH   7  10
ENDBRANCH   2   3
TORSDOF 9
ENDMDL
MODEL       63
REMARK 921   NORMALIZED FREE ENERGY PREDICTED BY IDOCK:   -6.19 KCAL/MOL
REMARK 922        TOTAL FREE ENERGY PREDICTED BY IDOCK:  -10.97 KCAL/MOL
REMARK 923 INTER-LIGAND FREE ENERGY PREDICTED BY IDOCK:   -9.40 KCAL/MOL
REMARK 924 INTRA-LIGAND FREE ENERGY PREDICTED BY IDOCK:   -1.58 KCAL/MOL
REMARK 927      BINDING AFFINITY PREDICTED BY RF-SCORE:    0.00 PKD
ROOT
HETATM    1  C   UNL     1      -7.608  15.967  67.440  1.00  0.00    -0.171 C  
HETATM    2  O   UNL     1      -8.418  15.258  66.513  1.00  0.00    -0.265 OA 
ENDROOT
BRANCH   2   3
HETATM    3  C   UNL     1      -8.953  14.069  66.935  1.00  0.00    -0.227 A  
HETATM    4  C   UNL     1     -10.259  13.768  66.518  1.00  0.00    -0.284 A  
HETATM    5 CL   UNL     1     -11.193  14.899  65.600  1.00  0.00    -0.346 Cl 
HETATM    6  C   UNL     1     -10.854  12.545  66.846  1.00  0.00    -0.280 A  
HETATM    7  C   UNL     1     -10.148  11.588  67.587  1.00  0.00    -0.202 A  
HETATM    8  C   UNL     1      -8.260  13.125  67.699  1.00  0.00    -0.175 A  
HETATM    9  C   UNL     1      -8.856  11.901  68.028  1.00  0.00    -0.177 A  
BRANCH   7  10
HETATM   10  C   UNL     1     -10.787  10.265  67.946  1.00  0.00    -0.284 C  
BRANCH  10  11
HETATM   11  N   UNL     1     -10.507  10.003  69.347  1.00  0.00    -0.216 NA 
HETATM   12  H   UNL     1      -9.656   9.530  69.650  1.00  0.00     0.000 HD 
BRANCH  11  13
HETATM   13  C   UNL     1     -11.485  10.442  70.261  1.00  0.00    -0.325 A  
HETATM   14  C   UNL     1     -12.164   9.515  71.035  1.00  0.00    -0.385 A  
HETATM   15  C   UNL     1     -13.068  10.039  71.929  1.00  0.00    -0.460 A  
HETATM   16  N   UNL     1     -11.698  11.774  70.404  1.00  0.00    -0.255 NA 
HETATM   17  C   UNL     1     -12.590  12.205  71.318  1.00  0.00    -0.238 A  
HETATM   18  N   UNL     1     -13.305  11.361  72.074  1.00  0.00    -0.413 NA 
BRANCH  14  19
HETATM   19  C   UNL     1     -12.024   8.043  70.958  1.00  0.00    -0.245 C  
HETATM   20  O   UNL     1     -12.998   7.334  71.182  1.00  0.00    -0.346 OA 
HETATM   21  N   UNL     1     -10.797   7.538  70.599  1.00  0.00    -0.235 N  
HETATM   22  H   UNL     1     -10.044   8.187  70.370  1.00  0.00     0.000 HD 
BRANCH  21  23
HETATM   23  C   UNL     1     -10.535   6.108  70.533  1.00  0.00    -0.234 C  
BRANCH  23  24
HETATM   24  C   UNL     1     -10.372   5.555  69.128  1.00  0.00    -0.248 A  
HETATM   25  N   UNL     1     -11.076   6.163  68.148  1.00  0.00    -0.314 NA 
HETATM   26  C   UNL     1     -10.898   5.701  66.896  1.00  0.00    -0.202 A  
HETATM   27  N   UNL     1      -9.538   4.510  68.925  1.00  0.00    -0.160 NA 
HETATM   28  C   UNL     1      -9.394   4.098  67.649  1.00  0.00    -0.170 A  
HETATM   29  C   UNL     1     -10.056   4.662  66.585  1.00  0.00    -0.263 A  
ENDBRANCH  23  24
ENDBRANCH  21  23
ENDBRANCH  14  19
BRANCH  17  30
HETATM   30  N   UNL     1     -12.787  13.547  71.486  1.00  0.00    -0.361 NA 
HETATM   31  C   UNL     1     -14.015  15.534  71.071  1.00  0.00    -0.166 C  
HETATM   32  C   UNL     1     -12.930  14.169  72.783  1.00  0.00    -0.422 C  
HETATM   33  C   UNL     1     -13.204  14.420  70.389  1.00  0.00     0.070 C  
HETATM   34  C   UNL     1     -13.989  15.245  72.568  1.00  0.00    -0.609 C  
BRANCH  33  35
HETATM   35  C   UNL     1     -11.962  14.980  69.666  1.00  0.00    -0.321 C  
HETATM   36  O   UNL     1     -10.751  14.536  70.285  1.00  0.00    -0.467 OA 
HETATM   37  H   UNL     1      -9.986  14.881  69.840  1.00  0.00     0.000 HD 
ENDBRANCH  33  35
ENDBRANCH  17  30
ENDBRANCH  11  13
ENDBRANCH  10  11
ENDBRANCH   7  10
ENDBRANCH   2   3
TORSDOF 9
ENDMDL
MODEL       64
REMARK 921   NORMALIZED FREE ENERGY PREDICTED BY IDOCK:   -6.16 KCAL/MOL
REMARK 922        TOTAL FREE ENERGY PREDICTED BY IDOCK:  -10.93 KCAL/MOL
REMARK 923 INTER-LIGAND FREE ENERGY PREDICTED BY IDOCK:   -8.52 KCAL/MOL
REMARK 924 INTRA-LIGAND FREE ENERGY PREDICTED BY IDOCK:   -2.42 KCAL/MOL
REMARK 927      BINDING AFFINITY PREDICTED BY RF-SCORE:    0.00 PKD
ROOT
HETATM    1  C   UNL     1     -10.858   5.045  73.779  1.00  0.00    -0.304 C  
HETATM    2  O   UNL     1     -11.686   5.421  72.687  1.00  0.00    -0.271 OA 
ENDROOT
BRANCH   2   3
HETATM    3  C   UNL     1     -11.419   6.623  72.088  1.00  0.00    -0.287 A  
HETATM    4  C   UNL     1     -10.874   6.589  70.795  1.00  0.00    -0.261 A  
HETATM    5 CL   UNL     1     -10.456   5.092  70.034  1.00  0.00    -0.353 Cl 
HETATM    6  C   UNL     1     -10.636   7.771  70.084  1.00  0.00    -0.237 A  
HETATM    7  C   UNL     1     -10.953   9.013  70.647  1.00  0.00    -0.308 A  
HETATM    8  C   UNL     1     -11.708   7.866  72.659  1.00  0.00    -0.398 A  
HETATM    9  C   UNL     1     -11.470   9.048  71.948  1.00  0.00    -0.440 A  
BRANCH   7  10
HETATM   10  C   UNL     1     -10.697  10.294  69.884  1.00  0.00    -0.294 C  
BRANCH  10  11
HETATM   11  N   UNL     1      -9.469  10.122  69.128  1.00  0.00    -0.195 NA 
HETATM   12  H   UNL     1      -8.580   9.903  69.580  1.00  0.00     0.000 HD 
BRANCH  11  13
HETATM   13  C   UNL     1      -9.580  10.276  67.732  1.00  0.00    -0.152 A  
HETATM   14  C   UNL     1      -9.160   9.254  66.896  1.00  0.00    -0.158 A  
HETATM   15  C   UNL     1      -9.347   9.475  65.552  1.00  0.00    -0.255 A  
HETATM   16  N   UNL     1     -10.150  11.404  67.240  1.00  0.00    -0.190 NA 
HETATM   17  C   UNL     1     -10.313  11.533  65.908  1.00  0.00    -0.247 A  
HETATM   18  N   UNL     1      -9.899  10.599  65.042  1.00  0.00    -0.268 NA 
BRANCH  14  19
HETATM   19  C   UNL     1      -8.515   7.989  67.317  1.00  0.00    -0.125 C  
HETATM   20  O   UNL     1      -8.945   6.924  66.891  1.00  0.00    -0.115 OA 
HETATM   21  N   UNL     1      -7.426   8.077  68.150  1.00  0.00    -0.099 N  
HETATM   22  H   UNL     1      -7.085   9.000  68.422  1.00  0.00     0.000 HD 
BRANCH  21  23
HETATM   23  C   UNL     1      -6.741   6.898  68.661  1.00  0.00    -0.060 C  
BRANCH  23  24
HETATM   24  C   UNL     1      -6.997   6.600  70.128  1.00  0.00    -0.063 A  
HETATM   25  N   UNL     1      -7.274   7.655  70.926  1.00  0.00    -0.061 NA 
HETATM   26  C   UNL     1      -7.544   7.385  72.217  1.00  0.00    -0.088 A  
HETATM   27  N   UNL     1      -6.949   5.318  70.556  1.00  0.00    -0.051 NA 
HETATM   28  C   UNL     1      -7.238   5.110  71.857  1.00  0.00    -0.084 A  
HETATM   29  C   UNL     1      -7.544   6.117  72.742  1.00  0.00    -0.101 A  
ENDBRANCH  23  24
ENDBRANCH  21  23
ENDBRANCH  14  19
BRANCH  17  30
HETATM   30  N   UNL     1     -10.914  12.655  65.410  1.00  0.00    -0.280 NA 
HETATM   31  C   UNL     1     -12.752  14.151  65.299  1.00  0.00    -0.425 C  
HETATM   32  C   UNL     1     -10.322  13.971  65.487  1.00  0.00    -0.339 C  
HETATM   33  C   UNL     1     -12.334  12.691  65.060  1.00  0.00    -0.497 C  
HETATM   34  C   UNL     1     -11.502  14.898  65.755  1.00  0.00    -0.281 C  
BRANCH  33  35
HETATM   35  C   UNL     1     -12.520  12.280  63.585  1.00  0.00    -0.541 C  
HETATM   36  O   UNL     1     -12.568  13.421  62.725  1.00  0.00    -0.692 OA 
HETATM   37  H   UNL     1     -12.682  13.168  61.816  1.00  0.00     0.000 HD 
ENDBRANCH  33  35
ENDBRANCH  17  30
ENDBRANCH  11  13
ENDBRANCH  10  11
ENDBRANCH   7  10
ENDBRANCH   2   3
TORSDOF 9
ENDMDL
MODEL       65
REMARK 921   NORMALIZED FREE ENERGY PREDICTED BY IDOCK:   -6.13 KCAL/MOL
REMARK 922        TOTAL FREE ENERGY PREDICTED BY IDOCK:  -10.88 KCAL/MOL
REMARK 923 INTER-LIGAND FREE ENERGY PREDICTED BY IDOCK:   -8.62 KCAL/MOL
REMARK 924 INTRA-LIGAND FREE ENERGY PREDICTED BY IDOCK:   -2.26 KCAL/MOL
REMARK 927      BINDING AFFINITY PREDICTED BY RF-SCORE:    0.00 PKD
ROOT
HETATM    1  C   UNL     1     -11.255  15.875  64.461  1.00  0.00    -0.312 C  
HETATM    2  O   UNL     1     -11.644  14.518  64.305  1.00  0.00    -0.331 OA 
ENDROOT
BRANCH   2   3
HETATM    3  C   UNL     1     -11.766  13.769  65.446  1.00  0.00    -0.335 A  
HETATM    4  C   UNL     1     -11.492  12.396  65.346  1.00  0.00    -0.358 A  
HETATM    5 CL   UNL     1     -11.120  11.662  63.823  1.00  0.00    -0.471 Cl 
HETATM    6  C   UNL     1     -11.524  11.572  66.476  1.00  0.00    -0.178 A  
HETATM    7  C   UNL     1     -11.818  12.108  67.736  1.00  0.00    -0.327 A  
HETATM    8  C   UNL     1     -12.088  14.297  66.700  1.00  0.00    -0.448 A  
HETATM    9  C   UNL     1     -12.121  13.472  67.831  1.00  0.00    -0.304 A  
BRANCH   7  10
HETATM   10  C   UNL     1     -11.857  11.222  68.961  1.00  0.00    -0.352 C  
BRANCH  10  11
HETATM   11  N   UNL     1     -10.614  11.413  69.687  1.00  0.00    -0.447 NA 
HETATM   12  H   UNL     1     -10.418  12.265  70.212  1.00  0.00     0.000 HD 
BRANCH  11  13
HETATM   13  C   UNL     1      -9.694  10.348  69.620  1.00  0.00    -0.124 A  
HETATM   14  C   UNL     1      -8.534  10.491  68.876  1.00  0.00    -0.152 A  
HETATM   15  C   UNL     1      -7.676   9.417  68.905  1.00  0.00    -0.076 A  
HETATM   16  N   UNL     1      -9.941   9.222  70.335  1.00  0.00    -0.219 NA 
HETATM   17  C   UNL     1      -9.038   8.222  70.323  1.00  0.00    -0.150 A  
HETATM   18  N   UNL     1      -7.913   8.281  69.599  1.00  0.00    -0.108 NA 
BRANCH  14  19
HETATM   19  C   UNL     1      -8.165  11.663  68.049  1.00  0.00    -0.146 C  
HETATM   20  O   UNL     1      -7.822  11.493  66.885  1.00  0.00    -0.154 OA 
HETATM   21  N   UNL     1      -8.261  12.906  68.627  1.00  0.00    -0.332 N  
HETATM   22  H   UNL     1      -8.608  12.979  69.584  1.00  0.00     0.000 HD 
BRANCH  21  23
HETATM   23  C   UNL     1      -7.884  14.122  67.922  1.00  0.00    -0.155 C  
BRANCH  23  24
HETATM   24  C   UNL     1      -8.806  15.305  68.158  1.00  0.00    -0.171 A  
HETATM   25  N   UNL     1      -8.877  16.229  67.175  1.00  0.00    -0.187 NA 
HETATM   26  C   UNL     1      -9.729  17.255  67.365  1.00  0.00    -0.258 A  
HETATM   27  N   UNL     1      -9.509  15.372  69.312  1.00  0.00    -0.247 NA 
HETATM   28  C   UNL     1     -10.351  16.416  69.441  1.00  0.00    -0.290 A  
HETATM   29  C   UNL     1     -10.502  17.398  68.490  1.00  0.00    -0.370 A  
ENDBRANCH  23  24
ENDBRANCH  21  23
ENDBRANCH  14  19
BRANCH  17  30
HETATM   30  N   UNL     1      -9.268   7.098  71.066  1.00  0.00    -0.158 NA 
HETATM   31  C   UNL     1     -10.746   5.510  72.028  1.00  0.00    -0.293 C  
HETATM   32  C   UNL     1      -8.677   5.814  70.762  1.00  0.00    -0.130 C  
HETATM   33  C   UNL     1     -10.375   7.002  72.018  1.00  0.00    -0.198 C  
HETATM   34  C   UNL     1      -9.781   4.810  71.077  1.00  0.00    -0.257 C  
BRANCH  33  35
HETATM   35  C   UNL     1      -9.911   7.483  73.408  1.00  0.00    -0.323 C  
HETATM   36  O   UNL     1      -8.787   8.363  73.310  1.00  0.00    -0.260 OA 
HETATM   37  H   UNL     1      -8.502   8.659  74.166  1.00  0.00     0.000 HD 
ENDBRANCH  33  35
ENDBRANCH  17  30
ENDBRANCH  11  13
ENDBRANCH  10  11
ENDBRANCH   7  10
ENDBRANCH   2   3
TORSDOF 9
ENDMDL
MODEL       66
REMARK 921   NORMALIZED FREE ENERGY PREDICTED BY IDOCK:   -6.13 KCAL/MOL
REMARK 922        TOTAL FREE ENERGY PREDICTED BY IDOCK:  -10.88 KCAL/MOL
REMARK 923 INTER-LIGAND FREE ENERGY PREDICTED BY IDOCK:   -9.00 KCAL/MOL
REMARK 924 INTRA-LIGAND FREE ENERGY PREDICTED BY IDOCK:   -1.88 KCAL/MOL
REMARK 927      BINDING AFFINITY PREDICTED BY RF-SCORE:    0.00 PKD
ROOT
HETATM    1  C   UNL     1      -6.014  10.374  63.348  1.00  0.00    -0.129 C  
HETATM    2  O   UNL     1      -7.157   9.621  62.966  1.00  0.00    -0.102 OA 
ENDROOT
BRANCH   2   3
HETATM    3  C   UNL     1      -8.037   9.278  63.958  1.00  0.00    -0.150 A  
HETATM    4  C   UNL     1      -7.865   8.023  64.563  1.00  0.00    -0.138 A  
HETATM    5 CL   UNL     1      -6.659   6.913  64.006  1.00  0.00    -0.038 Cl 
HETATM    6  C   UNL     1      -8.676   7.622  65.631  1.00  0.00    -0.119 A  
HETATM    7  C   UNL     1      -9.669   8.477  66.126  1.00  0.00    -0.259 A  
HETATM    8  C   UNL     1      -9.048  10.117  64.435  1.00  0.00    -0.284 A  
HETATM    9  C   UNL     1      -9.860   9.716  65.503  1.00  0.00    -0.352 A  
BRANCH   7  10
HETATM   10  C   UNL     1     -10.551   8.049  67.278  1.00  0.00    -0.290 C  
BRANCH  10  11
HETATM   11  N   UNL     1     -10.785   9.213  68.114  1.00  0.00    -0.415 NA 
HETATM   12  H   UNL     1     -10.777  10.161  67.737  1.00  0.00     0.000 HD 
BRANCH  11  13
HETATM   13  C   UNL     1     -11.024   8.952  69.478  1.00  0.00    -0.084 A  
HETATM   14  C   UNL     1     -11.410   9.987  70.315  1.00  0.00    -0.376 A  
HETATM   15  C   UNL     1     -11.663   9.630  71.618  1.00  0.00    -0.369 A  
HETATM   16  N   UNL     1     -10.924   7.677  69.929  1.00  0.00    -0.234 NA 
HETATM   17  C   UNL     1     -11.208   7.410  71.219  1.00  0.00    -0.252 A  
HETATM   18  N   UNL     1     -11.554   8.368  72.089  1.00  0.00    -0.347 NA 
BRANCH  14  19
HETATM   19  C   UNL     1     -11.539  11.413  69.939  1.00  0.00    -0.323 C  
HETATM   20  O   UNL     1     -12.396  12.102  70.480  1.00  0.00    -0.332 OA 
HETATM   21  N   UNL     1     -10.655  11.910  69.011  1.00  0.00    -0.373 N  
HETATM   22  H   UNL     1      -9.930  11.294  68.643  1.00  0.00     0.000 HD 
BRANCH  21  23
HETATM   23  C   UNL     1     -10.717  13.284  68.537  1.00  0.00    -0.262 C  
BRANCH  23  24
HETATM   24  C   UNL     1     -11.052  13.433  67.063  1.00  0.00    -0.292 A  
HETATM   25  N   UNL     1     -10.385  14.389  66.379  1.00  0.00    -0.281 NA 
HETATM   26  C   UNL     1     -10.650  14.491  65.063  1.00  0.00    -0.437 A  
HETATM   27  N   UNL     1     -11.973  12.610  66.511  1.00  0.00    -0.533 NA 
HETATM   28  C   UNL     1     -12.188  12.754  65.188  1.00  0.00    -0.477 A  
HETATM   29  C   UNL     1     -11.549  13.688  64.407  1.00  0.00    -0.421 A  
ENDBRANCH  23  24
ENDBRANCH  21  23
ENDBRANCH  14  19
BRANCH  17  30
HETATM   30  N   UNL     1     -11.138   6.122  71.671  1.00  0.00    -0.267 NA 
HETATM   31  C   UNL     1      -9.959   4.349  72.717  1.00  0.00    -0.209 C  
HETATM   32  C   UNL     1     -12.077   5.564  72.619  1.00  0.00     0.052 C  
HETATM   33  C   UNL     1      -9.939   5.300  71.509  1.00  0.00    -0.182 C  
HETATM   34  C   UNL     1     -11.222   4.668  73.509  1.00  0.00    -0.400 C  
BRANCH  33  35
HETATM   35  C   UNL     1     -10.011   4.528  70.175  1.00  0.00    -0.208 C  
HETATM   36  O   UNL     1      -9.300   5.209  69.138  1.00  0.00    -0.111 OA 
HETATM   37  H   UNL     1      -9.344   4.734  68.316  1.00  0.00     0.000 HD 
ENDBRANCH  33  35
ENDBRANCH  17  30
ENDBRANCH  11  13
ENDBRANCH  10  11
ENDBRANCH   7  10
ENDBRANCH   2   3
TORSDOF 9
ENDMDL
MODEL       67
REMARK 921   NORMALIZED FREE ENERGY PREDICTED BY IDOCK:   -6.12 KCAL/MOL
REMARK 922        TOTAL FREE ENERGY PREDICTED BY IDOCK:  -10.88 KCAL/MOL
REMARK 923 INTER-LIGAND FREE ENERGY PREDICTED BY IDOCK:   -8.62 KCAL/MOL
REMARK 924 INTRA-LIGAND FREE ENERGY PREDICTED BY IDOCK:   -2.26 KCAL/MOL
REMARK 927      BINDING AFFINITY PREDICTED BY RF-SCORE:    0.00 PKD
ROOT
HETATM    1  C   UNL     1      -5.957   6.901  70.493  1.00  0.00    -0.027 C  
HETATM    2  O   UNL     1      -5.820   7.260  69.125  1.00  0.00    -0.018 OA 
ENDROOT
BRANCH   2   3
HETATM    3  C   UNL     1      -6.887   7.885  68.535  1.00  0.00    -0.067 A  
HETATM    4  C   UNL     1      -7.809   7.075  67.854  1.00  0.00    -0.114 A  
HETATM    5 CL   UNL     1      -7.551   5.373  67.675  1.00  0.00    -0.087 Cl 
HETATM    6  C   UNL     1      -8.963   7.623  67.283  1.00  0.00    -0.134 A  
HETATM    7  C   UNL     1      -9.228   8.994  67.395  1.00  0.00    -0.158 A  
HETATM    8  C   UNL     1      -7.138   9.258  68.621  1.00  0.00    -0.070 A  
HETATM    9  C   UNL     1      -8.293   9.807  68.049  1.00  0.00    -0.110 A  
BRANCH   7  10
HETATM   10  C   UNL     1     -10.472   9.593  66.778  1.00  0.00    -0.186 C  
BRANCH  10  11
HETATM   11  N   UNL     1     -11.450   9.770  67.837  1.00  0.00    -0.509 NA 
HETATM   12  H   UNL     1     -11.952   8.983  68.248  1.00  0.00     0.000 HD 
BRANCH  11  13
HETATM   13  C   UNL     1     -11.664  11.097  68.260  1.00  0.00    -0.252 A  
HETATM   14  C   UNL     1     -11.769  11.375  69.613  1.00  0.00    -0.415 A  
HETATM   15  C   UNL     1     -11.933  12.702  69.933  1.00  0.00    -0.295 A  
HETATM   16  N   UNL     1     -11.705  12.083  67.329  1.00  0.00    -0.548 NA 
HETATM   17  C   UNL     1     -11.851  13.362  67.730  1.00  0.00    -0.358 A  
HETATM   18  N   UNL     1     -11.992  13.696  69.020  1.00  0.00    -0.351 NA 
BRANCH  14  19
HETATM   19  C   UNL     1     -11.752  10.384  70.713  1.00  0.00    -0.368 C  
HETATM   20  O   UNL     1     -12.763  10.212  71.384  1.00  0.00    -0.353 OA 
HETATM   21  N   UNL     1     -10.594   9.669  70.907  1.00  0.00    -0.320 N  
HETATM   22  H   UNL     1      -9.808   9.822  70.275  1.00  0.00     0.000 HD 
BRANCH  21  23
HETATM   23  C   UNL     1     -10.451   8.701  71.984  1.00  0.00    -0.352 C  
BRANCH  23  24
HETATM   24  C   UNL     1     -10.383   7.253  71.532  1.00  0.00    -0.201 A  
HETATM   25  N   UNL     1     -10.968   6.953  70.352  1.00  0.00    -0.259 NA 
HETATM   26  C   UNL     1     -10.869   5.678  69.930  1.00  0.00    -0.300 A  
HETATM   27  N   UNL     1      -9.741   6.350  72.310  1.00  0.00    -0.152 NA 
HETATM   28  C   UNL     1      -9.667   5.092  71.830  1.00  0.00    -0.161 A  
HETATM   29  C   UNL     1     -10.219   4.696  70.635  1.00  0.00    -0.211 A  
ENDBRANCH  23  24
ENDBRANCH  21  23
ENDBRANCH  14  19
BRANCH  17  30
HETATM   30  N   UNL     1     -11.863  14.362  66.799  1.00  0.00    -0.410 NA 
HETATM   31  C   UNL     1     -10.756  15.739  65.215  1.00  0.00    -0.446 C  
HETATM   32  C   UNL     1     -12.722  14.350  65.636  1.00  0.00    -0.284 C  
HETATM   33  C   UNL     1     -10.794  15.355  66.704  1.00  0.00    -0.302 C  
HETATM   34  C   UNL     1     -11.860  14.944  64.527  1.00  0.00    -0.404 C  
BRANCH  33  35
HETATM   35  C   UNL     1     -11.126  16.568  67.597  1.00  0.00    -0.127 C  
HETATM   36  O   UNL     1     -10.584  16.416  68.911  1.00  0.00    -0.265 OA 
HETATM   37  H   UNL     1     -10.788  17.162  69.461  1.00  0.00     0.000 HD 
ENDBRANCH  33  35
ENDBRANCH  17  30
ENDBRANCH  11  13
ENDBRANCH  10  11
ENDBRANCH   7  10
ENDBRANCH   2   3
TORSDOF 9
ENDMDL
MODEL       68
REMARK 921   NORMALIZED FREE ENERGY PREDICTED BY IDOCK:   -6.12 KCAL/MOL
REMARK 922        TOTAL FREE ENERGY PREDICTED BY IDOCK:  -10.87 KCAL/MOL
REMARK 923 INTER-LIGAND FREE ENERGY PREDICTED BY IDOCK:   -9.59 KCAL/MOL
REMARK 924 INTRA-LIGAND FREE ENERGY PREDICTED BY IDOCK:   -1.28 KCAL/MOL
REMARK 927      BINDING AFFINITY PREDICTED BY RF-SCORE:    0.00 PKD
ROOT
HETATM    1  C   UNL     1      -6.538  10.220  62.808  1.00  0.00    -0.134 C  
HETATM    2  O   UNL     1      -7.522   9.205  62.661  1.00  0.00    -0.098 OA 
ENDROOT
BRANCH   2   3
HETATM    3  C   UNL     1      -8.231   8.858  63.781  1.00  0.00    -0.172 A  
HETATM    4  C   UNL     1      -8.022   7.570  64.299  1.00  0.00    -0.109 A  
HETATM    5 CL   UNL     1      -6.995   6.432  63.496  1.00  0.00    -0.045 Cl 
HETATM    6  C   UNL     1      -8.653   7.159  65.479  1.00  0.00    -0.093 A  
HETATM    7  C   UNL     1      -9.495   8.036  66.175  1.00  0.00    -0.193 A  
HETATM    8  C   UNL     1      -9.095   9.721  64.461  1.00  0.00    -0.297 A  
HETATM    9  C   UNL     1      -9.727   9.310  65.641  1.00  0.00    -0.302 A  
BRANCH   7  10
HETATM   10  C   UNL     1     -10.181   7.597  67.449  1.00  0.00    -0.251 C  
BRANCH  10  11
HETATM   11  N   UNL     1     -10.681   8.786  68.116  1.00  0.00    -0.439 NA 
HETATM   12  H   UNL     1     -10.871   9.652  67.611  1.00  0.00     0.000 HD 
BRANCH  11  13
HETATM   13  C   UNL     1     -10.889   8.670  69.505  1.00  0.00    -0.129 A  
HETATM   14  C   UNL     1     -11.467   9.720  70.200  1.00  0.00    -0.272 A  
HETATM   15  C   UNL     1     -11.670   9.500  71.542  1.00  0.00    -0.402 A  
HETATM   16  N   UNL     1     -10.566   7.506  70.121  1.00  0.00    -0.230 NA 
HETATM   17  C   UNL     1     -10.815   7.366  71.438  1.00  0.00    -0.229 A  
HETATM   18  N   UNL     1     -11.341   8.352  72.176  1.00  0.00    -0.341 NA 
BRANCH  14  19
HETATM   19  C   UNL     1     -11.847  11.036  69.639  1.00  0.00    -0.342 C  
HETATM   20  O   UNL     1     -12.283  11.099  68.495  1.00  0.00    -0.600 OA 
HETATM   21  N   UNL     1     -11.722  12.136  70.453  1.00  0.00    -0.532 N  
HETATM   22  H   UNL     1     -11.406  12.004  71.414  1.00  0.00     0.000 HD 
BRANCH  21  23
HETATM   23  C   UNL     1     -12.025  13.483  69.992  1.00  0.00    -0.340 C  
BRANCH  23  24
HETATM   24  C   UNL     1     -12.533  14.424  71.069  1.00  0.00    -0.355 A  
HETATM   25  N   UNL     1     -13.872  14.565  71.176  1.00  0.00    -0.304 NA 
HETATM   26  C   UNL     1     -14.323  15.366  72.160  1.00  0.00    -0.544 A  
HETATM   27  N   UNL     1     -11.639  15.056  71.865  1.00  0.00    -0.389 NA 
HETATM   28  C   UNL     1     -12.151  15.837  72.838  1.00  0.00    -0.490 A  
HETATM   29  C   UNL     1     -13.498  16.030  73.033  1.00  0.00    -0.567 A  
ENDBRANCH  23  24
ENDBRANCH  21  23
ENDBRANCH  14  19
BRANCH  17  30
HETATM   30  N   UNL     1     -10.520   6.184  72.058  1.00  0.00    -0.206 NA 
HETATM   31  C   UNL     1      -9.221   4.900  73.572  1.00  0.00    -0.119 C  
HETATM   32  C   UNL     1     -11.487   5.429  72.823  1.00  0.00    -0.268 C  
HETATM   33  C   UNL     1      -9.144   5.744  72.289  1.00  0.00    -0.142 C  
HETATM   34  C   UNL     1     -10.686   4.877  73.997  1.00  0.00    -0.354 C  
BRANCH  33  35
HETATM   35  C   UNL     1      -8.653   4.912  71.088  1.00  0.00    -0.122 C  
HETATM   36  O   UNL     1      -9.746   4.429  70.302  1.00  0.00    -0.180 OA 
HETATM   37  H   UNL     1      -9.444   3.916  69.562  1.00  0.00     0.000 HD 
ENDBRANCH  33  35
ENDBRANCH  17  30
ENDBRANCH  11  13
ENDBRANCH  10  11
ENDBRANCH   7  10
ENDBRANCH   2   3
TORSDOF 9
ENDMDL
MODEL       69
REMARK 921   NORMALIZED FREE ENERGY PREDICTED BY IDOCK:   -6.12 KCAL/MOL
REMARK 922        TOTAL FREE ENERGY PREDICTED BY IDOCK:  -10.86 KCAL/MOL
REMARK 923 INTER-LIGAND FREE ENERGY PREDICTED BY IDOCK:   -8.30 KCAL/MOL
REMARK 924 INTRA-LIGAND FREE ENERGY PREDICTED BY IDOCK:   -2.56 KCAL/MOL
REMARK 927      BINDING AFFINITY PREDICTED BY RF-SCORE:    0.00 PKD
ROOT
HETATM    1  C   UNL     1      -8.404  16.152  68.626  1.00  0.00    -0.211 C  
HETATM    2  O   UNL     1      -9.534  15.572  67.989  1.00  0.00    -0.193 OA 
ENDROOT
BRANCH   2   3
HETATM    3  C   UNL     1      -9.783  14.250  68.245  1.00  0.00    -0.221 A  
HETATM    4  C   UNL     1     -10.999  13.936  68.872  1.00  0.00    -0.263 A  
HETATM    5 CL   UNL     1     -12.087  15.175  69.397  1.00  0.00    -0.317 Cl 
HETATM    6  C   UNL     1     -11.364  12.605  69.108  1.00  0.00    -0.339 A  
HETATM    7  C   UNL     1     -10.524  11.558  68.706  1.00  0.00    -0.227 A  
HETATM    8  C   UNL     1      -8.934  13.204  67.871  1.00  0.00    -0.200 A  
HETATM    9  C   UNL     1      -9.298  11.873  68.107  1.00  0.00    -0.191 A  
BRANCH   7  10
HETATM   10  C   UNL     1     -10.912  10.118  68.959  1.00  0.00    -0.226 C  
BRANCH  10  11
HETATM   11  N   UNL     1     -11.137   9.486  67.671  1.00  0.00    -0.462 NA 
HETATM   12  H   UNL     1     -11.847   9.820  67.019  1.00  0.00     0.000 HD 
BRANCH  11  13
HETATM   13  C   UNL     1     -10.313   8.382  67.377  1.00  0.00    -0.285 A  
HETATM   14  C   UNL     1      -9.414   8.460  66.325  1.00  0.00    -0.292 A  
HETATM   15  C   UNL     1      -8.622   7.351  66.140  1.00  0.00    -0.146 A  
HETATM   16  N   UNL     1     -10.380   7.284  68.170  1.00  0.00    -0.187 NA 
HETATM   17  C   UNL     1      -9.554   6.246  67.931  1.00  0.00    -0.118 A  
HETATM   18  N   UNL     1      -8.686   6.242  66.910  1.00  0.00    -0.112 NA 
BRANCH  14  19
HETATM   19  C   UNL     1      -9.262   9.596  65.388  1.00  0.00    -0.238 C  
HETATM   20  O   UNL     1      -8.141  10.023  65.138  1.00  0.00    -0.131 OA 
HETATM   21  N   UNL     1     -10.401  10.101  64.808  1.00  0.00    -0.227 N  
HETATM   22  H   UNL     1     -11.298   9.660  65.017  1.00  0.00     0.000 HD 
BRANCH  21  23
HETATM   23  C   UNL     1     -10.374  11.243  63.907  1.00  0.00    -0.381 C  
BRANCH  23  24
HETATM   24  C   UNL     1     -10.966  12.519  64.480  1.00  0.00    -0.323 A  
HETATM   25  N   UNL     1     -10.293  13.666  64.238  1.00  0.00    -0.301 NA 
HETATM   26  C   UNL     1     -10.841  14.802  64.708  1.00  0.00    -0.376 A  
HETATM   27  N   UNL     1     -12.121  12.451  65.180  1.00  0.00    -0.441 NA 
HETATM   28  C   UNL     1     -12.626  13.623  65.617  1.00  0.00    -0.484 A  
HETATM   29  C   UNL     1     -12.022  14.841  65.408  1.00  0.00    -0.209 A  
ENDBRANCH  23  24
ENDBRANCH  21  23
ENDBRANCH  14  19
BRANCH  17  30
HETATM   30  N   UNL     1      -9.597   5.149  68.746  1.00  0.00    -0.134 NA 
HETATM   31  C   UNL     1      -8.516   3.438  69.984  1.00  0.00    -0.094 C  
HETATM   32  C   UNL     1     -10.268   5.141  70.026  1.00  0.00    -0.284 C  
HETATM   33  C   UNL     1      -8.702   4.007  68.567  1.00  0.00    -0.099 C  
HETATM   34  C   UNL     1      -9.366   4.294  70.917  1.00  0.00    -0.220 C  
BRANCH  33  35
HETATM   35  C   UNL     1      -9.352   2.977  67.621  1.00  0.00    -0.195 C  
HETATM   36  O   UNL     1      -9.381   3.451  66.272  1.00  0.00    -0.172 OA 
HETATM   37  H   UNL     1      -9.781   2.817  65.688  1.00  0.00     0.000 HD 
ENDBRANCH  33  35
ENDBRANCH  17  30
ENDBRANCH  11  13
ENDBRANCH  10  11
ENDBRANCH   7  10
ENDBRANCH   2   3
TORSDOF 9
ENDMDL
MODEL       70
REMARK 921   NORMALIZED FREE ENERGY PREDICTED BY IDOCK:   -6.10 KCAL/MOL
REMARK 922        TOTAL FREE ENERGY PREDICTED BY IDOCK:  -10.84 KCAL/MOL
REMARK 923 INTER-LIGAND FREE ENERGY PREDICTED BY IDOCK:   -8.24 KCAL/MOL
REMARK 924 INTRA-LIGAND FREE ENERGY PREDICTED BY IDOCK:   -2.60 KCAL/MOL
REMARK 927      BINDING AFFINITY PREDICTED BY RF-SCORE:    0.00 PKD
ROOT
HETATM    1  C   UNL     1     -10.089   6.300  74.556  1.00  0.00    -0.336 C  
HETATM    2  O   UNL     1     -10.131   6.246  73.137  1.00  0.00    -0.175 OA 
ENDROOT
BRANCH   2   3
HETATM    3  C   UNL     1     -10.529   7.382  72.482  1.00  0.00    -0.236 A  
HETATM    4  C   UNL     1      -9.528   8.156  71.874  1.00  0.00    -0.197 A  
HETATM    5 CL   UNL     1      -7.853   7.751  72.037  1.00  0.00    -0.104 Cl 
HETATM    6  C   UNL     1      -9.853   9.293  71.126  1.00  0.00    -0.342 A  
HETATM    7  C   UNL     1     -11.191   9.672  70.958  1.00  0.00    -0.445 A  
HETATM    8  C   UNL     1     -11.861   7.778  72.337  1.00  0.00    -0.371 A  
HETATM    9  C   UNL     1     -12.188   8.916  71.589  1.00  0.00    -0.409 A  
BRANCH   7  10
HETATM   10  C   UNL     1     -11.550  10.901  70.152  1.00  0.00    -0.338 C  
BRANCH  10  11
HETATM   11  N   UNL     1     -10.884  10.798  68.866  1.00  0.00    -0.210 NA 
HETATM   12  H   UNL     1     -11.011   9.993  68.252  1.00  0.00     0.000 HD 
BRANCH  11  13
HETATM   13  C   UNL     1     -10.051  11.879  68.517  1.00  0.00    -0.206 A  
HETATM   14  C   UNL     1      -8.726  11.643  68.186  1.00  0.00    -0.159 A  
HETATM   15  C   UNL     1      -8.002  12.753  67.817  1.00  0.00    -0.157 A  
HETATM   16  N   UNL     1     -10.583  13.125  68.459  1.00  0.00    -0.256 NA 
HETATM   17  C   UNL     1      -9.807  14.156  68.069  1.00  0.00    -0.223 A  
HETATM   18  N   UNL     1      -8.511  14.003  67.769  1.00  0.00    -0.171 NA 
BRANCH  14  19
HETATM   19  C   UNL     1      -8.035  10.334  68.226  1.00  0.00    -0.106 C  
HETATM   20  O   UNL     1      -6.942  10.248  68.772  1.00  0.00    -0.063 OA 
HETATM   21  N   UNL     1      -8.681   9.256  67.669  1.00  0.00    -0.116 N  
HETATM   22  H   UNL     1      -9.615   9.388  67.280  1.00  0.00     0.000 HD 
BRANCH  21  23
HETATM   23  C   UNL     1      -8.078   7.933  67.613  1.00  0.00    -0.124 C  
BRANCH  23  24
HETATM   24  C   UNL     1      -8.835   6.857  68.372  1.00  0.00    -0.123 A  
HETATM   25  N   UNL     1      -8.097   5.897  68.970  1.00  0.00    -0.102 NA 
HETATM   26  C   UNL     1      -8.766   4.968  69.679  1.00  0.00    -0.091 A  
HETATM   27  N   UNL     1     -10.186   6.915  68.422  1.00  0.00    -0.168 NA 
HETATM   28  C   UNL     1     -10.800   5.964  69.155  1.00  0.00    -0.336 A  
HETATM   29  C   UNL     1     -10.133   4.956  69.811  1.00  0.00    -0.319 A  
ENDBRANCH  23  24
ENDBRANCH  21  23
ENDBRANCH  14  19
BRANCH  17  30
HETATM   30  N   UNL     1     -10.347  15.409  67.980  1.00  0.00    -0.245 NA 
HETATM   31  C   UNL     1     -10.259  17.743  68.395  1.00  0.00    -0.384 C  
HETATM   32  C   UNL     1     -10.725  16.020  66.725  1.00  0.00    -0.259 C  
HETATM   33  C   UNL     1     -10.284  16.368  69.082  1.00  0.00    -0.280 C  
HETATM   34  C   UNL     1     -10.343  17.487  66.894  1.00  0.00    -0.315 C  
BRANCH  33  35
HETATM   35  C   UNL     1     -11.523  16.207  69.987  1.00  0.00    -0.288 C  
HETATM   36  O   UNL     1     -12.525  15.398  69.364  1.00  0.00    -0.588 OA 
HETATM   37  H   UNL     1     -13.288  15.298  69.921  1.00  0.00     0.000 HD 
ENDBRANCH  33  35
ENDBRANCH  17  30
ENDBRANCH  11  13
ENDBRANCH  10  11
ENDBRANCH   7  10
ENDBRANCH   2   3
TORSDOF 9
ENDMDL
MODEL       71
REMARK 921   NORMALIZED FREE ENERGY PREDICTED BY IDOCK:   -6.10 KCAL/MOL
REMARK 922        TOTAL FREE ENERGY PREDICTED BY IDOCK:  -10.84 KCAL/MOL
REMARK 923 INTER-LIGAND FREE ENERGY PREDICTED BY IDOCK:   -9.16 KCAL/MOL
REMARK 924 INTRA-LIGAND FREE ENERGY PREDICTED BY IDOCK:   -1.67 KCAL/MOL
REMARK 927      BINDING AFFINITY PREDICTED BY RF-SCORE:    0.00 PKD
ROOT
HETATM    1  C   UNL     1      -7.256   4.304  62.813  1.00  0.00    -0.040 C  
HETATM    2  O   UNL     1      -8.084   4.487  63.952  1.00  0.00    -0.089 OA 
ENDROOT
BRANCH   2   3
HETATM    3  C   UNL     1      -8.296   5.775  64.369  1.00  0.00    -0.073 A  
HETATM    4  C   UNL     1      -8.791   5.956  65.670  1.00  0.00    -0.118 A  
HETATM    5 CL   UNL     1      -9.217   4.606  66.666  1.00  0.00    -0.122 Cl 
HETATM    6  C   UNL     1      -8.970   7.239  66.199  1.00  0.00    -0.179 A  
HETATM    7  C   UNL     1      -8.642   8.371  65.441  1.00  0.00    -0.193 A  
HETATM    8  C   UNL     1      -7.997   6.906  63.604  1.00  0.00    -0.062 A  
HETATM    9  C   UNL     1      -8.177   8.190  64.132  1.00  0.00    -0.083 A  
BRANCH   7  10
HETATM   10  C   UNL     1      -8.835   9.760  66.006  1.00  0.00    -0.147 C  
BRANCH  10  11
HETATM   11  N   UNL     1     -10.262   9.985  66.153  1.00  0.00    -0.238 NA 
HETATM   12  H   UNL     1     -10.904   9.926  65.362  1.00  0.00     0.000 HD 
BRANCH  11  13
HETATM   13  C   UNL     1     -10.706  10.291  67.455  1.00  0.00    -0.281 A  
HETATM   14  C   UNL     1     -11.333  11.503  67.697  1.00  0.00    -0.358 A  
HETATM   15  C   UNL     1     -11.770  11.695  68.986  1.00  0.00    -0.324 A  
HETATM   16  N   UNL     1     -10.557   9.363  68.433  1.00  0.00    -0.219 NA 
HETATM   17  C   UNL     1     -11.031   9.625  69.667  1.00  0.00    -0.229 A  
HETATM   18  N   UNL     1     -11.617  10.789  69.977  1.00  0.00    -0.305 NA 
BRANCH  14  19
HETATM   19  C   UNL     1     -11.539  12.591  66.715  1.00  0.00    -0.382 C  
HETATM   20  O   UNL     1     -12.331  12.429  65.794  1.00  0.00    -0.644 OA 
HETATM   21  N   UNL     1     -10.846  13.762  66.908  1.00  0.00    -0.283 N  
HETATM   22  H   UNL     1     -10.245  13.850  67.728  1.00  0.00     0.000 HD 
BRANCH  21  23
HETATM   23  C   UNL     1     -10.938  14.882  65.983  1.00  0.00    -0.334 C  
BRANCH  23  24
HETATM   24  C   UNL     1     -10.703  16.245  66.609  1.00  0.00    -0.197 A  
HETATM   25  N   UNL     1     -10.651  17.302  65.769  1.00  0.00    -0.464 NA 
HETATM   26  C   UNL     1     -10.486  18.516  66.328  1.00  0.00    -0.406 A  
HETATM   27  N   UNL     1     -10.573  16.338  67.952  1.00  0.00    -0.309 NA 
HETATM   28  C   UNL     1     -10.421  17.580  68.454  1.00  0.00    -0.372 A  
HETATM   29  C   UNL     1     -10.369  18.716  67.681  1.00  0.00    -0.455 A  
ENDBRANCH  23  24
ENDBRANCH  21  23
ENDBRANCH  14  19
BRANCH  17  30
HETATM   30  N   UNL     1     -10.910   8.681  70.649  1.00  0.00    -0.223 NA 
HETATM   31  C   UNL     1      -9.652   7.035  71.804  1.00  0.00    -0.161 C  
HETATM   32  C   UNL     1     -11.132   8.964  72.049  1.00  0.00    -0.351 C  
HETATM   33  C   UNL     1     -10.230   7.406  70.428  1.00  0.00    -0.198 C  
HETATM   34  C   UNL     1     -10.073   8.137  72.770  1.00  0.00    -0.367 C  
BRANCH  33  35
HETATM   35  C   UNL     1     -11.243   6.353  69.933  1.00  0.00    -0.420 C  
HETATM   36  O   UNL     1     -11.539   6.524  68.544  1.00  0.00    -0.539 OA 
HETATM   37  H   UNL     1     -12.163   5.875  68.239  1.00  0.00     0.000 HD 
ENDBRANCH  33  35
ENDBRANCH  17  30
ENDBRANCH  11  13
ENDBRANCH  10  11
ENDBRANCH   7  10
ENDBRANCH   2   3
TORSDOF 9
ENDMDL
MODEL       72
REMARK 921   NORMALIZED FREE ENERGY PREDICTED BY IDOCK:   -6.08 KCAL/MOL
REMARK 922        TOTAL FREE ENERGY PREDICTED BY IDOCK:  -10.81 KCAL/MOL
REMARK 923 INTER-LIGAND FREE ENERGY PREDICTED BY IDOCK:   -9.76 KCAL/MOL
REMARK 924 INTRA-LIGAND FREE ENERGY PREDICTED BY IDOCK:   -1.05 KCAL/MOL
REMARK 927      BINDING AFFINITY PREDICTED BY RF-SCORE:    0.00 PKD
ROOT
HETATM    1  C   UNL     1     -14.310   8.824  72.278  1.00  0.00    -0.380 C  
HETATM    2  O   UNL     1     -12.894   8.760  72.364  1.00  0.00    -0.385 OA 
ENDROOT
BRANCH   2   3
HETATM    3  C   UNL     1     -12.181   9.322  71.337  1.00  0.00    -0.349 A  
HETATM    4  C   UNL     1     -12.331  10.703  71.133  1.00  0.00    -0.400 A  
HETATM    5 CL   UNL     1     -13.450  11.635  72.068  1.00  0.00    -0.447 Cl 
HETATM    6  C   UNL     1     -11.588  11.369  70.152  1.00  0.00    -0.368 A  
HETATM    7  C   UNL     1     -10.667  10.669  69.363  1.00  0.00    -0.281 A  
HETATM    8  C   UNL     1     -11.282   8.620  70.530  1.00  0.00    -0.266 A  
HETATM    9  C   UNL     1     -10.539   9.286  69.547  1.00  0.00    -0.236 A  
BRANCH   7  10
HETATM   10  C   UNL     1      -9.862  11.383  68.300  1.00  0.00    -0.200 C  
BRANCH  10  11
HETATM   11  N   UNL     1     -10.623  11.340  67.064  1.00  0.00    -0.234 NA 
HETATM   12  H   UNL     1     -11.508  11.836  66.954  1.00  0.00     0.000 HD 
BRANCH  11  13
HETATM   13  C   UNL     1     -10.065  10.569  66.025  1.00  0.00    -0.256 A  
HETATM   14  C   UNL     1      -9.996  11.094  64.744  1.00  0.00    -0.339 A  
HETATM   15  C   UNL     1      -9.396  10.287  63.806  1.00  0.00    -0.295 A  
HETATM   16  N   UNL     1      -9.555   9.346  66.317  1.00  0.00    -0.213 NA 
HETATM   17  C   UNL     1      -8.966   8.627  65.341  1.00  0.00    -0.130 A  
HETATM   18  N   UNL     1      -8.896   9.061  64.075  1.00  0.00    -0.098 NA 
BRANCH  14  19
HETATM   19  C   UNL     1     -10.528  12.404  64.308  1.00  0.00    -0.363 C  
HETATM   20  O   UNL     1     -11.293  12.454  63.351  1.00  0.00    -0.452 OA 
HETATM   21  N   UNL     1     -10.159  13.514  65.029  1.00  0.00    -0.551 N  
HETATM   22  H   UNL     1      -9.564  13.394  65.849  1.00  0.00     0.000 HD 
BRANCH  21  23
HETATM   23  C   UNL     1     -10.588  14.856  64.664  1.00  0.00    -0.179 C  
BRANCH  23  24
HETATM   24  C   UNL     1     -10.580  15.858  65.805  1.00  0.00    -0.355 A  
HETATM   25  N   UNL     1     -10.594  15.356  67.059  1.00  0.00    -0.303 NA 
HETATM   26  C   UNL     1     -10.542  16.244  68.070  1.00  0.00    -0.308 A  
HETATM   27  N   UNL     1     -10.548  17.180  65.519  1.00  0.00    -0.579 NA 
HETATM   28  C   UNL     1     -10.488  18.020  66.572  1.00  0.00    -0.334 A  
HETATM   29  C   UNL     1     -10.483  17.602  67.883  1.00  0.00    -0.392 A  
ENDBRANCH  23  24
ENDBRANCH  21  23
ENDBRANCH  14  19
BRANCH  17  30
HETATM   30  N   UNL     1      -8.424   7.408  65.637  1.00  0.00    -0.139 NA 
HETATM   31  C   UNL     1      -7.847   5.188  65.028  1.00  0.00    -0.092 C  
HETATM   32  C   UNL     1      -7.067   7.238  66.106  1.00  0.00    -0.070 C  
HETATM   33  C   UNL     1      -9.033   6.153  65.196  1.00  0.00     0.190 C  
HETATM   34  C   UNL     1      -6.593   5.959  65.425  1.00  0.00    -0.043 C  
BRANCH  33  35
HETATM   35  C   UNL     1     -10.028   5.652  66.261  1.00  0.00    -0.115 C  
HETATM   36  O   UNL     1     -11.254   5.215  65.669  1.00  0.00    -0.802 OA 
HETATM   37  H   UNL     1     -11.868   4.907  66.325  1.00  0.00     0.000 HD 
ENDBRANCH  33  35
ENDBRANCH  17  30
ENDBRANCH  11  13
ENDBRANCH  10  11
ENDBRANCH   7  10
ENDBRANCH   2   3
TORSDOF 9
ENDMDL
MODEL       73
REMARK 921   NORMALIZED FREE ENERGY PREDICTED BY IDOCK:   -6.08 KCAL/MOL
REMARK 922        TOTAL FREE ENERGY PREDICTED BY IDOCK:  -10.80 KCAL/MOL
REMARK 923 INTER-LIGAND FREE ENERGY PREDICTED BY IDOCK:   -8.92 KCAL/MOL
REMARK 924 INTRA-LIGAND FREE ENERGY PREDICTED BY IDOCK:   -1.88 KCAL/MOL
REMARK 927      BINDING AFFINITY PREDICTED BY RF-SCORE:    0.00 PKD
ROOT
HETATM    1  C   UNL     1      -7.606  18.125  68.360  1.00  0.00    -0.283 C  
HETATM    2  O   UNL     1      -8.236  17.187  67.498  1.00  0.00    -0.183 OA 
ENDROOT
BRANCH   2   3
HETATM    3  C   UNL     1      -9.011  16.223  68.086  1.00  0.00    -0.187 A  
HETATM    4  C   UNL     1     -10.363  16.529  68.302  1.00  0.00    -0.293 A  
HETATM    5 CL   UNL     1     -11.000  18.097  67.938  1.00  0.00    -0.219 Cl 
HETATM    6  C   UNL     1     -11.241  15.577  68.833  1.00  0.00    -0.306 A  
HETATM    7  C   UNL     1     -10.785  14.290  69.147  1.00  0.00    -0.239 A  
HETATM    8  C   UNL     1      -8.551  14.947  68.428  1.00  0.00    -0.159 A  
HETATM    9  C   UNL     1      -9.428  13.994  68.960  1.00  0.00     0.108 A  
BRANCH   7  10
HETATM   10  C   UNL     1     -11.727  13.258  69.723  1.00  0.00    -0.284 C  
BRANCH  10  11
HETATM   11  N   UNL     1     -12.026  12.296  68.677  1.00  0.00    -0.286 NA 
HETATM   12  H   UNL     1     -12.591  12.538  67.863  1.00  0.00     0.000 HD 
BRANCH  11  13
HETATM   13  C   UNL     1     -11.487  11.007  68.855  1.00  0.00    -0.296 A  
HETATM   14  C   UNL     1     -10.635  10.483  67.896  1.00  0.00    -0.271 A  
HETATM   15  C   UNL     1     -10.123   9.237  68.176  1.00  0.00    -0.187 A  
HETATM   16  N   UNL     1     -11.771  10.329  69.994  1.00  0.00    -0.262 NA 
HETATM   17  C   UNL     1     -11.213   9.119  70.199  1.00  0.00    -0.187 A  
HETATM   18  N   UNL     1     -10.408   8.540  69.298  1.00  0.00    -0.219 NA 
BRANCH  14  19
HETATM   19  C   UNL     1     -10.264  11.123  66.613  1.00  0.00    -0.232 C  
HETATM   20  O   UNL     1      -9.090  11.401  66.397  1.00  0.00    -0.182 OA 
HETATM   21  N   UNL     1     -11.266  11.346  65.699  1.00  0.00    -0.148 N  
HETATM   22  H   UNL     1     -12.213  11.038  65.922  1.00  0.00     0.000 HD 
BRANCH  21  23
HETATM   23  C   UNL     1     -11.023  12.007  64.426  1.00  0.00    -0.333 C  
BRANCH  23  24
HETATM   24  C   UNL     1     -11.200  13.515  64.448  1.00  0.00    -0.379 A  
HETATM   25  N   UNL     1     -10.203  14.239  65.002  1.00  0.00    -0.406 NA 
HETATM   26  C   UNL     1     -10.340  15.578  64.982  1.00  0.00    -0.293 A  
HETATM   27  N   UNL     1     -12.320  14.054  63.913  1.00  0.00    -0.707 NA 
HETATM   28  C   UNL     1     -12.396  15.400  63.913  1.00  0.00     0.271 A  
HETATM   29  C   UNL     1     -11.426  16.220  64.440  1.00  0.00    -0.114 A  
ENDBRANCH  23  24
ENDBRANCH  21  23
ENDBRANCH  14  19
BRANCH  17  30
HETATM   30  N   UNL     1     -11.472   8.445  71.360  1.00  0.00    -0.266 NA 
HETATM   31  C   UNL     1     -12.165   6.493  72.517  1.00  0.00     0.022 C  
HETATM   32  C   UNL     1     -10.495   8.275  72.412  1.00  0.00    -0.334 C  
HETATM   33  C   UNL     1     -12.625   7.557  71.507  1.00  0.00    -0.355 C  
HETATM   34  C   UNL     1     -10.743   6.862  72.928  1.00  0.00    -0.308 C  
BRANCH  33  35
HETATM   35  C   UNL     1     -13.836   8.355  72.032  1.00  0.00    -0.388 C  
HETATM   36  O   UNL     1     -13.562   8.944  73.306  1.00  0.00    -1.012 OA 
HETATM   37  H   UNL     1     -14.308   9.436  73.630  1.00  0.00     0.000 HD 
ENDBRANCH  33  35
ENDBRANCH  17  30
ENDBRANCH  11  13
ENDBRANCH  10  11
ENDBRANCH   7  10
ENDBRANCH   2   3
TORSDOF 9
ENDMDL
MODEL       74
REMARK 921   NORMALIZED FREE ENERGY PREDICTED BY IDOCK:   -6.06 KCAL/MOL
REMARK 922        TOTAL FREE ENERGY PREDICTED BY IDOCK:  -10.78 KCAL/MOL
REMARK 923 INTER-LIGAND FREE ENERGY PREDICTED BY IDOCK:   -9.42 KCAL/MOL
REMARK 924 INTRA-LIGAND FREE ENERGY PREDICTED BY IDOCK:   -1.36 KCAL/MOL
REMARK 927      BINDING AFFINITY PREDICTED BY RF-SCORE:    0.00 PKD
ROOT
HETATM    1  C   UNL     1     -13.613  13.499  72.349  1.00  0.00    -0.608 C  
HETATM    2  O   UNL     1     -13.794  12.090  72.332  1.00  0.00    -0.138 OA 
ENDROOT
BRANCH   2   3
HETATM    3  C   UNL     1     -12.921  11.359  71.570  1.00  0.00    -0.399 A  
HETATM    4  C   UNL     1     -12.948   9.964  71.724  1.00  0.00    -0.449 A  
HETATM    5 CL   UNL     1     -13.964   9.208  72.904  1.00  0.00    -0.252 Cl 
HETATM    6  C   UNL     1     -12.139   9.138  70.936  1.00  0.00    -0.270 A  
HETATM    7  C   UNL     1     -11.296   9.691  69.963  1.00  0.00    -0.239 A  
HETATM    8  C   UNL     1     -12.058  11.911  70.620  1.00  0.00    -0.389 A  
HETATM    9  C   UNL     1     -11.248  11.085  69.830  1.00  0.00    -0.327 A  
BRANCH   7  10
HETATM   10  C   UNL     1     -10.418   8.804  69.109  1.00  0.00    -0.217 C  
BRANCH  10  11
HETATM   11  N   UNL     1      -9.337   9.621  68.585  1.00  0.00    -0.141 NA 
HETATM   12  H   UNL     1      -8.540   9.898  69.159  1.00  0.00     0.000 HD 
BRANCH  11  13
HETATM   13  C   UNL     1      -9.458  10.008  67.236  1.00  0.00    -0.154 A  
HETATM   14  C   UNL     1      -9.055   9.138  66.236  1.00  0.00    -0.222 A  
HETATM   15  C   UNL     1      -9.251   9.583  64.950  1.00  0.00    -0.223 A  
HETATM   16  N   UNL     1     -10.021  11.207  66.946  1.00  0.00    -0.193 NA 
HETATM   17  C   UNL     1     -10.194  11.560  65.656  1.00  0.00    -0.248 A  
HETATM   18  N   UNL     1      -9.796  10.781  64.642  1.00  0.00    -0.279 NA 
BRANCH  14  19
HETATM   19  C   UNL     1      -8.419   7.816  66.433  1.00  0.00    -0.136 C  
HETATM   20  O   UNL     1      -7.259   7.759  66.824  1.00  0.00    -0.084 OA 
HETATM   21  N   UNL     1      -9.184   6.699  66.196  1.00  0.00    -0.291 N  
HETATM   22  H   UNL     1     -10.161   6.819  65.927  1.00  0.00     0.000 HD 
BRANCH  21  23
HETATM   23  C   UNL     1      -8.649   5.351  66.316  1.00  0.00    -0.122 C  
BRANCH  23  24
HETATM   24  C   UNL     1      -8.907   4.681  67.654  1.00  0.00    -0.106 A  
HETATM   25  N   UNL     1      -9.840   5.248  68.451  1.00  0.00    -0.145 NA 
HETATM   26  C   UNL     1     -10.100   4.629  69.618  1.00  0.00    -0.162 A  
HETATM   27  N   UNL     1      -8.214   3.565  67.976  1.00  0.00    -0.082 NA 
HETATM   28  C   UNL     1      -8.525   2.985  69.152  1.00  0.00    -0.063 A  
HETATM   29  C   UNL     1      -9.468   3.479  70.022  1.00  0.00    -0.253 A  
ENDBRANCH  23  24
ENDBRANCH  21  23
ENDBRANCH  14  19
BRANCH  17  30
HETATM   30  N   UNL     1     -10.789  12.754  65.358  1.00  0.00    -0.281 NA 
HETATM   31  C   UNL     1     -12.626  14.249  65.489  1.00  0.00    -0.429 C  
HETATM   32  C   UNL     1     -10.199  14.034  65.683  1.00  0.00    -0.334 C  
HETATM   33  C   UNL     1     -12.202  12.856  64.997  1.00  0.00    -0.464 C  
HETATM   34  C   UNL     1     -11.386  14.899  66.094  1.00  0.00    -0.307 C  
BRANCH  33  35
HETATM   35  C   UNL     1     -12.361  12.718  63.469  1.00  0.00    -0.467 C  
HETATM   36  O   UNL     1     -12.262  11.353  63.052  1.00  0.00    -0.946 OA 
HETATM   37  H   UNL     1     -12.360  11.268  62.112  1.00  0.00     0.000 HD 
ENDBRANCH  33  35
ENDBRANCH  17  30
ENDBRANCH  11  13
ENDBRANCH  10  11
ENDBRANCH   7  10
ENDBRANCH   2   3
TORSDOF 9
ENDMDL
MODEL       75
REMARK 921   NORMALIZED FREE ENERGY PREDICTED BY IDOCK:   -6.05 KCAL/MOL
REMARK 922        TOTAL FREE ENERGY PREDICTED BY IDOCK:  -10.77 KCAL/MOL
REMARK 923 INTER-LIGAND FREE ENERGY PREDICTED BY IDOCK:   -9.33 KCAL/MOL
REMARK 924 INTRA-LIGAND FREE ENERGY PREDICTED BY IDOCK:   -1.44 KCAL/MOL
REMARK 927      BINDING AFFINITY PREDICTED BY RF-SCORE:    0.00 PKD
ROOT
HETATM    1  C   UNL     1     -12.154  15.799  73.332  1.00  0.00    -0.487 C  
HETATM    2  O   UNL     1     -12.577  16.130  72.016  1.00  0.00    -0.446 OA 
ENDROOT
BRANCH   2   3
HETATM    3  C   UNL     1     -12.306  15.220  71.028  1.00  0.00    -0.367 A  
HETATM    4  C   UNL     1     -12.802  13.918  71.200  1.00  0.00    -0.351 A  
HETATM    5 CL   UNL     1     -13.627  13.454  72.649  1.00  0.00    -0.635 Cl 
HETATM    6  C   UNL     1     -12.632  12.946  70.208  1.00  0.00    -0.084 A  
HETATM    7  C   UNL     1     -11.973  13.262  69.012  1.00  0.00    -0.336 A  
HETATM    8  C   UNL     1     -11.624  15.525  69.847  1.00  0.00    -0.348 A  
HETATM    9  C   UNL     1     -11.452  14.553  68.853  1.00  0.00    -0.327 A  
BRANCH   7  10
HETATM   10  C   UNL     1     -11.783  12.216  67.937  1.00  0.00    -0.336 C  
BRANCH  10  11
HETATM   11  N   UNL     1     -10.381  12.216  67.560  1.00  0.00    -0.204 NA 
HETATM   12  H   UNL     1     -10.011  12.848  66.849  1.00  0.00     0.000 HD 
BRANCH  11  13
HETATM   13  C   UNL     1      -9.563  11.289  68.236  1.00  0.00    -0.193 A  
HETATM   14  C   UNL     1      -8.203  11.529  68.345  1.00  0.00    -0.152 A  
HETATM   15  C   UNL     1      -7.492  10.593  69.058  1.00  0.00    -0.117 A  
HETATM   16  N   UNL     1     -10.139  10.207  68.816  1.00  0.00    -0.178 NA 
HETATM   17  C   UNL     1      -9.372   9.347  69.514  1.00  0.00    -0.180 A  
HETATM   18  N   UNL     1      -8.047   9.501  69.630  1.00  0.00    -0.113 NA 
BRANCH  14  19
HETATM   19  C   UNL     1      -7.465  12.664  67.745  1.00  0.00    -0.131 C  
HETATM   20  O   UNL     1      -6.395  12.457  67.185  1.00  0.00    -0.158 OA 
HETATM   21  N   UNL     1      -8.042  13.909  67.818  1.00  0.00    -0.157 N  
HETATM   22  H   UNL     1      -8.963  14.001  68.249  1.00  0.00     0.000 HD 
BRANCH  21  23
HETATM   23  C   UNL     1      -7.387  15.101  67.300  1.00  0.00    -0.181 C  
BRANCH  23  24
HETATM   24  C   UNL     1      -8.316  16.273  67.037  1.00  0.00    -0.205 A  
HETATM   25  N   UNL     1      -8.180  17.352  67.839  1.00  0.00    -0.220 NA 
HETATM   26  C   UNL     1      -8.974  18.408  67.577  1.00  0.00    -0.264 A  
HETATM   27  N   UNL     1      -9.210  16.189  66.025  1.00  0.00    -0.346 NA 
HETATM   28  C   UNL     1      -9.970  17.281  65.805  1.00  0.00    -0.084 A  
HETATM   29  C   UNL     1      -9.893  18.430  66.558  1.00  0.00    -0.368 A  
ENDBRANCH  23  24
ENDBRANCH  21  23
ENDBRANCH  14  19
BRANCH  17  30
HETATM   30  N   UNL     1      -9.953   8.271  70.126  1.00  0.00    -0.185 NA 
HETATM   31  C   UNL     1     -11.851   6.935  70.617  1.00  0.00    -0.418 C  
HETATM   32  C   UNL     1      -9.508   6.910  69.922  1.00  0.00    -0.156 C  
HETATM   33  C   UNL     1     -11.265   8.349  70.766  1.00  0.00    -0.263 C  
HETATM   34  C   UNL     1     -10.796   6.094  69.907  1.00  0.00    -0.420 C  
BRANCH  33  35
HETATM   35  C   UNL     1     -11.101   8.744  72.248  1.00  0.00    -0.270 C  
HETATM   36  O   UNL     1     -11.833   7.867  73.108  1.00  0.00    -0.651 OA 
HETATM   37  H   UNL     1     -11.733   8.110  74.021  1.00  0.00     0.000 HD 
ENDBRANCH  33  35
ENDBRANCH  17  30
ENDBRANCH  11  13
ENDBRANCH  10  11
ENDBRANCH   7  10
ENDBRANCH   2   3
TORSDOF 9
ENDMDL
MODEL       76
REMARK 921   NORMALIZED FREE ENERGY PREDICTED BY IDOCK:   -6.05 KCAL/MOL
REMARK 922        TOTAL FREE ENERGY PREDICTED BY IDOCK:  -10.76 KCAL/MOL
REMARK 923 INTER-LIGAND FREE ENERGY PREDICTED BY IDOCK:   -9.08 KCAL/MOL
REMARK 924 INTRA-LIGAND FREE ENERGY PREDICTED BY IDOCK:   -1.68 KCAL/MOL
REMARK 927      BINDING AFFINITY PREDICTED BY RF-SCORE:    0.00 PKD
ROOT
HETATM    1  C   UNL     1     -10.927   4.785  73.782  1.00  0.00    -0.300 C  
HETATM    2  O   UNL     1     -11.864   5.229  72.811  1.00  0.00    -0.251 OA 
ENDROOT
BRANCH   2   3
HETATM    3  C   UNL     1     -11.407   6.098  71.856  1.00  0.00    -0.296 A  
HETATM    4  C   UNL     1     -12.302   7.077  71.397  1.00  0.00    -0.377 A  
HETATM    5 CL   UNL     1     -13.947   7.117  71.937  1.00  0.00    -0.395 Cl 
HETATM    6  C   UNL     1     -11.896   8.048  70.474  1.00  0.00    -0.017 A  
HETATM    7  C   UNL     1     -10.578   8.068  70.000  1.00  0.00    -0.242 A  
HETATM    8  C   UNL     1     -10.100   6.102  71.360  1.00  0.00    -0.230 A  
HETATM    9  C   UNL     1      -9.693   7.072  70.435  1.00  0.00    -0.178 A  
BRANCH   7  10
HETATM   10  C   UNL     1     -10.133   9.112  69.001  1.00  0.00    -0.191 C  
BRANCH  10  11
HETATM   11  N   UNL     1      -9.726   8.422  67.790  1.00  0.00    -0.156 NA 
HETATM   12  H   UNL     1      -9.524   7.422  67.777  1.00  0.00     0.000 HD 
BRANCH  11  13
HETATM   13  C   UNL     1      -9.626   9.220  66.633  1.00  0.00    -0.204 A  
HETATM   14  C   UNL     1      -8.950   8.735  65.524  1.00  0.00    -0.231 A  
HETATM   15  C   UNL     1      -8.942   9.565  64.428  1.00  0.00    -0.212 A  
HETATM   16  N   UNL     1     -10.246  10.426  66.613  1.00  0.00    -0.227 NA 
HETATM   17  C   UNL     1     -10.204  11.170  65.489  1.00  0.00    -0.263 A  
HETATM   18  N   UNL     1      -9.540  10.777  64.394  1.00  0.00    -0.253 NA 
BRANCH  14  19
HETATM   19  C   UNL     1      -8.229   7.446  65.435  1.00  0.00    -0.134 C  
HETATM   20  O   UNL     1      -7.003   7.444  65.402  1.00  0.00    -0.057 OA 
HETATM   21  N   UNL     1      -8.979   6.295  65.430  1.00  0.00    -0.364 N  
HETATM   22  H   UNL     1      -9.993   6.367  65.517  1.00  0.00     0.000 HD 
BRANCH  21  23
HETATM   23  C   UNL     1      -8.378   4.976  65.303  1.00  0.00    -0.135 C  
BRANCH  23  24
HETATM   24  C   UNL     1      -8.683   4.025  66.447  1.00  0.00    -0.116 A  
HETATM   25  N   UNL     1      -9.006   4.583  67.635  1.00  0.00    -0.111 NA 
HETATM   26  C   UNL     1      -9.319   3.741  68.637  1.00  0.00    -0.163 A  
HETATM   27  N   UNL     1      -8.632   2.691  66.226  1.00  0.00    -0.106 NA 
HETATM   28  C   UNL     1      -8.965   1.899  67.264  1.00  0.00    -0.134 A  
HETATM   29  C   UNL     1      -9.320   2.374  68.505  1.00  0.00    -0.252 A  
ENDBRANCH  23  24
ENDBRANCH  21  23
ENDBRANCH  14  19
BRANCH  17  30
HETATM   30  N   UNL     1     -10.852  12.373  65.454  1.00  0.00    -0.277 NA 
HETATM   31  C   UNL     1     -12.805  13.689  65.741  1.00  0.00    -0.390 C  
HETATM   32  C   UNL     1     -10.408  13.533  66.194  1.00  0.00    -0.296 C  
HETATM   33  C   UNL     1     -12.217  12.511  64.947  1.00  0.00    -0.470 C  
HETATM   34  C   UNL     1     -11.700  14.194  66.663  1.00  0.00    -0.422 C  
BRANCH  33  35
HETATM   35  C   UNL     1     -12.185  12.804  63.433  1.00  0.00    -0.504 C  
HETATM   36  O   UNL     1     -12.458  14.182  63.160  1.00  0.00    -1.126 OA 
HETATM   37  H   UNL     1     -12.439  14.363  62.228  1.00  0.00     0.000 HD 
ENDBRANCH  33  35
ENDBRANCH  17  30
ENDBRANCH  11  13
ENDBRANCH  10  11
ENDBRANCH   7  10
ENDBRANCH   2   3
TORSDOF 9
ENDMDL
MODEL       77
REMARK 921   NORMALIZED FREE ENERGY PREDICTED BY IDOCK:   -6.03 KCAL/MOL
REMARK 922        TOTAL FREE ENERGY PREDICTED BY IDOCK:  -10.74 KCAL/MOL
REMARK 923 INTER-LIGAND FREE ENERGY PREDICTED BY IDOCK:   -8.94 KCAL/MOL
REMARK 924 INTRA-LIGAND FREE ENERGY PREDICTED BY IDOCK:   -1.80 KCAL/MOL
REMARK 927      BINDING AFFINITY PREDICTED BY RF-SCORE:    0.00 PKD
ROOT
HETATM    1  C   UNL     1     -12.407  15.363  74.037  1.00  0.00    -0.659 C  
HETATM    2  O   UNL     1     -13.461  14.895  73.208  1.00  0.00    -0.536 OA 
ENDROOT
BRANCH   2   3
HETATM    3  C   UNL     1     -13.137  13.967  72.253  1.00  0.00    -0.423 A  
HETATM    4  C   UNL     1     -12.489  14.433  71.098  1.00  0.00    -0.359 A  
HETATM    5 CL   UNL     1     -12.208  16.122  70.844  1.00  0.00    -0.252 Cl 
HETATM    6  C   UNL     1     -12.061  13.544  70.106  1.00  0.00    -0.425 A  
HETATM    7  C   UNL     1     -12.259  12.166  70.255  1.00  0.00    -0.344 A  
HETATM    8  C   UNL     1     -13.360  12.594  72.387  1.00  0.00    -0.424 A  
HETATM    9  C   UNL     1     -12.933  11.704  71.393  1.00  0.00    -0.426 A  
BRANCH   7  10
HETATM   10  C   UNL     1     -11.801  11.200  69.185  1.00  0.00    -0.350 C  
BRANCH  10  11
HETATM   11  N   UNL     1     -10.413  11.502  68.880  1.00  0.00    -0.275 NA 
HETATM   12  H   UNL     1     -10.149  12.255  68.245  1.00  0.00     0.000 HD 
BRANCH  11  13
HETATM   13  C   UNL     1      -9.454  10.689  69.516  1.00  0.00    -0.011 A  
HETATM   14  C   UNL     1      -8.106  10.917  69.290  1.00  0.00    -0.062 A  
HETATM   15  C   UNL     1      -7.244  10.103  69.986  1.00  0.00    -0.161 A  
HETATM   16  N   UNL     1      -9.875   9.734  70.383  1.00  0.00    -0.252 NA 
HETATM   17  C   UNL     1      -8.961   8.991  71.039  1.00  0.00    -0.241 A  
HETATM   18  N   UNL     1      -7.644   9.137  70.842  1.00  0.00    -0.148 NA 
BRANCH  14  19
HETATM   19  C   UNL     1      -7.533  11.917  68.361  1.00  0.00    -0.102 C  
HETATM   20  O   UNL     1      -7.014  11.540  67.316  1.00  0.00    -0.104 OA 
HETATM   21  N   UNL     1      -7.644  13.243  68.705  1.00  0.00    -0.199 N  
HETATM   22  H   UNL     1      -8.139  13.490  69.562  1.00  0.00     0.000 HD 
BRANCH  21  23
HETATM   23  C   UNL     1      -7.079  14.307  67.888  1.00  0.00    -0.160 C  
BRANCH  23  24
HETATM   24  C   UNL     1      -7.959  15.538  67.752  1.00  0.00    -0.143 A  
HETATM   25  N   UNL     1      -8.874  15.746  68.724  1.00  0.00    -0.192 NA 
HETATM   26  C   UNL     1      -9.623  16.860  68.626  1.00  0.00    -0.265 A  
HETATM   27  N   UNL     1      -7.781  16.359  66.692  1.00  0.00    -0.262 NA 
HETATM   28  C   UNL     1      -8.553  17.464  66.653  1.00  0.00    -0.255 A  
HETATM   29  C   UNL     1      -9.501  17.767  67.603  1.00  0.00    -0.255 A  
ENDBRANCH  23  24
ENDBRANCH  21  23
ENDBRANCH  14  19
BRANCH  17  30
HETATM   30  N   UNL     1      -9.379   8.048  71.936  1.00  0.00    -0.153 NA 
HETATM   31  C   UNL     1     -10.067   5.839  72.457  1.00  0.00    -0.207 C  
HETATM   32  C   UNL     1      -8.633   7.701  73.124  1.00  0.00    -0.165 C  
HETATM   33  C   UNL     1     -10.425   7.077  71.619  1.00  0.00    -0.199 C  
HETATM   34  C   UNL     1      -8.816   6.193  73.255  1.00  0.00    -0.126 C  
BRANCH  33  35
HETATM   35  C   UNL     1     -11.804   7.648  72.007  1.00  0.00    -0.301 C  
HETATM   36  O   UNL     1     -12.530   8.091  70.857  1.00  0.00    -0.499 OA 
HETATM   37  H   UNL     1     -13.379   8.443  71.096  1.00  0.00     0.000 HD 
ENDBRANCH  33  35
ENDBRANCH  17  30
ENDBRANCH  11  13
ENDBRANCH  10  11
ENDBRANCH   7  10
ENDBRANCH   2   3
TORSDOF 9
ENDMDL
MODEL       78
REMARK 921   NORMALIZED FREE ENERGY PREDICTED BY IDOCK:   -6.03 KCAL/MOL
REMARK 922        TOTAL FREE ENERGY PREDICTED BY IDOCK:  -10.73 KCAL/MOL
REMARK 923 INTER-LIGAND FREE ENERGY PREDICTED BY IDOCK:   -9.14 KCAL/MOL
REMARK 924 INTRA-LIGAND FREE ENERGY PREDICTED BY IDOCK:   -1.60 KCAL/MOL
REMARK 927      BINDING AFFINITY PREDICTED BY RF-SCORE:    0.00 PKD
ROOT
HETATM    1  C   UNL     1      -5.145  13.288  67.573  1.00  0.00     0.064 C  
HETATM    2  O   UNL     1      -5.507  12.173  66.771  1.00  0.00    -0.309 OA 
ENDROOT
BRANCH   2   3
HETATM    3  C   UNL     1      -6.552  11.403  67.209  1.00  0.00    -0.104 A  
HETATM    4  C   UNL     1      -7.040  10.422  66.331  1.00  0.00    -0.118 A  
HETATM    5 CL   UNL     1      -6.417  10.264  64.724  1.00  0.00    -0.125 Cl 
HETATM    6  C   UNL     1      -8.059   9.548  66.725  1.00  0.00    -0.109 A  
HETATM    7  C   UNL     1      -8.603   9.627  68.013  1.00  0.00    -0.119 A  
HETATM    8  C   UNL     1      -7.117  11.500  68.485  1.00  0.00    -0.087 A  
HETATM    9  C   UNL     1      -8.137  10.625  68.878  1.00  0.00    -0.139 A  
BRANCH   7  10
HETATM   10  C   UNL     1      -9.706   8.686  68.444  1.00  0.00    -0.162 C  
BRANCH  10  11
HETATM   11  N   UNL     1     -10.948   9.164  67.863  1.00  0.00    -0.498 NA 
HETATM   12  H   UNL     1     -11.469   8.620  67.175  1.00  0.00     0.000 HD 
BRANCH  11  13
HETATM   13  C   UNL     1     -11.390  10.425  68.310  1.00  0.00    -0.224 A  
HETATM   14  C   UNL     1     -11.673  10.615  69.653  1.00  0.00    -0.368 A  
HETATM   15  C   UNL     1     -12.055  11.889  70.002  1.00  0.00    -0.291 A  
HETATM   16  N   UNL     1     -11.472  11.444  67.418  1.00  0.00    -0.499 NA 
HETATM   17  C   UNL     1     -11.838  12.668  67.848  1.00  0.00    -0.332 A  
HETATM   18  N   UNL     1     -12.158  12.912  69.126  1.00  0.00    -0.231 NA 
BRANCH  14  19
HETATM   19  C   UNL     1     -11.631   9.579  70.710  1.00  0.00    -0.308 C  
HETATM   20  O   UNL     1     -10.820   9.684  71.623  1.00  0.00    -0.290 OA 
HETATM   21  N   UNL     1     -12.540   8.551  70.632  1.00  0.00    -0.392 N  
HETATM   22  H   UNL     1     -13.225   8.556  69.875  1.00  0.00     0.000 HD 
BRANCH  21  23
HETATM   23  C   UNL     1     -12.561   7.457  71.591  1.00  0.00    -0.358 C  
BRANCH  23  24
HETATM   24  C   UNL     1     -11.521   6.378  71.346  1.00  0.00    -0.308 A  
HETATM   25  N   UNL     1     -11.237   6.083  70.059  1.00  0.00    -0.382 NA 
HETATM   26  C   UNL     1     -10.283   5.158  69.842  1.00  0.00    -0.291 A  
HETATM   27  N   UNL     1     -10.928   5.783  72.407  1.00  0.00    -0.245 NA 
HETATM   28  C   UNL     1      -9.975   4.872  72.128  1.00  0.00    -0.179 A  
HETATM   29  C   UNL     1      -9.609   4.516  70.851  1.00  0.00    -0.250 A  
ENDBRANCH  23  24
ENDBRANCH  21  23
ENDBRANCH  14  19
BRANCH  17  30
HETATM   30  N   UNL     1     -11.893  13.705  66.959  1.00  0.00    -0.388 NA 
HETATM   31  C   UNL     1     -10.853  15.176  65.416  1.00  0.00    -0.393 C  
HETATM   32  C   UNL     1     -12.773  13.717  65.812  1.00  0.00    -0.416 C  
HETATM   33  C   UNL     1     -10.853  14.731  66.887  1.00  0.00    -0.316 C  
HETATM   34  C   UNL     1     -11.947  14.378  64.714  1.00  0.00    -0.455 C  
BRANCH  33  35
HETATM   35  C   UNL     1     -11.203  15.896  67.835  1.00  0.00    -0.297 C  
HETATM   36  O   UNL     1     -10.757  15.638  69.169  1.00  0.00    -0.217 OA 
HETATM   37  H   UNL     1     -10.971  16.356  69.753  1.00  0.00     0.000 HD 
ENDBRANCH  33  35
ENDBRANCH  17  30
ENDBRANCH  11  13
ENDBRANCH  10  11
ENDBRANCH   7  10
ENDBRANCH   2   3
TORSDOF 9
ENDMDL
MODEL       79
REMARK 921   NORMALIZED FREE ENERGY PREDICTED BY IDOCK:   -6.03 KCAL/MOL
REMARK 922        TOTAL FREE ENERGY PREDICTED BY IDOCK:  -10.73 KCAL/MOL
REMARK 923 INTER-LIGAND FREE ENERGY PREDICTED BY IDOCK:   -8.94 KCAL/MOL
REMARK 924 INTRA-LIGAND FREE ENERGY PREDICTED BY IDOCK:   -1.79 KCAL/MOL
REMARK 927      BINDING AFFINITY PREDICTED BY RF-SCORE:    0.00 PKD
ROOT
HETATM    1  C   UNL     1      -9.225  15.588  67.164  1.00  0.00    -0.214 C  
HETATM    2  O   UNL     1     -10.328  14.843  66.666  1.00  0.00    -0.273 OA 
ENDROOT
BRANCH   2   3
HETATM    3  C   UNL     1     -10.341  13.498  66.927  1.00  0.00    -0.265 A  
HETATM    4  C   UNL     1     -11.381  12.745  66.362  1.00  0.00    -0.323 A  
HETATM    5 CL   UNL     1     -12.654  13.499  65.463  1.00  0.00    -0.533 Cl 
HETATM    6  C   UNL     1     -11.431  11.355  66.520  1.00  0.00    -0.093 A  
HETATM    7  C   UNL     1     -10.429  10.687  67.236  1.00  0.00    -0.293 A  
HETATM    8  C   UNL     1      -9.358  12.833  67.666  1.00  0.00    -0.191 A  
HETATM    9  C   UNL     1      -9.407  11.443  67.825  1.00  0.00    -0.162 A  
BRANCH   7  10
HETATM   10  C   UNL     1     -10.478   9.186  67.413  1.00  0.00    -0.271 C  
BRANCH  10  11
HETATM   11  N   UNL     1     -11.085   8.910  68.703  1.00  0.00    -0.433 NA 
HETATM   12  H   UNL     1     -11.705   9.577  69.164  1.00  0.00     0.000 HD 
BRANCH  11  13
HETATM   13  C   UNL     1     -10.766   7.665  69.278  1.00  0.00    -0.161 A  
HETATM   14  C   UNL     1     -11.365   7.287  70.469  1.00  0.00    -0.308 A  
HETATM   15  C   UNL     1     -11.026   6.038  70.932  1.00  0.00    -0.289 A  
HETATM   16  N   UNL     1      -9.917   6.836  68.620  1.00  0.00    -0.142 NA 
HETATM   17  C   UNL     1      -9.652   5.619  69.135  1.00  0.00    -0.135 A  
HETATM   18  N   UNL     1     -10.170   5.205  70.298  1.00  0.00    -0.265 NA 
BRANCH  14  19
HETATM   19  C   UNL     1     -12.293   8.109  71.279  1.00  0.00    -0.265 C  
HETATM   20  O   UNL     1     -13.126   7.555  71.986  1.00  0.00    -0.259 OA 
HETATM   21  N   UNL     1     -12.148   9.475  71.224  1.00  0.00    -0.336 N  
HETATM   22  H   UNL     1     -11.396   9.868  70.658  1.00  0.00     0.000 HD 
BRANCH  21  23
HETATM   23  C   UNL     1     -13.031  10.380  71.944  1.00  0.00    -0.450 C  
BRANCH  23  24
HETATM   24  C   UNL     1     -12.911  11.839  71.542  1.00  0.00    -0.341 A  
HETATM   25  N   UNL     1     -13.540  12.742  72.325  1.00  0.00    -0.542 NA 
HETATM   26  C   UNL     1     -13.397  14.039  71.994  1.00  0.00    -0.427 A  
HETATM   27  N   UNL     1     -12.185  12.162  70.447  1.00  0.00    -0.330 NA 
HETATM   28  C   UNL     1     -12.070  13.476  70.171  1.00  0.00    -0.354 A  
HETATM   29  C   UNL     1     -12.661  14.469  70.917  1.00  0.00    -0.411 A  
ENDBRANCH  23  24
ENDBRANCH  21  23
ENDBRANCH  14  19
BRANCH  17  30
HETATM   30  N   UNL     1      -8.821   4.769  68.460  1.00  0.00    -0.098 NA 
HETATM   31  C   UNL     1      -6.733   4.274  67.447  1.00  0.00    -0.047 C  
HETATM   32  C   UNL     1      -8.484   3.447  68.937  1.00  0.00    -0.074 C  
HETATM   33  C   UNL     1      -7.939   5.226  67.386  1.00  0.00    -0.100 C  
HETATM   34  C   UNL     1      -7.015   3.277  68.566  1.00  0.00    -0.049 C  
BRANCH  33  35
HETATM   35  C   UNL     1      -8.672   5.130  66.032  1.00  0.00    -0.130 C  
HETATM   36  O   UNL     1      -9.573   6.225  65.846  1.00  0.00    -0.376 OA 
HETATM   37  H   UNL     1     -10.025   6.167  65.013  1.00  0.00     0.000 HD 
ENDBRANCH  33  35
ENDBRANCH  17  30
ENDBRANCH  11  13
ENDBRANCH  10  11
ENDBRANCH   7  10
ENDBRANCH   2   3
TORSDOF 9
ENDMDL
MODEL       80
REMARK 921   NORMALIZED FREE ENERGY PREDICTED BY IDOCK:   -6.03 KCAL/MOL
REMARK 922        TOTAL FREE ENERGY PREDICTED BY IDOCK:  -10.73 KCAL/MOL
REMARK 923 INTER-LIGAND FREE ENERGY PREDICTED BY IDOCK:   -9.07 KCAL/MOL
REMARK 924 INTRA-LIGAND FREE ENERGY PREDICTED BY IDOCK:   -1.66 KCAL/MOL
REMARK 927      BINDING AFFINITY PREDICTED BY RF-SCORE:    0.00 PKD
ROOT
HETATM    1  C   UNL     1     -11.695   8.089  72.689  1.00  0.00    -0.358 C  
HETATM    2  O   UNL     1     -12.627   8.599  71.745  1.00  0.00    -0.313 OA 
ENDROOT
BRANCH   2   3
HETATM    3  C   UNL     1     -12.370   9.839  71.222  1.00  0.00    -0.371 A  
HETATM    4  C   UNL     1     -11.459   9.909  70.157  1.00  0.00    -0.248 A  
HETATM    5 CL   UNL     1     -10.617   8.504  69.598  1.00  0.00    -0.225 Cl 
HETATM    6  C   UNL     1     -11.191  11.126  69.519  1.00  0.00    -0.341 A  
HETATM    7  C   UNL     1     -11.842  12.298  69.925  1.00  0.00    -0.383 A  
HETATM    8  C   UNL     1     -12.996  11.015  71.645  1.00  0.00    -0.561 A  
HETATM    9  C   UNL     1     -12.728  12.232  71.008  1.00  0.00    -0.319 A  
BRANCH   7  10
HETATM   10  C   UNL     1     -11.555  13.616  69.241  1.00  0.00    -0.311 C  
BRANCH  10  11
HETATM   11  N   UNL     1     -10.690  13.348  68.106  1.00  0.00    -0.245 NA 
HETATM   12  H   UNL     1     -10.758  12.486  67.564  1.00  0.00     0.000 HD 
BRANCH  11  13
HETATM   13  C   UNL     1      -9.751  14.352  67.799  1.00  0.00    -0.221 A  
HETATM   14  C   UNL     1      -8.429  14.005  67.568  1.00  0.00    -0.201 A  
HETATM   15  C   UNL     1      -7.595  15.046  67.233  1.00  0.00    -0.194 A  
HETATM   16  N   UNL     1     -10.177  15.634  67.680  1.00  0.00    -0.256 NA 
HETATM   17  C   UNL     1      -9.296  16.592  67.330  1.00  0.00    -0.230 A  
HETATM   18  N   UNL     1      -7.998  16.331  67.126  1.00  0.00    -0.169 NA 
BRANCH  14  19
HETATM   19  C   UNL     1      -7.850  12.648  67.681  1.00  0.00    -0.162 C  
HETATM   20  O   UNL     1      -7.878  12.070  68.761  1.00  0.00    -0.113 OA 
HETATM   21  N   UNL     1      -7.332  12.080  66.542  1.00  0.00    -0.369 N  
HETATM   22  H   UNL     1      -7.393  12.595  65.663  1.00  0.00     0.000 HD 
BRANCH  21  23
HETATM   23  C   UNL     1      -6.700  10.769  66.545  1.00  0.00    -0.126 C  
BRANCH  23  24
HETATM   24  C   UNL     1      -7.662   9.599  66.450  1.00  0.00    -0.101 A  
HETATM   25  N   UNL     1      -7.161   8.372  66.717  1.00  0.00    -0.077 NA 
HETATM   26  C   UNL     1      -8.025   7.340  66.675  1.00  0.00    -0.114 A  
HETATM   27  N   UNL     1      -8.954   9.834  66.122  1.00  0.00    -0.147 NA 
HETATM   28  C   UNL     1      -9.772   8.763  66.106  1.00  0.00    -0.250 A  
HETATM   29  C   UNL     1      -9.358   7.480  66.377  1.00  0.00    -0.211 A  
ENDBRANCH  23  24
ENDBRANCH  21  23
ENDBRANCH  14  19
BRANCH  17  30
HETATM   30  N   UNL     1      -9.727  17.881  67.179  1.00  0.00    -0.280 NA 
HETATM   31  C   UNL     1      -9.331  20.150  66.613  1.00  0.00    -0.490 C  
HETATM   32  C   UNL     1     -10.841  18.249  66.335  1.00  0.00     0.018 C  
HETATM   33  C   UNL     1      -8.914  19.029  67.579  1.00  0.00    -0.292 C  
HETATM   34  C   UNL     1     -10.415  19.573  65.709  1.00  0.00    -0.518 C  
BRANCH  33  35
HETATM   35  C   UNL     1      -9.215  19.398  69.045  1.00  0.00    -0.271 C  
HETATM   36  O   UNL     1     -10.525  19.955  69.186  1.00  0.00    -0.614 OA 
HETATM   37  H   UNL     1     -10.712  20.183  70.089  1.00  0.00     0.000 HD 
ENDBRANCH  33  35
ENDBRANCH  17  30
ENDBRANCH  11  13
ENDBRANCH  10  11
ENDBRANCH   7  10
ENDBRANCH   2   3
TORSDOF 9
ENDMDL
MODEL       81
REMARK 921   NORMALIZED FREE ENERGY PREDICTED BY IDOCK:   -6.02 KCAL/MOL
REMARK 922        TOTAL FREE ENERGY PREDICTED BY IDOCK:  -10.71 KCAL/MOL
REMARK 923 INTER-LIGAND FREE ENERGY PREDICTED BY IDOCK:   -9.52 KCAL/MOL
REMARK 924 INTRA-LIGAND FREE ENERGY PREDICTED BY IDOCK:   -1.19 KCAL/MOL
REMARK 927      BINDING AFFINITY PREDICTED BY RF-SCORE:    0.00 PKD
ROOT
HETATM    1  C   UNL     1      -9.149  10.063  62.720  1.00  0.00    -0.289 C  
HETATM    2  O   UNL     1      -8.161  10.077  63.741  1.00  0.00    -0.146 OA 
ENDROOT
BRANCH   2   3
HETATM    3  C   UNL     1      -8.592   9.891  65.028  1.00  0.00    -0.161 A  
HETATM    4  C   UNL     1      -7.673  10.153  66.057  1.00  0.00    -0.120 A  
HETATM    5 CL   UNL     1      -6.034  10.587  65.711  1.00  0.00    -0.117 Cl 
HETATM    6  C   UNL     1      -8.052  10.056  67.401  1.00  0.00    -0.114 A  
HETATM    7  C   UNL     1      -9.365   9.709  67.744  1.00  0.00    -0.142 A  
HETATM    8  C   UNL     1      -9.894   9.517  65.373  1.00  0.00    -0.248 A  
HETATM    9  C   UNL     1     -10.273   9.419  66.718  1.00  0.00    -0.320 A  
BRANCH   7  10
HETATM   10  C   UNL     1      -9.780   9.600  69.194  1.00  0.00    -0.178 C  
BRANCH  10  11
HETATM   11  N   UNL     1     -11.231   9.558  69.239  1.00  0.00    -0.440 NA 
HETATM   12  H   UNL     1     -11.766   8.815  68.790  1.00  0.00     0.000 HD 
BRANCH  11  13
HETATM   13  C   UNL     1     -11.855  10.608  69.941  1.00  0.00    -0.315 A  
HETATM   14  C   UNL     1     -12.526  10.338  71.123  1.00  0.00    -0.495 A  
HETATM   15  C   UNL     1     -13.066  11.430  71.760  1.00  0.00    -0.418 A  
HETATM   16  N   UNL     1     -11.734  11.875  69.470  1.00  0.00    -0.322 NA 
HETATM   17  C   UNL     1     -12.278  12.892  70.167  1.00  0.00    -0.266 A  
HETATM   18  N   UNL     1     -12.969  12.697  71.298  1.00  0.00    -0.283 NA 
BRANCH  14  19
HETATM   19  C   UNL     1     -12.732   9.001  71.723  1.00  0.00    -0.366 C  
HETATM   20  O   UNL     1     -13.304   8.908  72.804  1.00  0.00    -0.405 OA 
HETATM   21  N   UNL     1     -12.296   7.908  71.013  1.00  0.00    -0.480 N  
HETATM   22  H   UNL     1     -11.879   8.054  70.093  1.00  0.00     0.000 HD 
BRANCH  21  23
HETATM   23  C   UNL     1     -12.408   6.551  71.526  1.00  0.00    -0.226 C  
BRANCH  23  24
HETATM   24  C   UNL     1     -11.090   5.912  71.925  1.00  0.00    -0.268 A  
HETATM   25  N   UNL     1     -11.137   4.967  72.890  1.00  0.00    -0.274 NA 
HETATM   26  C   UNL     1      -9.974   4.369  73.213  1.00  0.00    -0.142 A  
HETATM   27  N   UNL     1      -9.955   6.300  71.300  1.00  0.00    -0.179 NA 
HETATM   28  C   UNL     1      -8.824   5.658  71.658  1.00  0.00    -0.136 A  
HETATM   29  C   UNL     1      -8.775   4.675  72.619  1.00  0.00    -0.117 A  
ENDBRANCH  23  24
ENDBRANCH  21  23
ENDBRANCH  14  19
BRANCH  17  30
HETATM   30  N   UNL     1     -12.133  14.173  69.712  1.00  0.00    -0.336 NA 
HETATM   31  C   UNL     1     -10.899  16.193  69.551  1.00  0.00    -0.329 C  
HETATM   32  C   UNL     1     -12.186  14.526  68.311  1.00  0.00    -0.091 C  
HETATM   33  C   UNL     1     -11.584  15.242  70.546  1.00  0.00    -0.306 C  
HETATM   34  C   UNL     1     -11.128  15.614  68.159  1.00  0.00    -0.330 C  
BRANCH  33  35
HETATM   35  C   UNL     1     -12.723  15.944  71.313  1.00  0.00    -0.320 C  
HETATM   36  O   UNL     1     -14.007  15.514  70.853  1.00  0.00    -0.847 OA 
HETATM   37  H   UNL     1     -14.709  15.946  71.325  1.00  0.00     0.000 HD 
ENDBRANCH  33  35
ENDBRANCH  17  30
ENDBRANCH  11  13
ENDBRANCH  10  11
ENDBRANCH   7  10
ENDBRANCH   2   3
TORSDOF 9
ENDMDL
MODEL       82
REMARK 921   NORMALIZED FREE ENERGY PREDICTED BY IDOCK:   -6.01 KCAL/MOL
REMARK 922        TOTAL FREE ENERGY PREDICTED BY IDOCK:  -10.70 KCAL/MOL
REMARK 923 INTER-LIGAND FREE ENERGY PREDICTED BY IDOCK:   -8.91 KCAL/MOL
REMARK 924 INTRA-LIGAND FREE ENERGY PREDICTED BY IDOCK:   -1.79 KCAL/MOL
REMARK 927      BINDING AFFINITY PREDICTED BY RF-SCORE:    0.00 PKD
ROOT
HETATM    1  C   UNL     1      -6.278  20.571  68.387  1.00  0.00    -0.323 C  
HETATM    2  O   UNL     1      -7.294  19.822  69.042  1.00  0.00    -0.341 OA 
ENDROOT
BRANCH   2   3
HETATM    3  C   UNL     1      -7.232  18.458  68.930  1.00  0.00    -0.268 A  
HETATM    4  C   UNL     1      -8.341  17.810  68.363  1.00  0.00    -0.295 A  
HETATM    5 CL   UNL     1      -9.767  18.686  67.922  1.00  0.00    -0.331 Cl 
HETATM    6  C   UNL     1      -8.333  16.427  68.148  1.00  0.00    -0.186 A  
HETATM    7  C   UNL     1      -7.207  15.664  68.484  1.00  0.00    -0.120 A  
HETATM    8  C   UNL     1      -6.121  17.691  69.291  1.00  0.00    -0.233 A  
HETATM    9  C   UNL     1      -6.113  16.307  69.077  1.00  0.00    -0.142 A  
BRANCH   7  10
HETATM   10  C   UNL     1      -7.193  14.169  68.256  1.00  0.00    -0.116 C  
BRANCH  10  11
HETATM   11  N   UNL     1      -8.513  13.658  68.581  1.00  0.00    -0.327 NA 
HETATM   12  H   UNL     1      -8.987  13.896  69.453  1.00  0.00     0.000 HD 
BRANCH  11  13
HETATM   13  C   UNL     1      -9.100  12.814  67.618  1.00  0.00    -0.193 A  
HETATM   14  C   UNL     1     -10.327  13.151  67.069  1.00  0.00    -0.249 A  
HETATM   15  C   UNL     1     -10.800  12.291  66.106  1.00  0.00    -0.279 A  
HETATM   16  N   UNL     1      -8.418  11.716  67.207  1.00  0.00    -0.150 NA 
HETATM   17  C   UNL     1      -8.946  10.935  66.244  1.00  0.00    -0.176 A  
HETATM   18  N   UNL     1     -10.143  11.183  65.696  1.00  0.00    -0.242 NA 
BRANCH  14  19
HETATM   19  C   UNL     1     -11.164  14.312  67.447  1.00  0.00    -0.316 C  
HETATM   20  O   UNL     1     -11.680  14.992  66.568  1.00  0.00    -0.266 OA 
HETATM   21  N   UNL     1     -11.351  14.553  68.787  1.00  0.00    -0.260 N  
HETATM   22  H   UNL     1     -10.938  13.913  69.466  1.00  0.00     0.000 HD 
BRANCH  21  23
HETATM   23  C   UNL     1     -12.119  15.691  69.272  1.00  0.00    -0.241 C  
BRANCH  23  24
HETATM   24  C   UNL     1     -12.509  15.615  70.737  1.00  0.00    -0.435 A  
HETATM   25  N   UNL     1     -11.510  15.715  71.642  1.00  0.00    -0.417 NA 
HETATM   26  C   UNL     1     -11.862  15.693  72.941  1.00  0.00    -0.455 A  
HETATM   27  N   UNL     1     -13.814  15.468  71.064  1.00  0.00    -0.520 NA 
HETATM   28  C   UNL     1     -14.105  15.462  72.380  1.00  0.00    -0.549 A  
HETATM   29  C   UNL     1     -13.159  15.571  73.372  1.00  0.00    -0.651 A  
ENDBRANCH  23  24
ENDBRANCH  21  23
ENDBRANCH  14  19
BRANCH  17  30
HETATM   30  N   UNL     1      -8.250   9.843  65.805  1.00  0.00    -0.122 NA 
HETATM   31  C   UNL     1      -8.177   7.618  64.985  1.00  0.00    -0.116 C  
HETATM   32  C   UNL     1      -7.322   9.890  64.697  1.00  0.00    -0.140 C  
HETATM   33  C   UNL     1      -8.617   8.478  66.181  1.00  0.00    -0.138 C  
HETATM   34  C   UNL     1      -7.534   8.564  63.975  1.00  0.00    -0.116 C  
BRANCH  33  35
HETATM   35  C   UNL     1      -7.879   8.076  67.474  1.00  0.00    -0.118 C  
HETATM   36  O   UNL     1      -7.081   6.905  67.279  1.00  0.00    -0.078 OA 
HETATM   37  H   UNL     1      -6.626   6.657  68.075  1.00  0.00     0.000 HD 
ENDBRANCH  33  35
ENDBRANCH  17  30
ENDBRANCH  11  13
ENDBRANCH  10  11
ENDBRANCH   7  10
ENDBRANCH   2   3
TORSDOF 9
ENDMDL
MODEL       83
REMARK 921   NORMALIZED FREE ENERGY PREDICTED BY IDOCK:   -6.00 KCAL/MOL
REMARK 922        TOTAL FREE ENERGY PREDICTED BY IDOCK:  -10.69 KCAL/MOL
REMARK 923 INTER-LIGAND FREE ENERGY PREDICTED BY IDOCK:   -8.89 KCAL/MOL
REMARK 924 INTRA-LIGAND FREE ENERGY PREDICTED BY IDOCK:   -1.80 KCAL/MOL
REMARK 927      BINDING AFFINITY PREDICTED BY RF-SCORE:    0.00 PKD
ROOT
HETATM    1  C   UNL     1     -13.721  16.194  73.448  1.00  0.00    -0.066 C  
HETATM    2  O   UNL     1     -12.673  15.955  72.519  1.00  0.00    -0.409 OA 
ENDROOT
BRANCH   2   3
HETATM    3  C   UNL     1     -12.690  14.758  71.853  1.00  0.00    -0.328 A  
HETATM    4  C   UNL     1     -12.083  14.717  70.589  1.00  0.00    -0.310 A  
HETATM    5 CL   UNL     1     -11.434  16.145  69.856  1.00  0.00    -0.315 Cl 
HETATM    6  C   UNL     1     -11.995  13.519  69.871  1.00  0.00    -0.416 A  
HETATM    7  C   UNL     1     -12.501  12.330  70.412  1.00  0.00    -0.221 A  
HETATM    8  C   UNL     1     -13.221  13.576  72.379  1.00  0.00    -0.577 A  
HETATM    9  C   UNL     1     -13.134  12.377  71.661  1.00  0.00    -0.408 A  
BRANCH   7  10
HETATM   10  C   UNL     1     -12.411  11.032  69.642  1.00  0.00    -0.234 C  
BRANCH  10  11
HETATM   11  N   UNL     1     -11.667  11.291  68.421  1.00  0.00    -0.474 NA 
HETATM   12  H   UNL     1     -12.129  11.554  67.551  1.00  0.00     0.000 HD 
BRANCH  11  13
HETATM   13  C   UNL     1     -10.268  11.156  68.515  1.00  0.00    -0.198 A  
HETATM   14  C   UNL     1      -9.449  12.008  67.791  1.00  0.00    -0.190 A  
HETATM   15  C   UNL     1      -8.098  11.830  67.978  1.00  0.00    -0.145 A  
HETATM   16  N   UNL     1      -9.753  10.228  69.359  1.00  0.00    -0.223 NA 
HETATM   17  C   UNL     1      -8.416  10.132  69.498  1.00  0.00    -0.168 A  
HETATM   18  N   UNL     1      -7.567  10.900  68.803  1.00  0.00    -0.112 NA 
BRANCH  14  19
HETATM   19  C   UNL     1      -9.895  13.045  66.833  1.00  0.00    -0.240 C  
HETATM   20  O   UNL     1     -10.742  12.764  65.994  1.00  0.00    -0.267 OA 
HETATM   21  N   UNL     1      -9.353  14.302  66.958  1.00  0.00    -0.231 N  
HETATM   22  H   UNL     1      -8.694  14.482  67.716  1.00  0.00     0.000 HD 
BRANCH  21  23
HETATM   23  C   UNL     1      -9.687  15.386  66.045  1.00  0.00    -0.338 C  
BRANCH  23  24
HETATM   24  C   UNL     1      -9.298  16.770  66.533  1.00  0.00    -0.264 A  
HETATM   25  N   UNL     1      -9.919  17.820  65.952  1.00  0.00    -0.561 NA 
HETATM   26  C   UNL     1      -9.606  19.045  66.416  1.00  0.00    -0.353 A  
HETATM   27  N   UNL     1      -8.376  16.886  67.517  1.00  0.00    -0.188 NA 
HETATM   28  C   UNL     1      -8.111  18.136  67.946  1.00  0.00    -0.247 A  
HETATM   29  C   UNL     1      -8.702  19.264  67.425  1.00  0.00    -0.326 A  
ENDBRANCH  23  24
ENDBRANCH  21  23
ENDBRANCH  14  19
BRANCH  17  30
HETATM   30  N   UNL     1      -7.893   9.218  70.370  1.00  0.00    -0.131 NA 
HETATM   31  C   UNL     1      -7.645   6.988  71.140  1.00  0.00    -0.086 C  
HETATM   32  C   UNL     1      -6.474   9.064  70.597  1.00  0.00    -0.056 C  
HETATM   33  C   UNL     1      -8.677   8.100  70.895  1.00  0.00    -0.140 C  
HETATM   34  C   UNL     1      -6.283   7.560  70.760  1.00  0.00    -0.035 C  
BRANCH  33  35
HETATM   35  C   UNL     1      -9.380   8.523  72.201  1.00  0.00    -0.283 C  
HETATM   36  O   UNL     1     -10.705   9.000  71.952  1.00  0.00    -0.347 OA 
HETATM   37  H   UNL     1     -11.139   9.260  72.756  1.00  0.00     0.000 HD 
ENDBRANCH  33  35
ENDBRANCH  17  30
ENDBRANCH  11  13
ENDBRANCH  10  11
ENDBRANCH   7  10
ENDBRANCH   2   3
TORSDOF 9
ENDMDL
MODEL       84
REMARK 921   NORMALIZED FREE ENERGY PREDICTED BY IDOCK:   -6.00 KCAL/MOL
REMARK 922        TOTAL FREE ENERGY PREDICTED BY IDOCK:  -10.69 KCAL/MOL
REMARK 923 INTER-LIGAND FREE ENERGY PREDICTED BY IDOCK:   -8.80 KCAL/MOL
REMARK 924 INTRA-LIGAND FREE ENERGY PREDICTED BY IDOCK:   -1.89 KCAL/MOL
REMARK 927      BINDING AFFINITY PREDICTED BY RF-SCORE:    0.00 PKD
ROOT
HETATM    1  C   UNL     1     -10.581   6.439  72.349  1.00  0.00    -0.213 C  
HETATM    2  O   UNL     1     -11.770   7.209  72.241  1.00  0.00    -0.274 OA 
ENDROOT
BRANCH   2   3
HETATM    3  C   UNL     1     -11.697   8.371  71.519  1.00  0.00    -0.290 A  
HETATM    4  C   UNL     1     -12.846   9.175  71.479  1.00  0.00    -0.347 A  
HETATM    5 CL   UNL     1     -14.326   8.668  72.219  1.00  0.00    -0.525 Cl 
HETATM    6  C   UNL     1     -12.836  10.412  70.823  1.00  0.00    -0.450 A  
HETATM    7  C   UNL     1     -11.668  10.877  70.206  1.00  0.00    -0.437 A  
HETATM    8  C   UNL     1     -10.540   8.825  70.878  1.00  0.00    -0.276 A  
HETATM    9  C   UNL     1     -10.530  10.061  70.221  1.00  0.00    -0.331 A  
BRANCH   7  10
HETATM   10  C   UNL     1     -11.652  12.212  69.494  1.00  0.00    -0.315 C  
BRANCH  10  11
HETATM   11  N   UNL     1     -11.763  11.955  68.068  1.00  0.00    -0.460 NA 
HETATM   12  H   UNL     1     -12.305  11.175  67.699  1.00  0.00     0.000 HD 
BRANCH  11  13
HETATM   13  C   UNL     1     -11.074  12.852  67.228  1.00  0.00    -0.274 A  
HETATM   14  C   UNL     1     -10.473  12.381  66.071  1.00  0.00    -0.281 A  
HETATM   15  C   UNL     1      -9.862  13.335  65.292  1.00  0.00    -0.075 A  
HETATM   16  N   UNL     1     -11.063  14.171  67.544  1.00  0.00    -0.283 NA 
HETATM   17  C   UNL     1     -10.456  15.043  66.715  1.00  0.00    -0.283 A  
HETATM   18  N   UNL     1      -9.828  14.651  65.599  1.00  0.00    -0.338 NA 
BRANCH  14  19
HETATM   19  C   UNL     1     -10.409  10.969  65.633  1.00  0.00    -0.251 C  
HETATM   20  O   UNL     1     -10.526  10.703  64.442  1.00  0.00    -0.350 OA 
HETATM   21  N   UNL     1     -10.185  10.013  66.594  1.00  0.00    -0.226 N  
HETATM   22  H   UNL     1     -10.040  10.309  67.560  1.00  0.00     0.000 HD 
BRANCH  21  23
HETATM   23  C   UNL     1     -10.146   8.592  66.283  1.00  0.00    -0.104 C  
BRANCH  23  24
HETATM   24  C   UNL     1      -9.055   7.814  66.997  1.00  0.00    -0.138 A  
HETATM   25  N   UNL     1      -8.825   6.552  66.572  1.00  0.00    -0.133 NA 
HETATM   26  C   UNL     1      -7.828   5.878  67.176  1.00  0.00    -0.102 A  
HETATM   27  N   UNL     1      -8.368   8.412  67.998  1.00  0.00    -0.127 NA 
HETATM   28  C   UNL     1      -7.376   7.691  68.558  1.00  0.00    -0.095 A  
HETATM   29  C   UNL     1      -7.059   6.407  68.183  1.00  0.00    -0.083 A  
ENDBRANCH  23  24
ENDBRANCH  21  23
ENDBRANCH  14  19
BRANCH  17  30
HETATM   30  N   UNL     1     -10.469  16.377  67.013  1.00  0.00    -0.301 NA 
HETATM   31  C   UNL     1      -9.457  18.303  67.958  1.00  0.00    -0.298 C  
HETATM   32  C   UNL     1     -10.641  17.409  66.016  1.00  0.00    -0.210 C  
HETATM   33  C   UNL     1      -9.982  16.897  68.290  1.00  0.00    -0.282 C  
HETATM   34  C   UNL     1      -9.710  18.528  66.471  1.00  0.00    -0.354 C  
BRANCH  33  35
HETATM   35  C   UNL     1     -11.138  16.947  69.310  1.00  0.00    -0.010 C  
HETATM   36  O   UNL     1     -11.129  15.803  70.168  1.00  0.00    -0.290 OA 
HETATM   37  H   UNL     1     -11.841  15.833  70.796  1.00  0.00     0.000 HD 
ENDBRANCH  33  35
ENDBRANCH  17  30
ENDBRANCH  11  13
ENDBRANCH  10  11
ENDBRANCH   7  10
ENDBRANCH   2   3
TORSDOF 9
ENDMDL
MODEL       85
REMARK 921   NORMALIZED FREE ENERGY PREDICTED BY IDOCK:   -5.99 KCAL/MOL
REMARK 922        TOTAL FREE ENERGY PREDICTED BY IDOCK:  -10.67 KCAL/MOL
REMARK 923 INTER-LIGAND FREE ENERGY PREDICTED BY IDOCK:   -9.47 KCAL/MOL
REMARK 924 INTRA-LIGAND FREE ENERGY PREDICTED BY IDOCK:   -1.20 KCAL/MOL
REMARK 927      BINDING AFFINITY PREDICTED BY RF-SCORE:    0.00 PKD
ROOT
HETATM    1  C   UNL     1      -8.726  18.541  66.224  1.00  0.00    -0.203 C  
HETATM    2  O   UNL     1      -8.411  17.206  65.856  1.00  0.00    -0.527 OA 
ENDROOT
BRANCH   2   3
HETATM    3  C   UNL     1      -9.316  16.235  66.196  1.00  0.00    -0.339 A  
HETATM    4  C   UNL     1      -9.216  15.687  67.485  1.00  0.00    -0.201 A  
HETATM    5 CL   UNL     1      -7.936  16.140  68.558  1.00  0.00    -0.165 Cl 
HETATM    6  C   UNL     1     -10.142  14.741  67.938  1.00  0.00    -0.221 A  
HETATM    7  C   UNL     1     -11.201  14.335  67.115  1.00  0.00    -0.333 A  
HETATM    8  C   UNL     1     -10.356  15.807  65.367  1.00  0.00    -0.417 A  
HETATM    9  C   UNL     1     -11.283  14.860  65.819  1.00  0.00    -0.334 A  
BRANCH   7  10
HETATM   10  C   UNL     1     -12.204  13.312  67.599  1.00  0.00    -0.135 C  
BRANCH  10  11
HETATM   11  N   UNL     1     -12.035  12.112  66.799  1.00  0.00    -0.615 NA 
HETATM   12  H   UNL     1     -12.583  11.940  65.956  1.00  0.00     0.000 HD 
BRANCH  11  13
HETATM   13  C   UNL     1     -11.066  11.198  67.259  1.00  0.00    -0.302 A  
HETATM   14  C   UNL     1     -11.171  10.677  68.539  1.00  0.00    -0.342 A  
HETATM   15  C   UNL     1     -10.205   9.761  68.885  1.00  0.00    -0.200 A  
HETATM   16  N   UNL     1     -10.080  10.806  66.414  1.00  0.00    -0.220 NA 
HETATM   17  C   UNL     1      -9.183   9.889  66.827  1.00  0.00    -0.148 A  
HETATM   18  N   UNL     1      -9.207   9.370  68.062  1.00  0.00    -0.130 NA 
BRANCH  14  19
HETATM   19  C   UNL     1     -12.191  11.039  69.549  1.00  0.00    -0.282 C  
HETATM   20  O   UNL     1     -13.264  10.448  69.557  1.00  0.00     0.224 OA 
HETATM   21  N   UNL     1     -11.865  12.012  70.463  1.00  0.00    -0.510 N  
HETATM   22  H   UNL     1     -10.932  12.423  70.434  1.00  0.00     0.000 HD 
BRANCH  21  23
HETATM   23  C   UNL     1     -12.806  12.476  71.472  1.00  0.00    -0.265 C  
BRANCH  23  24
HETATM   24  C   UNL     1     -12.613  13.919  71.905  1.00  0.00    -0.222 A  
HETATM   25  N   UNL     1     -13.199  14.293  73.063  1.00  0.00    -0.616 NA 
HETATM   26  C   UNL     1     -12.991  15.560  73.469  1.00  0.00    -0.542 A  
HETATM   27  N   UNL     1     -11.869  14.743  71.132  1.00  0.00    -0.328 NA 
HETATM   28  C   UNL     1     -11.688  15.997  71.595  1.00  0.00    -0.506 A  
HETATM   29  C   UNL     1     -12.232  16.464  72.768  1.00  0.00    -0.516 A  
ENDBRANCH  23  24
ENDBRANCH  21  23
ENDBRANCH  14  19
BRANCH  17  30
HETATM   30  N   UNL     1      -8.206   9.468  65.969  1.00  0.00    -0.114 NA 
HETATM   31  C   UNL     1      -7.441   8.960  63.782  1.00  0.00    -0.112 C  
HETATM   32  C   UNL     1      -6.908  10.098  65.878  1.00  0.00    -0.115 C  
HETATM   33  C   UNL     1      -8.484   8.577  64.844  1.00  0.00    -0.147 C  
HETATM   34  C   UNL     1      -6.578  10.061  64.390  1.00  0.00    -0.130 C  
BRANCH  33  35
HETATM   35  C   UNL     1      -8.330   7.108  65.290  1.00  0.00    -0.096 C  
HETATM   36  O   UNL     1      -9.463   6.669  66.045  1.00  0.00    -0.366 OA 
HETATM   37  H   UNL     1      -9.368   5.764  66.320  1.00  0.00     0.000 HD 
ENDBRANCH  33  35
ENDBRANCH  17  30
ENDBRANCH  11  13
ENDBRANCH  10  11
ENDBRANCH   7  10
ENDBRANCH   2   3
TORSDOF 9
ENDMDL
MODEL       86
REMARK 921   NORMALIZED FREE ENERGY PREDICTED BY IDOCK:   -5.98 KCAL/MOL
REMARK 922        TOTAL FREE ENERGY PREDICTED BY IDOCK:  -10.66 KCAL/MOL
REMARK 923 INTER-LIGAND FREE ENERGY PREDICTED BY IDOCK:   -8.99 KCAL/MOL
REMARK 924 INTRA-LIGAND FREE ENERGY PREDICTED BY IDOCK:   -1.67 KCAL/MOL
REMARK 927      BINDING AFFINITY PREDICTED BY RF-SCORE:    0.00 PKD
ROOT
HETATM    1  C   UNL     1     -13.942  14.078  72.374  1.00  0.00    -0.521 C  
HETATM    2  O   UNL     1     -12.552  14.114  72.081  1.00  0.00    -0.310 OA 
ENDROOT
BRANCH   2   3
HETATM    3  C   UNL     1     -12.196  14.372  70.784  1.00  0.00    -0.343 A  
HETATM    4  C   UNL     1     -12.071  13.272  69.920  1.00  0.00    -0.308 A  
HETATM    5 CL   UNL     1     -12.255  11.651  70.497  1.00  0.00    -0.457 Cl 
HETATM    6  C   UNL     1     -11.779  13.452  68.564  1.00  0.00    -0.392 A  
HETATM    7  C   UNL     1     -11.620  14.741  68.038  1.00  0.00    -0.367 A  
HETATM    8  C   UNL     1     -12.007  15.656  70.263  1.00  0.00    -0.398 A  
HETATM    9  C   UNL     1     -11.714  15.837  68.906  1.00  0.00    -0.404 A  
BRANCH   7  10
HETATM   10  C   UNL     1     -11.302  14.942  66.573  1.00  0.00    -0.319 C  
BRANCH  10  11
HETATM   11  N   UNL     1     -10.067  14.234  66.285  1.00  0.00    -0.288 NA 
HETATM   12  H   UNL     1     -10.057  13.338  65.797  1.00  0.00     0.000 HD 
BRANCH  11  13
HETATM   13  C   UNL     1      -8.883  14.860  66.723  1.00  0.00    -0.261 A  
HETATM   14  C   UNL     1      -7.875  14.097  67.290  1.00  0.00    -0.154 A  
HETATM   15  C   UNL     1      -6.741  14.788  67.647  1.00  0.00    -0.176 A  
HETATM   16  N   UNL     1      -8.736  16.194  66.527  1.00  0.00    -0.270 NA 
HETATM   17  C   UNL     1      -7.583  16.790  66.889  1.00  0.00    -0.217 A  
HETATM   18  N   UNL     1      -6.582  16.118  67.473  1.00  0.00    -0.155 NA 
BRANCH  14  19
HETATM   19  C   UNL     1      -7.929  12.643  67.564  1.00  0.00    -0.174 C  
HETATM   20  O   UNL     1      -8.805  12.202  68.298  1.00  0.00    -0.184 OA 
HETATM   21  N   UNL     1      -6.999  11.843  66.945  1.00  0.00    -0.313 N  
HETATM   22  H   UNL     1      -6.332  12.270  66.301  1.00  0.00     0.000 HD 
BRANCH  21  23
HETATM   23  C   UNL     1      -6.931  10.408  67.175  1.00  0.00    -0.088 C  
BRANCH  23  24
HETATM   24  C   UNL     1      -7.276   9.554  65.968  1.00  0.00    -0.093 A  
HETATM   25  N   UNL     1      -7.498   8.240  66.193  1.00  0.00    -0.080 NA 
HETATM   26  C   UNL     1      -7.847   7.491  65.130  1.00  0.00    -0.122 A  
HETATM   27  N   UNL     1      -7.356  10.138  64.750  1.00  0.00    -0.143 NA 
HETATM   28  C   UNL     1      -7.719   9.339  63.726  1.00  0.00    -0.117 A  
HETATM   29  C   UNL     1      -7.978   7.995  63.859  1.00  0.00    -0.128 A  
ENDBRANCH  23  24
ENDBRANCH  21  23
ENDBRANCH  14  19
BRANCH  17  30
HETATM   30  N   UNL     1      -7.418  18.129  66.666  1.00  0.00    -0.213 NA 
HETATM   31  C   UNL     1      -7.203  20.355  67.456  1.00  0.00    -0.353 C  
HETATM   32  C   UNL     1      -6.303  18.676  65.926  1.00  0.00    -0.233 C  
HETATM   33  C   UNL     1      -8.150  19.144  67.423  1.00  0.00    -0.271 C  
HETATM   34  C   UNL     1      -5.959  19.964  66.666  1.00  0.00    -0.179 C  
BRANCH  33  35
HETATM   35  C   UNL     1      -9.474  19.476  66.706  1.00  0.00    -0.354 C  
HETATM   36  O   UNL     1      -9.901  20.812  66.987  1.00  0.00    -0.605 OA 
HETATM   37  H   UNL     1     -10.717  21.017  66.546  1.00  0.00     0.000 HD 
ENDBRANCH  33  35
ENDBRANCH  17  30
ENDBRANCH  11  13
ENDBRANCH  10  11
ENDBRANCH   7  10
ENDBRANCH   2   3
TORSDOF 9
ENDMDL
MODEL       87
REMARK 921   NORMALIZED FREE ENERGY PREDICTED BY IDOCK:   -5.96 KCAL/MOL
REMARK 922        TOTAL FREE ENERGY PREDICTED BY IDOCK:  -10.63 KCAL/MOL
REMARK 923 INTER-LIGAND FREE ENERGY PREDICTED BY IDOCK:   -8.80 KCAL/MOL
REMARK 924 INTRA-LIGAND FREE ENERGY PREDICTED BY IDOCK:   -1.83 KCAL/MOL
REMARK 927      BINDING AFFINITY PREDICTED BY RF-SCORE:    0.00 PKD
ROOT
HETATM    1  C   UNL     1     -10.747   4.993  73.563  1.00  0.00    -0.282 C  
HETATM    2  O   UNL     1     -11.134   5.256  72.222  1.00  0.00    -0.221 OA 
ENDROOT
BRANCH   2   3
HETATM    3  C   UNL     1     -11.128   6.565  71.817  1.00  0.00    -0.257 A  
HETATM    4  C   UNL     1     -10.935   6.813  70.449  1.00  0.00    -0.283 A  
HETATM    5 CL   UNL     1     -10.611   5.526  69.338  1.00  0.00    -0.363 Cl 
HETATM    6  C   UNL     1     -10.984   8.116  69.940  1.00  0.00    -0.168 A  
HETATM    7  C   UNL     1     -11.243   9.199  70.790  1.00  0.00    -0.336 A  
HETATM    8  C   UNL     1     -11.357   7.650  72.668  1.00  0.00    -0.423 A  
HETATM    9  C   UNL     1     -11.406   8.954  72.160  1.00  0.00    -0.369 A  
BRANCH   7  10
HETATM   10  C   UNL     1     -11.295  10.610  70.247  1.00  0.00    -0.319 C  
BRANCH  10  11
HETATM   11  N   UNL     1     -11.212  10.531  68.799  1.00  0.00    -0.276 NA 
HETATM   12  H   UNL     1     -11.932  10.075  68.239  1.00  0.00     0.000 HD 
BRANCH  11  13
HETATM   13  C   UNL     1     -10.075  11.125  68.216  1.00  0.00    -0.185 A  
HETATM   14  C   UNL     1     -10.064  12.489  67.972  1.00  0.00    -0.220 A  
HETATM   15  C   UNL     1      -8.896  12.985  67.442  1.00  0.00    -0.203 A  
HETATM   16  N   UNL     1      -8.991  10.351  67.959  1.00  0.00    -0.128 NA 
HETATM   17  C   UNL     1      -7.878  10.922  67.455  1.00  0.00    -0.114 A  
HETATM   18  N   UNL     1      -7.812  12.228  67.164  1.00  0.00    -0.166 NA 
BRANCH  14  19
HETATM   19  C   UNL     1     -11.187  13.426  68.199  1.00  0.00    -0.273 C  
HETATM   20  O   UNL     1     -12.266  13.215  67.656  1.00  0.00    -0.279 OA 
HETATM   21  N   UNL     1     -10.972  14.484  69.050  1.00  0.00    -0.249 N  
HETATM   22  H   UNL     1     -10.067  14.567  69.513  1.00  0.00     0.000 HD 
BRANCH  21  23
HETATM   23  C   UNL     1     -11.991  15.489  69.312  1.00  0.00    -0.316 C  
BRANCH  23  24
HETATM   24  C   UNL     1     -12.470  15.548  70.752  1.00  0.00    -0.440 A  
HETATM   25  N   UNL     1     -13.675  14.997  71.018  1.00  0.00    -0.390 NA 
HETATM   26  C   UNL     1     -14.079  15.009  72.302  1.00  0.00    -0.513 A  
HETATM   27  N   UNL     1     -11.679  16.126  71.685  1.00  0.00    -0.494 NA 
HETATM   28  C   UNL     1     -12.133  16.099  72.955  1.00  0.00    -0.541 A  
HETATM   29  C   UNL     1     -13.339  15.549  73.324  1.00  0.00    -0.583 A  
ENDBRANCH  23  24
ENDBRANCH  21  23
ENDBRANCH  14  19
BRANCH  17  30
HETATM   30  N   UNL     1      -6.773  10.152  67.222  1.00  0.00    -0.072 NA 
HETATM   31  C   UNL     1      -5.753   8.185  66.373  1.00  0.00    -0.040 C  
HETATM   32  C   UNL     1      -5.622  10.623  66.485  1.00  0.00    -0.073 C  
HETATM   33  C   UNL     1      -6.781   8.699  67.395  1.00  0.00    -0.063 C  
HETATM   34  C   UNL     1      -5.175   9.411  65.675  1.00  0.00    -0.039 C  
BRANCH  33  35
HETATM   35  C   UNL     1      -6.376   8.343  68.839  1.00  0.00    -0.045 C  
HETATM   36  O   UNL     1      -7.518   8.245  69.694  1.00  0.00    -0.077 OA 
HETATM   37  H   UNL     1      -7.269   8.025  70.584  1.00  0.00     0.000 HD 
ENDBRANCH  33  35
ENDBRANCH  17  30
ENDBRANCH  11  13
ENDBRANCH  10  11
ENDBRANCH   7  10
ENDBRANCH   2   3
TORSDOF 9
ENDMDL
MODEL       88
REMARK 921   NORMALIZED FREE ENERGY PREDICTED BY IDOCK:   -5.94 KCAL/MOL
REMARK 922        TOTAL FREE ENERGY PREDICTED BY IDOCK:  -10.60 KCAL/MOL
REMARK 923 INTER-LIGAND FREE ENERGY PREDICTED BY IDOCK:   -8.42 KCAL/MOL
REMARK 924 INTRA-LIGAND FREE ENERGY PREDICTED BY IDOCK:   -2.18 KCAL/MOL
REMARK 927      BINDING AFFINITY PREDICTED BY RF-SCORE:    0.00 PKD
ROOT
HETATM    1  C   UNL     1      -7.632  14.914  67.248  1.00  0.00    -0.181 C  
HETATM    2  O   UNL     1      -6.870  13.724  67.395  1.00  0.00    -0.171 OA 
ENDROOT
BRANCH   2   3
HETATM    3  C   UNL     1      -7.565  12.545  67.474  1.00  0.00    -0.156 A  
HETATM    4  C   UNL     1      -7.410  11.786  68.645  1.00  0.00    -0.115 A  
HETATM    5 CL   UNL     1      -6.305  12.265  69.888  1.00  0.00    -0.105 Cl 
HETATM    6  C   UNL     1      -8.136  10.605  68.838  1.00  0.00    -0.139 A  
HETATM    7  C   UNL     1      -9.046  10.166  67.867  1.00  0.00    -0.133 A  
HETATM    8  C   UNL     1      -8.452  12.090  66.495  1.00  0.00    -0.065 A  
HETATM    9  C   UNL     1      -9.178  10.908  66.686  1.00  0.00    -0.184 A  
BRANCH   7  10
HETATM   10  C   UNL     1      -9.832   8.890  68.068  1.00  0.00    -0.168 C  
BRANCH  10  11
HETATM   11  N   UNL     1     -11.100   9.242  68.683  1.00  0.00    -0.458 NA 
HETATM   12  H   UNL     1     -11.837   9.722  68.167  1.00  0.00     0.000 HD 
BRANCH  11  13
HETATM   13  C   UNL     1     -11.248   8.880  70.036  1.00  0.00    -0.110 A  
HETATM   14  C   UNL     1     -11.836   9.769  70.922  1.00  0.00    -0.420 A  
HETATM   15  C   UNL     1     -11.977   9.312  72.211  1.00  0.00    -0.134 A  
HETATM   16  N   UNL     1     -10.861   7.641  70.429  1.00  0.00    -0.241 NA 
HETATM   17  C   UNL     1     -11.053   7.265  71.710  1.00  0.00    -0.235 A  
HETATM   18  N   UNL     1     -11.583   8.087  72.625  1.00  0.00    -0.405 NA 
BRANCH  14  19
HETATM   19  C   UNL     1     -12.283  11.145  70.611  1.00  0.00    -0.397 C  
HETATM   20  O   UNL     1     -13.281  11.592  71.164  1.00  0.00    -0.167 OA 
HETATM   21  N   UNL     1     -11.525  11.877  69.728  1.00  0.00    -0.462 N  
HETATM   22  H   UNL     1     -10.674  11.462  69.347  1.00  0.00     0.000 HD 
BRANCH  21  23
HETATM   23  C   UNL     1     -11.895  13.223  69.317  1.00  0.00    -0.331 C  
BRANCH  23  24
HETATM   24  C   UNL     1     -11.770  13.490  67.828  1.00  0.00    -0.359 A  
HETATM   25  N   UNL     1     -12.211  12.521  66.995  1.00  0.00    -0.433 NA 
HETATM   26  C   UNL     1     -12.141  12.776  65.674  1.00  0.00    -0.459 A  
HETATM   27  N   UNL     1     -11.247  14.666  67.411  1.00  0.00    -0.329 NA 
HETATM   28  C   UNL     1     -11.212  14.867  66.079  1.00  0.00    -0.327 A  
HETATM   29  C   UNL     1     -11.649  13.947  65.155  1.00  0.00    -0.340 A  
ENDBRANCH  23  24
ENDBRANCH  21  23
ENDBRANCH  14  19
BRANCH  17  30
HETATM   30  N   UNL     1     -10.692   6.007  72.104  1.00  0.00    -0.217 NA 
HETATM   31  C   UNL     1      -9.188   4.518  73.176  1.00  0.00    -0.128 C  
HETATM   32  C   UNL     1     -11.532   5.164  72.925  1.00  0.00    -0.254 C  
HETATM   33  C   UNL     1      -9.313   5.527  72.023  1.00  0.00    -0.147 C  
HETATM   34  C   UNL     1     -10.554   4.450  73.852  1.00  0.00    -0.326 C  
BRANCH  33  35
HETATM   35  C   UNL     1      -9.071   4.861  70.653  1.00  0.00    -0.128 C  
HETATM   36  O   UNL     1     -10.291   4.707  69.923  1.00  0.00    -0.195 OA 
HETATM   37  H   UNL     1     -10.142   4.297  69.079  1.00  0.00     0.000 HD 
ENDBRANCH  33  35
ENDBRANCH  17  30
ENDBRANCH  11  13
ENDBRANCH  10  11
ENDBRANCH   7  10
ENDBRANCH   2   3
TORSDOF 9
ENDMDL
MODEL       89
REMARK 921   NORMALIZED FREE ENERGY PREDICTED BY IDOCK:   -5.94 KCAL/MOL
REMARK 922        TOTAL FREE ENERGY PREDICTED BY IDOCK:  -10.60 KCAL/MOL
REMARK 923 INTER-LIGAND FREE ENERGY PREDICTED BY IDOCK:   -8.92 KCAL/MOL
REMARK 924 INTRA-LIGAND FREE ENERGY PREDICTED BY IDOCK:   -1.68 KCAL/MOL
REMARK 927      BINDING AFFINITY PREDICTED BY RF-SCORE:    0.00 PKD
ROOT
HETATM    1  C   UNL     1     -11.227   7.752  73.111  1.00  0.00    -0.218 C  
HETATM    2  O   UNL     1     -11.924   8.016  71.902  1.00  0.00    -0.284 OA 
ENDROOT
BRANCH   2   3
HETATM    3  C   UNL     1     -11.949   9.315  71.468  1.00  0.00    -0.368 A  
HETATM    4  C   UNL     1     -11.109   9.649  70.394  1.00  0.00    -0.290 A  
HETATM    5 CL   UNL     1     -10.010   8.494  69.717  1.00  0.00    -0.187 Cl 
HETATM    6  C   UNL     1     -11.122  10.935  69.843  1.00  0.00    -0.311 A  
HETATM    7  C   UNL     1     -11.990  11.913  70.347  1.00  0.00    -0.400 A  
HETATM    8  C   UNL     1     -12.793  10.300  71.988  1.00  0.00    -0.457 A  
HETATM    9  C   UNL     1     -12.806  11.588  71.438  1.00  0.00    -0.489 A  
BRANCH   7  10
HETATM   10  C   UNL     1     -12.008  13.305  69.757  1.00  0.00    -0.324 C  
BRANCH  10  11
HETATM   11  N   UNL     1     -12.117  13.176  68.315  1.00  0.00    -0.266 NA 
HETATM   12  H   UNL     1     -12.830  12.594  67.875  1.00  0.00     0.000 HD 
BRANCH  11  13
HETATM   13  C   UNL     1     -11.175  13.903  67.560  1.00  0.00    -0.303 A  
HETATM   14  C   UNL     1     -10.558  13.303  66.475  1.00  0.00    -0.289 A  
HETATM   15  C   UNL     1      -9.687  14.103  65.773  1.00  0.00    -0.217 A  
HETATM   16  N   UNL     1     -10.938  15.199  67.882  1.00  0.00    -0.292 NA 
HETATM   17  C   UNL     1     -10.082  15.919  67.129  1.00  0.00    -0.264 A  
HETATM   18  N   UNL     1      -9.426  15.391  66.088  1.00  0.00    -0.312 NA 
BRANCH  14  19
HETATM   19  C   UNL     1     -10.729  11.899  66.039  1.00  0.00    -0.285 C  
HETATM   20  O   UNL     1     -11.800  11.335  66.232  1.00  0.00    -0.142 OA 
HETATM   21  N   UNL     1      -9.672  11.297  65.398  1.00  0.00    -0.222 N  
HETATM   22  H   UNL     1      -8.829  11.843  65.219  1.00  0.00     0.000 HD 
BRANCH  21  23
HETATM   23  C   UNL     1      -9.715   9.909  64.965  1.00  0.00    -0.288 C  
BRANCH  23  24
HETATM   24  C   UNL     1      -8.733   8.992  65.673  1.00  0.00    -0.175 A  
HETATM   25  N   UNL     1      -7.745   9.584  66.379  1.00  0.00    -0.097 NA 
HETATM   26  C   UNL     1      -6.901   8.772  67.043  1.00  0.00    -0.070 A  
HETATM   27  N   UNL     1      -8.897   7.652  65.577  1.00  0.00    -0.058 NA 
HETATM   28  C   UNL     1      -8.027   6.891  66.271  1.00  0.00    -0.108 A  
HETATM   29  C   UNL     1      -6.999   7.403  67.028  1.00  0.00    -0.082 A  
ENDBRANCH  23  24
ENDBRANCH  21  23
ENDBRANCH  14  19
BRANCH  17  30
HETATM   30  N   UNL     1      -9.862  17.234  67.432  1.00  0.00    -0.265 NA 
HETATM   31  C   UNL     1      -9.417  19.470  66.775  1.00  0.00    -0.436 C  
HETATM   32  C   UNL     1     -10.788  18.035  68.200  1.00  0.00    -0.131 C  
HETATM   33  C   UNL     1      -8.857  18.038  66.738  1.00  0.00    -0.263 C  
HETATM   34  C   UNL     1     -10.735  19.407  67.538  1.00  0.00    -0.570 C  
BRANCH  33  35
HETATM   35  C   UNL     1      -7.506  17.936  67.475  1.00  0.00    -0.205 C  
HETATM   36  O   UNL     1      -7.638  17.237  68.716  1.00  0.00    -0.247 OA 
HETATM   37  H   UNL     1      -6.807  17.173  69.170  1.00  0.00     0.000 HD 
ENDBRANCH  33  35
ENDBRANCH  17  30
ENDBRANCH  11  13
ENDBRANCH  10  11
ENDBRANCH   7  10
ENDBRANCH   2   3
TORSDOF 9
ENDMDL
MODEL       90
REMARK 921   NORMALIZED FREE ENERGY PREDICTED BY IDOCK:   -5.92 KCAL/MOL
REMARK 922        TOTAL FREE ENERGY PREDICTED BY IDOCK:  -10.57 KCAL/MOL
REMARK 923 INTER-LIGAND FREE ENERGY PREDICTED BY IDOCK:   -9.29 KCAL/MOL
REMARK 924 INTRA-LIGAND FREE ENERGY PREDICTED BY IDOCK:   -1.28 KCAL/MOL
REMARK 927      BINDING AFFINITY PREDICTED BY RF-SCORE:    0.00 PKD
ROOT
HETATM    1  C   UNL     1      -8.639   9.077  62.523  1.00  0.00    -0.210 C  
HETATM    2  O   UNL     1      -7.763   9.589  63.518  1.00  0.00    -0.114 OA 
ENDROOT
BRANCH   2   3
HETATM    3  C   UNL     1      -8.269   9.722  64.784  1.00  0.00    -0.148 A  
HETATM    4  C   UNL     1      -7.423  10.274  65.759  1.00  0.00    -0.144 A  
HETATM    5 CL   UNL     1      -5.777  10.670  65.401  1.00  0.00    -0.139 Cl 
HETATM    6  C   UNL     1      -7.882  10.509  67.060  1.00  0.00    -0.114 A  
HETATM    7  C   UNL     1      -9.205  10.210  67.409  1.00  0.00    -0.156 A  
HETATM    8  C   UNL     1      -9.581   9.397  65.143  1.00  0.00    -0.195 A  
HETATM    9  C   UNL     1     -10.040   9.631  66.445  1.00  0.00    -0.317 A  
BRANCH   7  10
HETATM   10  C   UNL     1      -9.707  10.459  68.814  1.00  0.00    -0.183 C  
BRANCH  10  11
HETATM   11  N   UNL     1     -11.108  10.830  68.726  1.00  0.00    -0.238 NA 
HETATM   12  H   UNL     1     -11.830  10.162  68.458  1.00  0.00     0.000 HD 
BRANCH  11  13
HETATM   13  C   UNL     1     -11.409  12.172  69.033  1.00  0.00    -0.276 A  
HETATM   14  C   UNL     1     -12.166  12.464  70.156  1.00  0.00    -0.303 A  
HETATM   15  C   UNL     1     -12.371  13.802  70.399  1.00  0.00    -0.353 A  
HETATM   16  N   UNL     1     -10.899  13.154  68.248  1.00  0.00    -0.244 NA 
HETATM   17  C   UNL     1     -11.133  14.442  68.568  1.00  0.00    -0.253 A  
HETATM   18  N   UNL     1     -11.885  14.793  69.620  1.00  0.00    -0.301 NA 
BRANCH  14  19
HETATM   19  C   UNL     1     -12.782  11.480  71.074  1.00  0.00    -0.328 C  
HETATM   20  O   UNL     1     -13.172  11.848  72.176  1.00  0.00    -0.494 OA 
HETATM   21  N   UNL     1     -12.919  10.188  70.625  1.00  0.00    -0.551 N  
HETATM   22  H   UNL     1     -12.624   9.963  69.674  1.00  0.00     0.000 HD 
BRANCH  21  23
HETATM   23  C   UNL     1     -13.470   9.130  71.458  1.00  0.00    -0.356 C  
BRANCH  23  24
HETATM   24  C   UNL     1     -12.451   8.130  71.973  1.00  0.00    -0.336 A  
HETATM   25  N   UNL     1     -12.739   6.821  71.804  1.00  0.00    -0.348 NA 
HETATM   26  C   UNL     1     -11.814   5.936  72.221  1.00  0.00    -0.208 A  
HETATM   27  N   UNL     1     -11.318   8.587  72.556  1.00  0.00    -0.346 NA 
HETATM   28  C   UNL     1     -10.426   7.653  72.944  1.00  0.00    -0.336 A  
HETATM   29  C   UNL     1     -10.625   6.300  72.801  1.00  0.00    -0.252 A  
ENDBRANCH  23  24
ENDBRANCH  21  23
ENDBRANCH  14  19
BRANCH  17  30
HETATM   30  N   UNL     1     -10.597  15.436  67.798  1.00  0.00    -0.267 NA 
HETATM   31  C   UNL     1      -8.776  16.818  67.163  1.00  0.00    -0.218 C  
HETATM   32  C   UNL     1     -10.598  15.404  66.353  1.00  0.00    -0.307 C  
HETATM   33  C   UNL     1      -9.688  16.444  68.343  1.00  0.00    -0.229 C  
HETATM   34  C   UNL     1      -9.250  16.002  65.964  1.00  0.00    -0.375 C  
BRANCH  33  35
HETATM   35  C   UNL     1     -10.495  17.658  68.846  1.00  0.00    -0.256 C  
HETATM   36  O   UNL     1     -10.611  18.665  67.837  1.00  0.00    -0.394 OA 
HETATM   37  H   UNL     1     -11.108  19.412  68.147  1.00  0.00     0.000 HD 
ENDBRANCH  33  35
ENDBRANCH  17  30
ENDBRANCH  11  13
ENDBRANCH  10  11
ENDBRANCH   7  10
ENDBRANCH   2   3
TORSDOF 9
ENDMDL
MODEL       91
REMARK 921   NORMALIZED FREE ENERGY PREDICTED BY IDOCK:   -5.92 KCAL/MOL
REMARK 922        TOTAL FREE ENERGY PREDICTED BY IDOCK:  -10.56 KCAL/MOL
REMARK 923 INTER-LIGAND FREE ENERGY PREDICTED BY IDOCK:   -9.35 KCAL/MOL
REMARK 924 INTRA-LIGAND FREE ENERGY PREDICTED BY IDOCK:   -1.21 KCAL/MOL
REMARK 927      BINDING AFFINITY PREDICTED BY RF-SCORE:    0.00 PKD
ROOT
HETATM    1  C   UNL     1      -9.309   2.882  64.346  1.00  0.00    -0.143 C  
HETATM    2  O   UNL     1      -8.909   3.292  65.646  1.00  0.00    -0.123 OA 
ENDROOT
BRANCH   2   3
HETATM    3  C   UNL     1      -9.220   4.573  66.019  1.00  0.00    -0.141 A  
HETATM    4  C   UNL     1      -8.175   5.509  66.034  1.00  0.00    -0.114 A  
HETATM    5 CL   UNL     1      -6.542   5.040  65.699  1.00  0.00    -0.040 Cl 
HETATM    6  C   UNL     1      -8.417   6.854  66.335  1.00  0.00    -0.130 A  
HETATM    7  C   UNL     1      -9.718   7.294  66.614  1.00  0.00    -0.249 A  
HETATM    8  C   UNL     1     -10.512   5.008  66.326  1.00  0.00    -0.352 A  
HETATM    9  C   UNL     1     -10.756   6.354  66.629  1.00  0.00    -0.271 A  
BRANCH   7  10
HETATM   10  C   UNL     1      -9.987   8.745  66.942  1.00  0.00    -0.257 C  
BRANCH  10  11
HETATM   11  N   UNL     1     -11.146   8.796  67.815  1.00  0.00    -0.432 NA 
HETATM   12  H   UNL     1     -12.098   8.838  67.450  1.00  0.00     0.000 HD 
BRANCH  11  13
HETATM   13  C   UNL     1     -10.876   8.782  69.198  1.00  0.00    -0.053 A  
HETATM   14  C   UNL     1     -11.134   9.912  69.957  1.00  0.00    -0.335 A  
HETATM   15  C   UNL     1     -10.880   9.792  71.303  1.00  0.00    -0.206 A  
HETATM   16  N   UNL     1     -10.419   7.638  69.765  1.00  0.00    -0.227 NA 
HETATM   17  C   UNL     1     -10.213   7.599  71.097  1.00  0.00    -0.195 A  
HETATM   18  N   UNL     1     -10.410   8.665  71.883  1.00  0.00    -0.307 NA 
BRANCH  14  19
HETATM   19  C   UNL     1     -11.619  11.215  69.447  1.00  0.00    -0.318 C  
HETATM   20  O   UNL     1     -12.104  11.278  68.323  1.00  0.00    -0.619 OA 
HETATM   21  N   UNL     1     -11.532  12.300  70.286  1.00  0.00    -0.485 N  
HETATM   22  H   UNL     1     -11.170  12.165  71.230  1.00  0.00     0.000 HD 
BRANCH  21  23
HETATM   23  C   UNL     1     -11.939  13.635  69.874  1.00  0.00    -0.348 C  
BRANCH  23  24
HETATM   24  C   UNL     1     -12.507  14.497  70.987  1.00  0.00    -0.341 A  
HETATM   25  N   UNL     1     -13.843  14.436  71.186  1.00  0.00    -0.271 NA 
HETATM   26  C   UNL     1     -14.340  15.167  72.202  1.00  0.00    -0.552 A  
HETATM   27  N   UNL     1     -11.667  15.263  71.721  1.00  0.00    -0.386 NA 
HETATM   28  C   UNL     1     -12.222  15.965  72.729  1.00  0.00    -0.500 A  
HETATM   29  C   UNL     1     -13.567  15.955  73.018  1.00  0.00    -0.616 A  
ENDBRANCH  23  24
ENDBRANCH  21  23
ENDBRANCH  14  19
BRANCH  17  30
HETATM   30  N   UNL     1      -9.781   6.440  71.678  1.00  0.00    -0.161 NA 
HETATM   31  C   UNL     1      -9.620   4.073  71.722  1.00  0.00    -0.223 C  
HETATM   32  C   UNL     1      -8.391   6.171  71.969  1.00  0.00    -0.114 C  
HETATM   33  C   UNL     1     -10.618   5.243  71.751  1.00  0.00    -0.201 C  
HETATM   34  C   UNL     1      -8.225   4.686  71.664  1.00  0.00    -0.104 C  
BRANCH  33  35
HETATM   35  C   UNL     1     -11.439   5.258  73.056  1.00  0.00    -0.269 C  
HETATM   36  O   UNL     1     -10.803   4.494  74.085  1.00  0.00    -0.272 OA 
HETATM   37  H   UNL     1     -11.309   4.504  74.889  1.00  0.00     0.000 HD 
ENDBRANCH  33  35
ENDBRANCH  17  30
ENDBRANCH  11  13
ENDBRANCH  10  11
ENDBRANCH   7  10
ENDBRANCH   2   3
TORSDOF 9
ENDMDL
MODEL       92
REMARK 921   NORMALIZED FREE ENERGY PREDICTED BY IDOCK:   -5.90 KCAL/MOL
REMARK 922        TOTAL FREE ENERGY PREDICTED BY IDOCK:  -10.54 KCAL/MOL
REMARK 923 INTER-LIGAND FREE ENERGY PREDICTED BY IDOCK:   -8.87 KCAL/MOL
REMARK 924 INTRA-LIGAND FREE ENERGY PREDICTED BY IDOCK:   -1.67 KCAL/MOL
REMARK 927      BINDING AFFINITY PREDICTED BY RF-SCORE:    0.00 PKD
ROOT
HETATM    1  C   UNL     1     -10.626   6.908  73.175  1.00  0.00    -0.302 C  
HETATM    2  O   UNL     1     -11.603   7.411  72.274  1.00  0.00    -0.276 OA 
ENDROOT
BRANCH   2   3
HETATM    3  C   UNL     1     -11.308   7.349  70.937  1.00  0.00    -0.276 A  
HETATM    4  C   UNL     1     -11.033   8.561  70.284  1.00  0.00    -0.235 A  
HETATM    5 CL   UNL     1     -11.166  10.078  71.108  1.00  0.00    -0.399 Cl 
HETATM    6  C   UNL     1     -10.655   8.582  68.937  1.00  0.00    -0.166 A  
HETATM    7  C   UNL     1     -10.529   7.387  68.217  1.00  0.00    -0.231 A  
HETATM    8  C   UNL     1     -11.211   6.160  70.209  1.00  0.00    -0.439 A  
HETATM    9  C   UNL     1     -10.833   6.180  68.861  1.00  0.00    -0.406 A  
BRANCH   7  10
HETATM   10  C   UNL     1     -10.123   7.403  66.761  1.00  0.00    -0.235 C  
BRANCH  10  11
HETATM   11  N   UNL     1      -8.974   8.281  66.630  1.00  0.00    -0.142 NA 
HETATM   12  H   UNL     1      -8.163   8.207  67.244  1.00  0.00     0.000 HD 
BRANCH  11  13
HETATM   13  C   UNL     1      -9.049   9.242  65.603  1.00  0.00    -0.216 A  
HETATM   14  C   UNL     1      -8.530   8.948  64.352  1.00  0.00    -0.170 A  
HETATM   15  C   UNL     1      -8.688   9.929  63.401  1.00  0.00    -0.224 A  
HETATM   16  N   UNL     1      -9.680  10.417  65.849  1.00  0.00    -0.203 NA 
HETATM   17  C   UNL     1      -9.807  11.318  64.854  1.00  0.00    -0.264 A  
HETATM   18  N   UNL     1      -9.300  11.112  63.632  1.00  0.00    -0.222 NA 
BRANCH  14  19
HETATM   19  C   UNL     1      -7.812   7.710  63.972  1.00  0.00    -0.127 C  
HETATM   20  O   UNL     1      -6.767   7.423  64.543  1.00  0.00    -0.043 OA 
HETATM   21  N   UNL     1      -8.381   6.914  63.007  1.00  0.00    -0.344 N  
HETATM   22  H   UNL     1      -9.282   7.185  62.613  1.00  0.00     0.000 HD 
BRANCH  21  23
HETATM   23  C   UNL     1      -7.742   5.698  62.527  1.00  0.00    -0.074 C  
BRANCH  23  24
HETATM   24  C   UNL     1      -8.212   4.423  63.203  1.00  0.00    -0.093 A  
HETATM   25  N   UNL     1      -9.422   4.461  63.804  1.00  0.00    -0.117 NA 
HETATM   26  C   UNL     1      -9.858   3.318  64.366  1.00  0.00    -0.162 A  
HETATM   27  N   UNL     1      -7.420   3.327  63.164  1.00  0.00    -0.053 NA 
HETATM   28  C   UNL     1      -7.915   2.210  63.735  1.00  0.00    -0.072 A  
HETATM   29  C   UNL     1      -9.140   2.148  64.357  1.00  0.00    -0.123 A  
ENDBRANCH  23  24
ENDBRANCH  21  23
ENDBRANCH  14  19
BRANCH  17  30
HETATM   30  N   UNL     1     -10.469  12.491  65.089  1.00  0.00    -0.287 NA 
HETATM   31  C   UNL     1     -12.267  13.705  66.049  1.00  0.00    -0.492 C  
HETATM   32  C   UNL     1      -9.848  13.639  65.709  1.00  0.00    -0.211 C  
HETATM   33  C   UNL     1     -11.928  12.587  65.049  1.00  0.00    -0.427 C  
HETATM   34  C   UNL     1     -10.941  14.223  66.597  1.00  0.00    -0.310 C  
BRANCH  33  35
HETATM   35  C   UNL     1     -12.389  12.941  63.620  1.00  0.00    -0.434 C  
HETATM   36  O   UNL     1     -12.344  14.352  63.390  1.00  0.00    -1.094 OA 
HETATM   37  H   UNL     1     -12.629  14.571  62.511  1.00  0.00     0.000 HD 
ENDBRANCH  33  35
ENDBRANCH  17  30
ENDBRANCH  11  13
ENDBRANCH  10  11
ENDBRANCH   7  10
ENDBRANCH   2   3
TORSDOF 9
ENDMDL
MODEL       93
REMARK 921   NORMALIZED FREE ENERGY PREDICTED BY IDOCK:   -5.89 KCAL/MOL
REMARK 922        TOTAL FREE ENERGY PREDICTED BY IDOCK:  -10.51 KCAL/MOL
REMARK 923 INTER-LIGAND FREE ENERGY PREDICTED BY IDOCK:   -9.08 KCAL/MOL
REMARK 924 INTRA-LIGAND FREE ENERGY PREDICTED BY IDOCK:   -1.43 KCAL/MOL
REMARK 927      BINDING AFFINITY PREDICTED BY RF-SCORE:    0.00 PKD
ROOT
HETATM    1  C   UNL     1      -7.088   7.584  62.779  1.00  0.00    -0.078 C  
HETATM    2  O   UNL     1      -7.806   6.804  63.725  1.00  0.00    -0.117 OA 
ENDROOT
BRANCH   2   3
HETATM    3  C   UNL     1      -8.311   7.459  64.818  1.00  0.00     0.008 A  
HETATM    4  C   UNL     1      -8.895   6.674  65.824  1.00  0.00    -0.077 A  
HETATM    5 CL   UNL     1      -9.067   4.961  65.643  1.00  0.00    -0.147 Cl 
HETATM    6  C   UNL     1      -9.373   7.256  67.004  1.00  0.00    -0.181 A  
HETATM    7  C   UNL     1      -9.262   8.637  67.209  1.00  0.00    -0.167 A  
HETATM    8  C   UNL     1      -8.228   8.841  65.012  1.00  0.00    -0.156 A  
HETATM    9  C   UNL     1      -8.706   9.424  66.192  1.00  0.00    -0.165 A  
BRANCH   7  10
HETATM   10  C   UNL     1      -9.777   9.272  68.481  1.00  0.00    -0.150 C  
BRANCH  10  11
HETATM   11  N   UNL     1     -11.163   9.646  68.260  1.00  0.00    -0.513 NA 
HETATM   12  H   UNL     1     -11.889   8.953  68.076  1.00  0.00     0.000 HD 
BRANCH  11  13
HETATM   13  C   UNL     1     -11.444  11.025  68.314  1.00  0.00    -0.304 A  
HETATM   14  C   UNL     1     -12.027  11.561  69.451  1.00  0.00    -0.392 A  
HETATM   15  C   UNL     1     -12.223  12.922  69.430  1.00  0.00    -0.091 A  
HETATM   16  N   UNL     1     -11.082  11.809  67.268  1.00  0.00    -0.269 NA 
HETATM   17  C   UNL     1     -11.294  13.139  67.336  1.00  0.00    -0.306 A  
HETATM   18  N   UNL     1     -11.884  13.716  68.391  1.00  0.00    -0.358 NA 
BRANCH  14  19
HETATM   19  C   UNL     1     -12.473  10.804  70.643  1.00  0.00    -0.370 C  
HETATM   20  O   UNL     1     -12.683  11.403  71.691  1.00  0.00    -0.375 OA 
HETATM   21  N   UNL     1     -12.666   9.451  70.503  1.00  0.00    -0.475 N  
HETATM   22  H   UNL     1     -12.527   9.025  69.586  1.00  0.00     0.000 HD 
BRANCH  21  23
HETATM   23  C   UNL     1     -13.061   8.603  71.618  1.00  0.00    -0.346 C  
BRANCH  23  24
HETATM   24  C   UNL     1     -12.035   7.558  72.017  1.00  0.00    -0.294 A  
HETATM   25  N   UNL     1     -11.669   6.668  71.068  1.00  0.00    -0.344 NA 
HETATM   26  C   UNL     1     -10.726   5.769  71.409  1.00  0.00    -0.256 A  
HETATM   27  N   UNL     1     -11.535   7.573  73.274  1.00  0.00    -0.165 NA 
HETATM   28  C   UNL     1     -10.588   6.655  73.553  1.00  0.00    -0.311 A  
HETATM   29  C   UNL     1     -10.141   5.719  72.650  1.00  0.00    -0.204 A  
ENDBRANCH  23  24
ENDBRANCH  21  23
ENDBRANCH  14  19
BRANCH  17  30
HETATM   30  N   UNL     1     -10.904  13.937  66.297  1.00  0.00    -0.289 NA 
HETATM   31  C   UNL     1     -11.192  15.855  64.931  1.00  0.00    -0.345 C  
HETATM   32  C   UNL     1      -9.585  14.520  66.199  1.00  0.00    -0.297 C  
HETATM   33  C   UNL     1     -11.864  14.546  65.376  1.00  0.00    -0.344 C  
HETATM   34  C   UNL     1      -9.831  15.908  65.618  1.00  0.00    -0.337 C  
BRANCH  33  35
HETATM   35  C   UNL     1     -12.115  13.600  64.184  1.00  0.00    -0.435 C  
HETATM   36  O   UNL     1     -12.473  12.287  64.624  1.00  0.00    -0.432 OA 
HETATM   37  H   UNL     1     -12.628  11.704  63.890  1.00  0.00     0.000 HD 
ENDBRANCH  33  35
ENDBRANCH  17  30
ENDBRANCH  11  13
ENDBRANCH  10  11
ENDBRANCH   7  10
ENDBRANCH   2   3
TORSDOF 9
ENDMDL
MODEL       94
REMARK 921   NORMALIZED FREE ENERGY PREDICTED BY IDOCK:   -5.88 KCAL/MOL
REMARK 922        TOTAL FREE ENERGY PREDICTED BY IDOCK:  -10.50 KCAL/MOL
REMARK 923 INTER-LIGAND FREE ENERGY PREDICTED BY IDOCK:   -8.28 KCAL/MOL
REMARK 924 INTRA-LIGAND FREE ENERGY PREDICTED BY IDOCK:   -2.22 KCAL/MOL
REMARK 927      BINDING AFFINITY PREDICTED BY RF-SCORE:    0.00 PKD
ROOT
HETATM    1  C   UNL     1      -8.679  16.430  68.905  1.00  0.00    -0.253 C  
HETATM    2  O   UNL     1      -9.788  15.842  68.239  1.00  0.00    -0.214 OA 
ENDROOT
BRANCH   2   3
HETATM    3  C   UNL     1     -10.082  14.540  68.547  1.00  0.00    -0.242 A  
HETATM    4  C   UNL     1     -11.277  14.298  69.242  1.00  0.00    -0.273 A  
HETATM    5 CL   UNL     1     -12.283  15.599  69.782  1.00  0.00    -0.352 Cl 
HETATM    6  C   UNL     1     -11.687  12.993  69.535  1.00  0.00    -0.381 A  
HETATM    7  C   UNL     1     -10.916  11.898  69.124  1.00  0.00    -0.251 A  
HETATM    8  C   UNL     1      -9.299  13.447  68.163  1.00  0.00    -0.217 A  
HETATM    9  C   UNL     1      -9.708  12.141  68.457  1.00  0.00    -0.153 A  
BRANCH   7  10
HETATM   10  C   UNL     1     -11.352  10.485  69.439  1.00  0.00    -0.269 C  
BRANCH  10  11
HETATM   11  N   UNL     1     -11.217   9.698  68.227  1.00  0.00    -0.513 NA 
HETATM   12  H   UNL     1     -11.807   9.855  67.410  1.00  0.00     0.000 HD 
BRANCH  11  13
HETATM   13  C   UNL     1     -10.219   8.703  68.248  1.00  0.00    -0.198 A  
HETATM   14  C   UNL     1      -9.220   8.716  67.289  1.00  0.00    -0.167 A  
HETATM   15  C   UNL     1      -8.266   7.733  67.415  1.00  0.00    -0.123 A  
HETATM   16  N   UNL     1     -10.230   7.785  69.246  1.00  0.00    -0.207 NA 
HETATM   17  C   UNL     1      -9.246   6.866  69.307  1.00  0.00    -0.139 A  
HETATM   18  N   UNL     1      -8.269   6.801  68.393  1.00  0.00    -0.119 NA 
BRANCH  14  19
HETATM   19  C   UNL     1      -9.113   9.657  66.150  1.00  0.00    -0.161 C  
HETATM   20  O   UNL     1      -8.008  10.057  65.802  1.00  0.00    -0.116 OA 
HETATM   21  N   UNL     1     -10.274  10.014  65.508  1.00  0.00    -0.247 N  
HETATM   22  H   UNL     1     -11.155   9.598  65.815  1.00  0.00     0.000 HD 
BRANCH  21  23
HETATM   23  C   UNL     1     -10.293  10.964  64.406  1.00  0.00    -0.361 C  
BRANCH  23  24
HETATM   24  C   UNL     1     -10.831  12.338  64.760  1.00  0.00    -0.304 A  
HETATM   25  N   UNL     1     -12.040  12.384  65.362  1.00  0.00    -0.520 NA 
HETATM   26  C   UNL     1     -12.497  13.600  65.716  1.00  0.00    -0.477 A  
HETATM   27  N   UNL     1     -10.085  13.431  64.475  1.00  0.00    -0.290 NA 
HETATM   28  C   UNL     1     -10.591  14.619  64.862  1.00  0.00    -0.422 A  
HETATM   29  C   UNL     1     -11.805  14.764  65.492  1.00  0.00    -0.231 A  
ENDBRANCH  23  24
ENDBRANCH  21  23
ENDBRANCH  14  19
BRANCH  17  30
HETATM   30  N   UNL     1      -9.236   5.957  70.329  1.00  0.00    -0.152 NA 
HETATM   31  C   UNL     1      -9.678   3.789  71.184  1.00  0.00    -0.245 C  
HETATM   32  C   UNL     1      -8.039   5.597  71.055  1.00  0.00    -0.119 C  
HETATM   33  C   UNL     1     -10.341   5.028  70.560  1.00  0.00    -0.215 C  
HETATM   34  C   UNL     1      -8.191   4.101  71.308  1.00  0.00    -0.079 C  
BRANCH  33  35
HETATM   35  C   UNL     1     -11.369   5.666  71.516  1.00  0.00    -0.044 C  
HETATM   36  O   UNL     1     -10.873   5.723  72.856  1.00  0.00    -0.228 OA 
HETATM   37  H   UNL     1     -11.506   6.117  73.446  1.00  0.00     0.000 HD 
ENDBRANCH  33  35
ENDBRANCH  17  30
ENDBRANCH  11  13
ENDBRANCH  10  11
ENDBRANCH   7  10
ENDBRANCH   2   3
TORSDOF 9
ENDMDL
MODEL       95
REMARK 921   NORMALIZED FREE ENERGY PREDICTED BY IDOCK:   -5.86 KCAL/MOL
REMARK 922        TOTAL FREE ENERGY PREDICTED BY IDOCK:  -10.47 KCAL/MOL
REMARK 923 INTER-LIGAND FREE ENERGY PREDICTED BY IDOCK:   -8.61 KCAL/MOL
REMARK 924 INTRA-LIGAND FREE ENERGY PREDICTED BY IDOCK:   -1.87 KCAL/MOL
REMARK 927      BINDING AFFINITY PREDICTED BY RF-SCORE:    0.00 PKD
ROOT
HETATM    1  C   UNL     1      -7.252   7.779  62.511  1.00  0.00    -0.092 C  
HETATM    2  O   UNL     1      -7.047   8.470  63.736  1.00  0.00    -0.089 OA 
ENDROOT
BRANCH   2   3
HETATM    3  C   UNL     1      -7.923   8.204  64.755  1.00  0.00    -0.147 A  
HETATM    4  C   UNL     1      -8.827   9.218  65.107  1.00  0.00    -0.198 A  
HETATM    5 CL   UNL     1      -8.766  10.777  64.357  1.00  0.00    -0.134 Cl 
HETATM    6  C   UNL     1      -9.800   9.006  66.090  1.00  0.00    -0.349 A  
HETATM    7  C   UNL     1      -9.899   7.765  66.732  1.00  0.00    -0.312 A  
HETATM    8  C   UNL     1      -8.005   6.976  65.418  1.00  0.00    -0.129 A  
HETATM    9  C   UNL     1      -8.978   6.762  66.402  1.00  0.00    -0.165 A  
BRANCH   7  10
HETATM   10  C   UNL     1     -10.948   7.529  67.796  1.00  0.00     0.013 C  
BRANCH  10  11
HETATM   11  N   UNL     1     -10.932   8.670  68.695  1.00  0.00    -0.439 NA 
HETATM   12  H   UNL     1     -11.019   9.628  68.357  1.00  0.00     0.000 HD 
BRANCH  11  13
HETATM   13  C   UNL     1     -10.787   8.371  70.065  1.00  0.00    -0.225 A  
HETATM   14  C   UNL     1     -11.366   9.201  71.011  1.00  0.00    -0.377 A  
HETATM   15  C   UNL     1     -11.209   8.806  72.319  1.00  0.00    -0.273 A  
HETATM   16  N   UNL     1     -10.129   7.240  70.423  1.00  0.00    -0.191 NA 
HETATM   17  C   UNL     1     -10.037   6.916  71.728  1.00  0.00    -0.185 A  
HETATM   18  N   UNL     1     -10.544   7.691  72.696  1.00  0.00    -0.269 NA 
BRANCH  14  19
HETATM   19  C   UNL     1     -12.093  10.462  70.740  1.00  0.00    -0.364 C  
HETATM   20  O   UNL     1     -13.263  10.567  71.086  1.00  0.00    -0.361 OA 
HETATM   21  N   UNL     1     -11.397  11.480  70.133  1.00  0.00    -0.498 N  
HETATM   22  H   UNL     1     -10.408  11.344  69.923  1.00  0.00     0.000 HD 
BRANCH  21  23
HETATM   23  C   UNL     1     -12.022  12.746  69.781  1.00  0.00    -0.292 C  
BRANCH  23  24
HETATM   24  C   UNL     1     -11.790  13.192  68.348  1.00  0.00    -0.351 A  
HETATM   25  N   UNL     1     -11.908  12.249  67.388  1.00  0.00    -0.536 NA 
HETATM   26  C   UNL     1     -11.745  12.655  66.114  1.00  0.00    -0.406 A  
HETATM   27  N   UNL     1     -11.495  14.490  68.103  1.00  0.00    -0.297 NA 
HETATM   28  C   UNL     1     -11.353  14.838  66.809  1.00  0.00    -0.346 A  
HETATM   29  C   UNL     1     -11.468  13.952  65.762  1.00  0.00    -0.324 A  
ENDBRANCH  23  24
ENDBRANCH  21  23
ENDBRANCH  14  19
BRANCH  17  30
HETATM   30  N   UNL     1      -9.401   5.762  72.092  1.00  0.00    -0.146 NA 
HETATM   31  C   UNL     1      -8.776   3.513  71.670  1.00  0.00    -0.124 C  
HETATM   32  C   UNL     1      -7.994   5.704  72.419  1.00  0.00    -0.103 C  
HETATM   33  C   UNL     1      -9.986   4.441  71.865  1.00  0.00    -0.189 C  
HETATM   34  C   UNL     1      -7.529   4.375  71.833  1.00  0.00    -0.070 C  
BRANCH  33  35
HETATM   35  C   UNL     1     -10.831   4.027  73.087  1.00  0.00    -0.184 C  
HETATM   36  O   UNL     1     -11.939   4.911  73.282  1.00  0.00    -0.457 OA 
HETATM   37  H   UNL     1     -12.459   4.656  74.034  1.00  0.00     0.000 HD 
ENDBRANCH  33  35
ENDBRANCH  17  30
ENDBRANCH  11  13
ENDBRANCH  10  11
ENDBRANCH   7  10
ENDBRANCH   2   3
TORSDOF 9
ENDMDL
MODEL       96
REMARK 921   NORMALIZED FREE ENERGY PREDICTED BY IDOCK:   -5.85 KCAL/MOL
REMARK 922        TOTAL FREE ENERGY PREDICTED BY IDOCK:  -10.45 KCAL/MOL
REMARK 923 INTER-LIGAND FREE ENERGY PREDICTED BY IDOCK:   -8.59 KCAL/MOL
REMARK 924 INTRA-LIGAND FREE ENERGY PREDICTED BY IDOCK:   -1.86 KCAL/MOL
REMARK 927      BINDING AFFINITY PREDICTED BY RF-SCORE:    0.00 PKD
ROOT
HETATM    1  C   UNL     1     -14.237  15.319  72.243  1.00  0.00    -0.547 C  
HETATM    2  O   UNL     1     -13.036  15.241  71.489  1.00  0.00    -0.346 OA 
ENDROOT
BRANCH   2   3
HETATM    3  C   UNL     1     -12.722  14.026  70.941  1.00  0.00    -0.350 A  
HETATM    4  C   UNL     1     -12.117  14.030  69.674  1.00  0.00    -0.355 A  
HETATM    5 CL   UNL     1     -11.877  15.502  68.796  1.00  0.00    -0.363 Cl 
HETATM    6  C   UNL     1     -11.701  12.837  69.072  1.00  0.00    -0.371 A  
HETATM    7  C   UNL     1     -11.868  11.614  69.733  1.00  0.00    -0.428 A  
HETATM    8  C   UNL     1     -12.914  12.801  71.587  1.00  0.00    -0.402 A  
HETATM    9  C   UNL     1     -12.498  11.607  70.984  1.00  0.00    -0.436 A  
BRANCH   7  10
HETATM   10  C   UNL     1     -11.422  10.321  69.087  1.00  0.00    -0.147 C  
BRANCH  10  11
HETATM   11  N   UNL     1     -10.022  10.464  68.729  1.00  0.00    -0.179 NA 
HETATM   12  H   UNL     1      -9.568  11.375  68.667  1.00  0.00     0.000 HD 
BRANCH  11  13
HETATM   13  C   UNL     1      -9.328   9.265  68.471  1.00  0.00    -0.142 A  
HETATM   14  C   UNL     1      -8.789   9.043  67.214  1.00  0.00    -0.126 A  
HETATM   15  C   UNL     1      -8.093   7.866  67.069  1.00  0.00    -0.116 A  
HETATM   16  N   UNL     1      -9.157   8.376  69.482  1.00  0.00    -0.152 NA 
HETATM   17  C   UNL     1      -8.444   7.254  69.259  1.00  0.00    -0.133 A  
HETATM   18  N   UNL     1      -7.925   6.962  68.059  1.00  0.00    -0.113 NA 
BRANCH  14  19
HETATM   19  C   UNL     1      -8.922   9.930  66.037  1.00  0.00    -0.149 C  
HETATM   20  O   UNL     1      -7.921  10.452  65.561  1.00  0.00    -0.147 OA 
HETATM   21  N   UNL     1     -10.179  10.101  65.507  1.00  0.00    -0.264 N  
HETATM   22  H   UNL     1     -10.961   9.591  65.919  1.00  0.00     0.000 HD 
BRANCH  21  23
HETATM   23  C   UNL     1     -10.433  10.983  64.378  1.00  0.00    -0.354 C  
BRANCH  23  24
HETATM   24  C   UNL     1     -11.026  12.332  64.747  1.00  0.00    -0.303 A  
HETATM   25  N   UNL     1     -10.301  13.426  64.428  1.00  0.00    -0.403 NA 
HETATM   26  C   UNL     1     -10.847  14.623  64.715  1.00  0.00    -0.385 A  
HETATM   27  N   UNL     1     -12.235  12.375  65.354  1.00  0.00    -0.579 NA 
HETATM   28  C   UNL     1     -12.734  13.602  65.607  1.00  0.00    -0.454 A  
HETATM   29  C   UNL     1     -12.076  14.772  65.307  1.00  0.00    -0.198 A  
ENDBRANCH  23  24
ENDBRANCH  21  23
ENDBRANCH  14  19
BRANCH  17  30
HETATM   30  N   UNL     1      -8.243   6.370  70.282  1.00  0.00    -0.123 NA 
HETATM   31  C   UNL     1      -7.952   5.893  72.588  1.00  0.00    -0.105 C  
HETATM   32  C   UNL     1      -9.112   5.244  70.537  1.00  0.00    -0.141 C  
HETATM   33  C   UNL     1      -7.346   6.660  71.401  1.00  0.00    -0.083 C  
HETATM   34  C   UNL     1      -9.180   5.161  72.058  1.00  0.00    -0.156 C  
BRANCH  33  35
HETATM   35  C   UNL     1      -5.923   6.167  71.071  1.00  0.00    -0.030 C  
HETATM   36  O   UNL     1      -5.402   5.336  72.112  1.00  0.00    -0.011 OA 
HETATM   37  H   UNL     1      -4.526   5.032  71.910  1.00  0.00     0.000 HD 
ENDBRANCH  33  35
ENDBRANCH  17  30
ENDBRANCH  11  13
ENDBRANCH  10  11
ENDBRANCH   7  10
ENDBRANCH   2   3
TORSDOF 9
ENDMDL
MODEL       97
REMARK 921   NORMALIZED FREE ENERGY PREDICTED BY IDOCK:   -5.82 KCAL/MOL
REMARK 922        TOTAL FREE ENERGY PREDICTED BY IDOCK:  -10.41 KCAL/MOL
REMARK 923 INTER-LIGAND FREE ENERGY PREDICTED BY IDOCK:   -8.76 KCAL/MOL
REMARK 924 INTRA-LIGAND FREE ENERGY PREDICTED BY IDOCK:   -1.65 KCAL/MOL
REMARK 927      BINDING AFFINITY PREDICTED BY RF-SCORE:    0.00 PKD
ROOT
HETATM    1  C   UNL     1     -12.433  15.666  73.385  1.00  0.00    -0.523 C  
HETATM    2  O   UNL     1     -13.326  15.209  72.379  1.00  0.00    -0.352 OA 
ENDROOT
BRANCH   2   3
HETATM    3  C   UNL     1     -13.003  14.039  71.744  1.00  0.00    -0.353 A  
HETATM    4  C   UNL     1     -12.254  14.138  70.560  1.00  0.00    -0.361 A  
HETATM    5 CL   UNL     1     -11.850  15.676  69.876  1.00  0.00    -0.359 Cl 
HETATM    6  C   UNL     1     -11.822  12.991  69.885  1.00  0.00    -0.377 A  
HETATM    7  C   UNL     1     -12.118  11.718  70.390  1.00  0.00    -0.440 A  
HETATM    8  C   UNL     1     -13.321  12.768  72.230  1.00  0.00    -0.563 A  
HETATM    9  C   UNL     1     -12.890  11.620  71.554  1.00  0.00    -0.469 A  
BRANCH   7  10
HETATM   10  C   UNL     1     -11.655  10.474  69.664  1.00  0.00    -0.271 C  
BRANCH  10  11
HETATM   11  N   UNL     1     -10.237  10.621  69.390  1.00  0.00    -0.313 NA 
HETATM   12  H   UNL     1      -9.858  11.443  68.919  1.00  0.00     0.000 HD 
BRANCH  11  13
HETATM   13  C   UNL     1      -9.415   9.559  69.817  1.00  0.00    -0.210 A  
HETATM   14  C   UNL     1      -8.059   9.774  70.000  1.00  0.00    -0.203 A  
HETATM   15  C   UNL     1      -7.345   8.692  70.459  1.00  0.00    -0.058 A  
HETATM   16  N   UNL     1      -9.985   8.360  70.093  1.00  0.00    -0.185 NA 
HETATM   17  C   UNL     1      -9.216   7.355  70.557  1.00  0.00    -0.157 A  
HETATM   18  N   UNL     1      -7.893   7.485  70.725  1.00  0.00    -0.096 NA 
BRANCH  14  19
HETATM   19  C   UNL     1      -7.328  11.031  69.721  1.00  0.00     0.061 C  
HETATM   20  O   UNL     1      -6.308  11.286  70.351  1.00  0.00    -0.254 OA 
HETATM   21  N   UNL     1      -7.817  11.845  68.728  1.00  0.00    -0.276 N  
HETATM   22  H   UNL     1      -8.639  11.543  68.203  1.00  0.00     0.000 HD 
BRANCH  21  23
HETATM   23  C   UNL     1      -7.204  13.123  68.398  1.00  0.00    -0.107 C  
BRANCH  23  24
HETATM   24  C   UNL     1      -8.103  14.081  67.637  1.00  0.00    -0.174 A  
HETATM   25  N   UNL     1      -7.577  15.283  67.310  1.00  0.00    -0.204 NA 
HETATM   26  C   UNL     1      -8.359  16.115  66.597  1.00  0.00    -0.286 A  
HETATM   27  N   UNL     1      -9.358  13.692  67.317  1.00  0.00    -0.224 NA 
HETATM   28  C   UNL     1     -10.090  14.564  66.594  1.00  0.00    -0.272 A  
HETATM   29  C   UNL     1      -9.636  15.802  66.203  1.00  0.00    -0.364 A  
ENDBRANCH  23  24
ENDBRANCH  21  23
ENDBRANCH  14  19
BRANCH  17  30
HETATM   30  N   UNL     1      -9.790   6.154  70.865  1.00  0.00    -0.180 NA 
HETATM   31  C   UNL     1      -9.625   3.879  71.517  1.00  0.00    -0.236 C  
HETATM   32  C   UNL     1     -10.784   5.995  71.903  1.00  0.00    -0.234 C  
HETATM   33  C   UNL     1      -9.226   4.880  70.421  1.00  0.00    -0.134 C  
HETATM   34  C   UNL     1     -10.447   4.653  72.542  1.00  0.00    -0.257 C  
BRANCH  33  35
HETATM   35  C   UNL     1      -9.822   4.493  69.052  1.00  0.00    -0.132 C  
HETATM   36  O   UNL     1     -10.626   5.547  68.514  1.00  0.00    -0.193 OA 
HETATM   37  H   UNL     1     -10.994   5.309  67.671  1.00  0.00     0.000 HD 
ENDBRANCH  33  35
ENDBRANCH  17  30
ENDBRANCH  11  13
ENDBRANCH  10  11
ENDBRANCH   7  10
ENDBRANCH   2   3
TORSDOF 9
ENDMDL
MODEL       98
REMARK 921   NORMALIZED FREE ENERGY PREDICTED BY IDOCK:   -5.82 KCAL/MOL
REMARK 922        TOTAL FREE ENERGY PREDICTED BY IDOCK:  -10.40 KCAL/MOL
REMARK 923 INTER-LIGAND FREE ENERGY PREDICTED BY IDOCK:   -8.64 KCAL/MOL
REMARK 924 INTRA-LIGAND FREE ENERGY PREDICTED BY IDOCK:   -1.76 KCAL/MOL
REMARK 927      BINDING AFFINITY PREDICTED BY RF-SCORE:    0.00 PKD
ROOT
HETATM    1  C   UNL     1     -10.899   4.153  74.322  1.00  0.00    -0.135 C  
HETATM    2  O   UNL     1     -10.333   4.783  73.181  1.00  0.00    -0.160 OA 
ENDROOT
BRANCH   2   3
HETATM    3  C   UNL     1     -10.909   5.955  72.766  1.00  0.00    -0.252 A  
HETATM    4  C   UNL     1     -10.252   7.148  73.108  1.00  0.00    -0.276 A  
HETATM    5 CL   UNL     1      -8.835   7.143  74.102  1.00  0.00    -0.227 Cl 
HETATM    6  C   UNL     1     -10.734   8.386  72.666  1.00  0.00    -0.312 A  
HETATM    7  C   UNL     1     -11.876   8.454  71.858  1.00  0.00    -0.398 A  
HETATM    8  C   UNL     1     -12.065   6.028  71.984  1.00  0.00    -0.170 A  
HETATM    9  C   UNL     1     -12.548   7.266  71.542  1.00  0.00    -0.415 A  
BRANCH   7  10
HETATM   10  C   UNL     1     -12.402   9.789  71.378  1.00  0.00    -0.388 C  
BRANCH  10  11
HETATM   11  N   UNL     1     -12.411   9.767  69.926  1.00  0.00    -0.255 NA 
HETATM   12  H   UNL     1     -12.859   9.017  69.398  1.00  0.00     0.000 HD 
BRANCH  11  13
HETATM   13  C   UNL     1     -11.763  10.844  69.291  1.00  0.00    -0.324 A  
HETATM   14  C   UNL     1     -10.890  10.597  68.244  1.00  0.00    -0.287 A  
HETATM   15  C   UNL     1     -10.338  11.712  67.658  1.00  0.00    -0.189 A  
HETATM   16  N   UNL     1     -12.054  12.109  69.687  1.00  0.00    -0.256 NA 
HETATM   17  C   UNL     1     -11.482  13.148  69.045  1.00  0.00    -0.296 A  
HETATM   18  N   UNL     1     -10.604  12.978  68.048  1.00  0.00    -0.229 NA 
BRANCH  14  19
HETATM   19  C   UNL     1     -10.489   9.265  67.737  1.00  0.00    -0.255 C  
HETATM   20  O   UNL     1      -9.695   9.190  66.807  1.00  0.00    -0.176 OA 
HETATM   21  N   UNL     1     -11.008   8.160  68.368  1.00  0.00    -0.426 N  
HETATM   22  H   UNL     1     -11.620   8.295  69.174  1.00  0.00     0.000 HD 
BRANCH  21  23
HETATM   23  C   UNL     1     -10.716   6.804  67.928  1.00  0.00    -0.256 C  
BRANCH  23  24
HETATM   24  C   UNL     1      -9.605   6.112  68.696  1.00  0.00    -0.127 A  
HETATM   25  N   UNL     1      -9.046   6.801  69.715  1.00  0.00    -0.144 NA 
HETATM   26  C   UNL     1      -8.091   6.169  70.425  1.00  0.00    -0.112 A  
HETATM   27  N   UNL     1      -9.243   4.857  68.341  1.00  0.00    -0.118 NA 
HETATM   28  C   UNL     1      -8.289   4.274  69.094  1.00  0.00    -0.073 A  
HETATM   29  C   UNL     1      -7.672   4.890  70.158  1.00  0.00    -0.062 A  
ENDBRANCH  23  24
ENDBRANCH  21  23
ENDBRANCH  14  19
BRANCH  17  30
HETATM   30  N   UNL     1     -11.795  14.425  69.420  1.00  0.00    -0.306 NA 
HETATM   31  C   UNL     1     -11.556  16.278  70.882  1.00  0.00    -0.321 C  
HETATM   32  C   UNL     1     -11.640  15.566  68.545  1.00  0.00    -0.368 C  
HETATM   33  C   UNL     1     -11.990  14.804  70.819  1.00  0.00    -0.310 C  
HETATM   34  C   UNL     1     -11.156  16.680  69.467  1.00  0.00    -0.158 C  
BRANCH  33  35
HETATM   35  C   UNL     1     -13.473  14.629  71.206  1.00  0.00    -0.386 C  
HETATM   36  O   UNL     1     -13.632  13.657  72.243  1.00  0.00    -0.475 OA 
HETATM   37  H   UNL     1     -14.545  13.549  72.481  1.00  0.00     0.000 HD 
ENDBRANCH  33  35
ENDBRANCH  17  30
ENDBRANCH  11  13
ENDBRANCH  10  11
ENDBRANCH   7  10
ENDBRANCH   2   3
TORSDOF 9
ENDMDL
MODEL       99
REMARK 921   NORMALIZED FREE ENERGY PREDICTED BY IDOCK:   -5.82 KCAL/MOL
REMARK 922        TOTAL FREE ENERGY PREDICTED BY IDOCK:  -10.40 KCAL/MOL
REMARK 923 INTER-LIGAND FREE ENERGY PREDICTED BY IDOCK:   -8.98 KCAL/MOL
REMARK 924 INTRA-LIGAND FREE ENERGY PREDICTED BY IDOCK:   -1.43 KCAL/MOL
REMARK 927      BINDING AFFINITY PREDICTED BY RF-SCORE:    0.00 PKD
ROOT
HETATM    1  C   UNL     1     -10.876  20.090  65.540  1.00  0.00    -0.074 C  
HETATM    2  O   UNL     1     -10.103  20.192  66.727  1.00  0.00    -0.431 OA 
ENDROOT
BRANCH   2   3
HETATM    3  C   UNL     1      -9.599  19.028  67.245  1.00  0.00    -0.313 A  
HETATM    4  C   UNL     1      -8.241  18.758  67.016  1.00  0.00    -0.264 A  
HETATM    5 CL   UNL     1      -7.270  19.799  66.031  1.00  0.00    -0.281 Cl 
HETATM    6  C   UNL     1      -7.629  17.627  67.568  1.00  0.00    -0.210 A  
HETATM    7  C   UNL     1      -8.363  16.747  68.374  1.00  0.00    -0.222 A  
HETATM    8  C   UNL     1     -10.336  18.133  68.026  1.00  0.00    -0.405 A  
HETATM    9  C   UNL     1      -9.725  17.001  68.578  1.00  0.00    -0.282 A  
BRANCH   7  10
HETATM   10  C   UNL     1      -7.708  15.521  68.972  1.00  0.00    -0.192 C  
BRANCH  10  11
HETATM   11  N   UNL     1      -7.217  14.703  67.877  1.00  0.00    -0.141 NA 
HETATM   12  H   UNL     1      -6.320  14.883  67.426  1.00  0.00     0.000 HD 
BRANCH  11  13
HETATM   13  C   UNL     1      -8.056  13.644  67.477  1.00  0.00    -0.184 A  
HETATM   14  C   UNL     1      -7.800  12.360  67.932  1.00  0.00    -0.145 A  
HETATM   15  C   UNL     1      -8.697  11.400  67.525  1.00  0.00    -0.140 A  
HETATM   16  N   UNL     1      -9.132  13.918  66.698  1.00  0.00    -0.228 NA 
HETATM   17  C   UNL     1      -9.972  12.920  66.360  1.00  0.00    -0.267 A  
HETATM   18  N   UNL     1      -9.765  11.651  66.736  1.00  0.00    -0.198 NA 
BRANCH  14  19
HETATM   19  C   UNL     1      -6.655  11.942  68.771  1.00  0.00    -0.080 C  
HETATM   20  O   UNL     1      -5.535  12.369  68.517  1.00  0.00    -0.053 OA 
HETATM   21  N   UNL     1      -6.914  11.108  69.833  1.00  0.00    -0.336 N  
HETATM   22  H   UNL     1      -7.879  10.836  70.022  1.00  0.00     0.000 HD 
BRANCH  21  23
HETATM   23  C   UNL     1      -5.860  10.601  70.698  1.00  0.00    -0.112 C  
BRANCH  23  24
HETATM   24  C   UNL     1      -6.338   9.691  71.815  1.00  0.00     0.267 A  
HETATM   25  N   UNL     1      -5.546   9.595  72.906  1.00  0.00    -0.301 NA 
HETATM   26  C   UNL     1      -5.991   8.823  73.915  1.00  0.00    -0.103 A  
HETATM   27  N   UNL     1      -7.516   9.041  71.676  1.00  0.00    -0.326 NA 
HETATM   28  C   UNL     1      -7.914   8.291  72.723  1.00  0.00    -0.137 A  
HETATM   29  C   UNL     1      -7.183   8.143  73.879  1.00  0.00    -0.194 A  
ENDBRANCH  23  24
ENDBRANCH  21  23
ENDBRANCH  14  19
BRANCH  17  30
HETATM   30  N   UNL     1     -11.074  13.197  65.600  1.00  0.00    -0.275 NA 
HETATM   31  C   UNL     1     -12.103  13.589  63.498  1.00  0.00    -0.425 C  
HETATM   32  C   UNL     1     -12.272  12.387  65.620  1.00  0.00    -0.250 C  
HETATM   33  C   UNL     1     -11.031  14.118  64.465  1.00  0.00    -0.328 C  
HETATM   34  C   UNL     1     -12.740  12.376  64.169  1.00  0.00    -0.446 C  
BRANCH  33  35
HETATM   35  C   UNL     1     -11.350  15.549  64.941  1.00  0.00    -0.335 C  
HETATM   36  O   UNL     1     -11.643  16.415  63.841  1.00  0.00    -1.564 OA 
HETATM   37  H   UNL     1     -11.840  17.297  64.134  1.00  0.00     0.000 HD 
ENDBRANCH  33  35
ENDBRANCH  17  30
ENDBRANCH  11  13
ENDBRANCH  10  11
ENDBRANCH   7  10
ENDBRANCH   2   3
TORSDOF 9
ENDMDL
MODEL      100
REMARK 921   NORMALIZED FREE ENERGY PREDICTED BY IDOCK:   -5.81 KCAL/MOL
REMARK 922        TOTAL FREE ENERGY PREDICTED BY IDOCK:  -10.39 KCAL/MOL
REMARK 923 INTER-LIGAND FREE ENERGY PREDICTED BY IDOCK:   -8.34 KCAL/MOL
REMARK 924 INTRA-LIGAND FREE ENERGY PREDICTED BY IDOCK:   -2.06 KCAL/MOL
REMARK 927      BINDING AFFINITY PREDICTED BY RF-SCORE:    0.00 PKD
ROOT
HETATM    1  C   UNL     1     -13.506  15.628  72.264  1.00  0.00    -0.495 C  
HETATM    2  O   UNL     1     -12.635  15.731  71.146  1.00  0.00    -0.443 OA 
ENDROOT
BRANCH   2   3
HETATM    3  C   UNL     1     -12.411  14.589  70.424  1.00  0.00    -0.347 A  
HETATM    4  C   UNL     1     -11.929  14.742  69.114  1.00  0.00    -0.282 A  
HETATM    5 CL   UNL     1     -11.730  16.309  68.406  1.00  0.00    -0.173 Cl 
HETATM    6  C   UNL     1     -11.608  13.628  68.331  1.00  0.00    -0.377 A  
HETATM    7  C   UNL     1     -11.748  12.334  68.849  1.00  0.00    -0.380 A  
HETATM    8  C   UNL     1     -12.577  13.296  70.928  1.00  0.00    -0.386 A  
HETATM    9  C   UNL     1     -12.257  12.180  70.145  1.00  0.00    -0.308 A  
BRANCH   7  10
HETATM   10  C   UNL     1     -11.404  11.125  68.007  1.00  0.00    -0.312 C  
BRANCH  10  11
HETATM   11  N   UNL     1      -9.980  11.169  67.728  1.00  0.00    -0.172 NA 
HETATM   12  H   UNL     1      -9.609  11.566  66.864  1.00  0.00     0.000 HD 
BRANCH  11  13
HETATM   13  C   UNL     1      -9.142  10.630  68.724  1.00  0.00    -0.169 A  
HETATM   14  C   UNL     1      -7.863  11.136  68.889  1.00  0.00    -0.131 A  
HETATM   15  C   UNL     1      -7.134  10.578  69.913  1.00  0.00    -0.145 A  
HETATM   16  N   UNL     1      -9.630   9.660  69.537  1.00  0.00    -0.185 NA 
HETATM   17  C   UNL     1      -8.854   9.180  70.529  1.00  0.00    -0.224 A  
HETATM   18  N   UNL     1      -7.598   9.601  70.724  1.00  0.00    -0.310 NA 
BRANCH  14  19
HETATM   19  C   UNL     1      -7.222  12.180  68.057  1.00  0.00    -0.099 C  
HETATM   20  O   UNL     1      -7.003  11.954  66.873  1.00  0.00    -0.137 OA 
HETATM   21  N   UNL     1      -6.930  13.382  68.656  1.00  0.00    -0.096 N  
HETATM   22  H   UNL     1      -7.191  13.522  69.632  1.00  0.00     0.000 HD 
BRANCH  21  23
HETATM   23  C   UNL     1      -6.261  14.461  67.945  1.00  0.00    -0.156 C  
BRANCH  23  24
HETATM   24  C   UNL     1      -7.149  15.647  67.611  1.00  0.00    -0.168 A  
HETATM   25  N   UNL     1      -6.841  16.825  68.196  1.00  0.00    -0.146 NA 
HETATM   26  C   UNL     1      -7.601  17.886  67.864  1.00  0.00    -0.221 A  
HETATM   27  N   UNL     1      -8.179  15.476  66.750  1.00  0.00    -0.248 NA 
HETATM   28  C   UNL     1      -8.897  16.576  66.449  1.00  0.00    -0.310 A  
HETATM   29  C   UNL     1      -8.651  17.819  66.983  1.00  0.00    -0.248 A  
ENDBRANCH  23  24
ENDBRANCH  21  23
ENDBRANCH  14  19
BRANCH  17  30
HETATM   30  N   UNL     1      -9.352   8.225  71.371  1.00  0.00    -0.159 NA 
HETATM   31  C   UNL     1     -10.490   7.593  73.354  1.00  0.00    -0.361 C  
HETATM   32  C   UNL     1     -10.292   7.211  70.949  1.00  0.00    -0.201 C  
HETATM   33  C   UNL     1      -9.251   8.334  72.826  1.00  0.00    -0.266 C  
HETATM   34  C   UNL     1     -11.236   7.058  72.137  1.00  0.00    -0.291 C  
BRANCH  33  35
HETATM   35  C   UNL     1      -7.943   7.675  73.310  1.00  0.00    -0.119 C  
HETATM   36  O   UNL     1      -6.874   8.622  73.378  1.00  0.00    -0.274 OA 
HETATM   37  H   UNL     1      -6.068   8.217  73.676  1.00  0.00     0.000 HD 
ENDBRANCH  33  35
ENDBRANCH  17  30
ENDBRANCH  11  13
ENDBRANCH  10  11
ENDBRANCH   7  10
ENDBRANCH   2   3
TORSDOF 9
ENDMDL
MODEL      101
REMARK 921   NORMALIZED FREE ENERGY PREDICTED BY IDOCK:   -5.79 KCAL/MOL
REMARK 922        TOTAL FREE ENERGY PREDICTED BY IDOCK:  -10.36 KCAL/MOL
REMARK 923 INTER-LIGAND FREE ENERGY PREDICTED BY IDOCK:   -8.71 KCAL/MOL
REMARK 924 INTRA-LIGAND FREE ENERGY PREDICTED BY IDOCK:   -1.65 KCAL/MOL
REMARK 927      BINDING AFFINITY PREDICTED BY RF-SCORE:    0.00 PKD
ROOT
HETATM    1  C   UNL     1      -5.304  14.205  68.534  1.00  0.00    -0.098 C  
HETATM    2  O   UNL     1      -6.057  13.090  68.989  1.00  0.00    -0.078 OA 
ENDROOT
BRANCH   2   3
HETATM    3  C   UNL     1      -7.110  12.689  68.210  1.00  0.00    -0.105 A  
HETATM    4  C   UNL     1      -7.642  11.414  68.456  1.00  0.00    -0.129 A  
HETATM    5 CL   UNL     1      -6.929  10.351  69.622  1.00  0.00    -0.110 Cl 
HETATM    6  C   UNL     1      -8.762  10.953  67.754  1.00  0.00    -0.129 A  
HETATM    7  C   UNL     1      -9.383  11.768  66.799  1.00  0.00    -0.199 A  
HETATM    8  C   UNL     1      -7.714  13.489  67.236  1.00  0.00    -0.093 A  
HETATM    9  C   UNL     1      -8.834  13.029  66.532  1.00  0.00    -0.009 A  
BRANCH   7  10
HETATM   10  C   UNL     1     -10.592  11.276  66.035  1.00  0.00    -0.258 C  
BRANCH  10  11
HETATM   11  N   UNL     1     -11.748  12.018  66.507  1.00  0.00    -0.575 NA 
HETATM   12  H   UNL     1     -12.417  12.445  65.867  1.00  0.00     0.000 HD 
BRANCH  11  13
HETATM   13  C   UNL     1     -11.888  12.112  67.906  1.00  0.00    -0.269 A  
HETATM   14  C   UNL     1     -11.903  13.359  68.510  1.00  0.00    -0.401 A  
HETATM   15  C   UNL     1     -12.087  13.354  69.873  1.00  0.00    -0.322 A  
HETATM   16  N   UNL     1     -12.063  10.976  68.625  1.00  0.00    -0.555 NA 
HETATM   17  C   UNL     1     -12.256  11.061  69.957  1.00  0.00    -0.343 A  
HETATM   18  N   UNL     1     -12.247  12.232  70.608  1.00  0.00    -0.357 NA 
BRANCH  14  19
HETATM   19  C   UNL     1     -11.710  14.661  67.831  1.00  0.00    -0.351 C  
HETATM   20  O   UNL     1     -12.024  14.776  66.652  1.00  0.00    -0.314 OA 
HETATM   21  N   UNL     1     -11.212  15.701  68.578  1.00  0.00    -0.323 N  
HETATM   22  H   UNL     1     -11.025  15.550  69.570  1.00  0.00     0.000 HD 
BRANCH  21  23
HETATM   23  C   UNL     1     -10.942  17.011  68.004  1.00  0.00    -0.252 C  
BRANCH  23  24
HETATM   24  C   UNL     1      -9.479  17.417  68.008  1.00  0.00    -0.281 A  
HETATM   25  N   UNL     1      -9.137  18.477  67.243  1.00  0.00    -0.274 NA 
HETATM   26  C   UNL     1      -7.849  18.865  67.281  1.00  0.00    -0.235 A  
HETATM   27  N   UNL     1      -8.605  16.722  68.772  1.00  0.00    -0.258 NA 
HETATM   28  C   UNL     1      -7.331  17.163  68.777  1.00  0.00    -0.241 A  
HETATM   29  C   UNL     1      -6.892  18.240  68.042  1.00  0.00    -0.212 A  
ENDBRANCH  23  24
ENDBRANCH  21  23
ENDBRANCH  14  19
BRANCH  17  30
HETATM   30  N   UNL     1     -12.462   9.921  70.682  1.00  0.00    -0.231 NA 
HETATM   31  C   UNL     1     -11.991   8.531  72.546  1.00  0.00    -0.401 C  
HETATM   32  C   UNL     1     -13.759   9.527  71.184  1.00  0.00    -0.101 C  
HETATM   33  C   UNL     1     -11.364   9.177  71.299  1.00  0.00    -0.336 C  
HETATM   34  C   UNL     1     -13.463   8.928  72.555  1.00  0.00    -0.462 C  
BRANCH  33  35
HETATM   35  C   UNL     1     -10.833   8.116  70.314  1.00  0.00    -0.244 C  
HETATM   36  O   UNL     1      -9.634   7.505  70.798  1.00  0.00    -0.167 OA 
HETATM   37  H   UNL     1      -9.306   6.852  70.192  1.00  0.00     0.000 HD 
ENDBRANCH  33  35
ENDBRANCH  17  30
ENDBRANCH  11  13
ENDBRANCH  10  11
ENDBRANCH   7  10
ENDBRANCH   2   3
TORSDOF 9
ENDMDL
MODEL      102
REMARK 921   NORMALIZED FREE ENERGY PREDICTED BY IDOCK:   -5.79 KCAL/MOL
REMARK 922        TOTAL FREE ENERGY PREDICTED BY IDOCK:  -10.36 KCAL/MOL
REMARK 923 INTER-LIGAND FREE ENERGY PREDICTED BY IDOCK:   -9.13 KCAL/MOL
REMARK 924 INTRA-LIGAND FREE ENERGY PREDICTED BY IDOCK:   -1.23 KCAL/MOL
REMARK 927      BINDING AFFINITY PREDICTED BY RF-SCORE:    0.00 PKD
ROOT
HETATM    1  C   UNL     1      -6.627   7.570  69.104  1.00  0.00    -0.040 C  
HETATM    2  O   UNL     1      -7.856   7.339  68.429  1.00  0.00    -0.117 OA 
ENDROOT
BRANCH   2   3
HETATM    3  C   UNL     1      -8.353   8.367  67.673  1.00  0.00    -0.130 A  
HETATM    4  C   UNL     1      -9.534   8.122  66.954  1.00  0.00    -0.191 A  
HETATM    5 CL   UNL     1     -10.270   6.556  66.940  1.00  0.00    -0.261 Cl 
HETATM    6  C   UNL     1     -10.148   9.137  66.211  1.00  0.00    -0.319 A  
HETATM    7  C   UNL     1      -9.600  10.426  66.185  1.00  0.00    -0.245 A  
HETATM    8  C   UNL     1      -7.792   9.646  67.621  1.00  0.00    -0.095 A  
HETATM    9  C   UNL     1      -8.405  10.662  66.878  1.00  0.00    -0.125 A  
BRANCH   7  10
HETATM   10  C   UNL     1     -10.257  11.527  65.383  1.00  0.00    -0.264 C  
BRANCH  10  11
HETATM   11  N   UNL     1     -11.607  11.699  65.888  1.00  0.00    -0.320 NA 
HETATM   12  H   UNL     1     -12.429  11.508  65.315  1.00  0.00     0.000 HD 
BRANCH  11  13
HETATM   13  C   UNL     1     -11.712  12.146  67.220  1.00  0.00    -0.299 A  
HETATM   14  C   UNL     1     -11.753  13.505  67.485  1.00  0.00    -0.403 A  
HETATM   15  C   UNL     1     -11.900  13.846  68.809  1.00  0.00    -0.361 A  
HETATM   16  N   UNL     1     -11.829  11.228  68.212  1.00  0.00    -0.578 NA 
HETATM   17  C   UNL     1     -11.988  11.648  69.483  1.00  0.00    -0.317 A  
HETATM   18  N   UNL     1     -12.002  12.946  69.812  1.00  0.00    -0.315 NA 
BRANCH  14  19
HETATM   19  C   UNL     1     -11.623  14.593  66.489  1.00  0.00    -0.344 C  
HETATM   20  O   UNL     1     -12.145  14.466  65.388  1.00  0.00    -0.374 OA 
HETATM   21  N   UNL     1     -10.940  15.724  66.867  1.00  0.00    -0.263 N  
HETATM   22  H   UNL     1     -10.579  15.787  67.820  1.00  0.00     0.000 HD 
BRANCH  21  23
HETATM   23  C   UNL     1     -10.715  16.837  65.957  1.00  0.00    -0.138 C  
BRANCH  23  24
HETATM   24  C   UNL     1      -9.864  17.960  66.524  1.00  0.00    -0.343 A  
HETATM   25  N   UNL     1     -10.094  19.202  66.045  1.00  0.00    -0.483 NA 
HETATM   26  C   UNL     1      -9.370  20.204  66.579  1.00  0.00    -0.356 A  
HETATM   27  N   UNL     1      -8.942  17.672  67.471  1.00  0.00    -0.234 NA 
HETATM   28  C   UNL     1      -8.255  18.717  67.975  1.00  0.00    -0.291 A  
HETATM   29  C   UNL     1      -8.430  20.017  67.562  1.00  0.00    -0.393 A  
ENDBRANCH  23  24
ENDBRANCH  21  23
ENDBRANCH  14  19
BRANCH  17  30
HETATM   30  N   UNL     1     -12.136  10.727  70.483  1.00  0.00    -0.334 NA 
HETATM   31  C   UNL     1     -13.342   8.972  71.528  1.00  0.00    -0.394 C  
HETATM   32  C   UNL     1     -11.138   9.728  70.792  1.00  0.00    -0.345 C  
HETATM   33  C   UNL     1     -13.431  10.446  71.103  1.00  0.00    -0.086 C  
HETATM   34  C   UNL     1     -11.948   8.486  71.145  1.00  0.00    -0.306 C  
BRANCH  33  35
HETATM   35  C   UNL     1     -13.642  11.377  72.314  1.00  0.00     0.157 C  
HETATM   36  O   UNL     1     -13.830  12.735  71.905  1.00  0.00    -0.223 OA 
HETATM   37  H   UNL     1     -13.961  13.308  72.651  1.00  0.00     0.000 HD 
ENDBRANCH  33  35
ENDBRANCH  17  30
ENDBRANCH  11  13
ENDBRANCH  10  11
ENDBRANCH   7  10
ENDBRANCH   2   3
TORSDOF 9
ENDMDL
MODEL      103
REMARK 921   NORMALIZED FREE ENERGY PREDICTED BY IDOCK:   -5.78 KCAL/MOL
REMARK 922        TOTAL FREE ENERGY PREDICTED BY IDOCK:  -10.36 KCAL/MOL
REMARK 923 INTER-LIGAND FREE ENERGY PREDICTED BY IDOCK:   -8.30 KCAL/MOL
REMARK 924 INTRA-LIGAND FREE ENERGY PREDICTED BY IDOCK:   -2.05 KCAL/MOL
REMARK 927      BINDING AFFINITY PREDICTED BY RF-SCORE:    0.00 PKD
ROOT
HETATM    1  C   UNL     1      -9.726   5.212  73.372  1.00  0.00    -0.145 C  
HETATM    2  O   UNL     1     -10.937   5.442  72.665  1.00  0.00    -0.238 OA 
ENDROOT
BRANCH   2   3
HETATM    3  C   UNL     1     -11.085   6.664  72.064  1.00  0.00    -0.255 A  
HETATM    4  C   UNL     1     -10.949   6.713  70.668  1.00  0.00    -0.280 A  
HETATM    5 CL   UNL     1     -10.507   5.309  69.757  1.00  0.00    -0.370 Cl 
HETATM    6  C   UNL     1     -11.154   7.907  69.967  1.00  0.00    -0.165 A  
HETATM    7  C   UNL     1     -11.514   9.076  70.649  1.00  0.00    -0.291 A  
HETATM    8  C   UNL     1     -11.416   7.839  72.745  1.00  0.00    -0.415 A  
HETATM    9  C   UNL     1     -11.620   9.034  72.045  1.00  0.00    -0.413 A  
BRANCH   7  10
HETATM   10  C   UNL     1     -11.734  10.370  69.897  1.00  0.00    -0.264 C  
BRANCH  10  11
HETATM   11  N   UNL     1     -10.448  11.030  69.763  1.00  0.00    -0.450 NA 
HETATM   12  H   UNL     1      -9.824  11.168  70.558  1.00  0.00     0.000 HD 
BRANCH  11  13
HETATM   13  C   UNL     1     -10.114  11.467  68.466  1.00  0.00    -0.207 A  
HETATM   14  C   UNL     1      -9.207  10.742  67.711  1.00  0.00    -0.155 A  
HETATM   15  C   UNL     1      -8.976  11.220  66.442  1.00  0.00    -0.188 A  
HETATM   16  N   UNL     1     -10.736  12.563  67.963  1.00  0.00    -0.214 NA 
HETATM   17  C   UNL     1     -10.466  12.954  66.702  1.00  0.00    -0.263 A  
HETATM   18  N   UNL     1      -9.575  12.318  65.931  1.00  0.00    -0.229 NA 
BRANCH  14  19
HETATM   19  C   UNL     1      -8.460   9.544  68.157  1.00  0.00    -0.119 C  
HETATM   20  O   UNL     1      -7.941   9.538  69.267  1.00  0.00    -0.084 OA 
HETATM   21  N   UNL     1      -8.414   8.468  67.304  1.00  0.00    -0.122 N  
HETATM   22  H   UNL     1      -8.917   8.520  66.417  1.00  0.00     0.000 HD 
BRANCH  21  23
HETATM   23  C   UNL     1      -7.674   7.256  67.621  1.00  0.00    -0.112 C  
BRANCH  23  24
HETATM   24  C   UNL     1      -8.318   5.971  67.130  1.00  0.00    -0.105 A  
HETATM   25  N   UNL     1      -9.513   6.085  66.510  1.00  0.00    -0.154 NA 
HETATM   26  C   UNL     1     -10.063   4.951  66.036  1.00  0.00    -0.239 A  
HETATM   27  N   UNL     1      -7.672   4.797  67.321  1.00  0.00    -0.090 NA 
HETATM   28  C   UNL     1      -8.267   3.698  66.816  1.00  0.00    -0.096 A  
HETATM   29  C   UNL     1      -9.475   3.716  66.158  1.00  0.00    -0.171 A  
ENDBRANCH  23  24
ENDBRANCH  21  23
ENDBRANCH  14  19
BRANCH  17  30
HETATM   30  N   UNL     1     -11.113  14.040  66.180  1.00  0.00    -0.299 NA 
HETATM   31  C   UNL     1     -11.167  15.943  64.765  1.00  0.00    -0.364 C  
HETATM   32  C   UNL     1     -12.380  13.950  65.490  1.00  0.00    -0.480 C  
HETATM   33  C   UNL     1     -10.444  15.323  65.972  1.00  0.00    -0.317 C  
HETATM   34  C   UNL     1     -12.263  14.964  64.358  1.00  0.00    -0.399 C  
BRANCH  33  35
HETATM   35  C   UNL     1     -10.588  16.199  67.234  1.00  0.00    -0.305 C  
HETATM   36  O   UNL     1     -10.595  17.591  66.908  1.00  0.00    -0.305 OA 
HETATM   37  H   UNL     1     -10.684  18.130  67.684  1.00  0.00     0.000 HD 
ENDBRANCH  33  35
ENDBRANCH  17  30
ENDBRANCH  11  13
ENDBRANCH  10  11
ENDBRANCH   7  10
ENDBRANCH   2   3
TORSDOF 9
ENDMDL
MODEL      104
REMARK 921   NORMALIZED FREE ENERGY PREDICTED BY IDOCK:   -5.77 KCAL/MOL
REMARK 922        TOTAL FREE ENERGY PREDICTED BY IDOCK:  -10.34 KCAL/MOL
REMARK 923 INTER-LIGAND FREE ENERGY PREDICTED BY IDOCK:   -8.73 KCAL/MOL
REMARK 924 INTRA-LIGAND FREE ENERGY PREDICTED BY IDOCK:   -1.61 KCAL/MOL
REMARK 927      BINDING AFFINITY PREDICTED BY RF-SCORE:    0.00 PKD
ROOT
HETATM    1  C   UNL     1      -8.909   2.205  66.425  1.00  0.00    -0.119 C  
HETATM    2  O   UNL     1      -8.838   3.271  65.489  1.00  0.00    -0.124 OA 
ENDROOT
BRANCH   2   3
HETATM    3  C   UNL     1      -9.089   4.532  65.960  1.00  0.00    -0.130 A  
HETATM    4  C   UNL     1      -8.009   5.428  66.003  1.00  0.00    -0.105 A  
HETATM    5 CL   UNL     1      -6.407   4.928  65.580  1.00  0.00    -0.034 Cl 
HETATM    6  C   UNL     1      -8.192   6.756  66.404  1.00  0.00    -0.117 A  
HETATM    7  C   UNL     1      -9.466   7.221  66.758  1.00  0.00    -0.218 A  
HETATM    8  C   UNL     1     -10.354   4.990  66.341  1.00  0.00    -0.335 A  
HETATM    9  C   UNL     1     -10.537   6.319  66.744  1.00  0.00    -0.335 A  
BRANCH   7  10
HETATM   10  C   UNL     1      -9.670   8.654  67.195  1.00  0.00    -0.190 C  
BRANCH  10  11
HETATM   11  N   UNL     1     -10.964   8.739  67.848  1.00  0.00    -0.491 NA 
HETATM   12  H   UNL     1     -11.839   8.713  67.323  1.00  0.00     0.000 HD 
BRANCH  11  13
HETATM   13  C   UNL     1     -10.938   8.860  69.251  1.00  0.00    -0.006 A  
HETATM   14  C   UNL     1     -11.318  10.054  69.843  1.00  0.00    -0.306 A  
HETATM   15  C   UNL     1     -11.302  10.064  71.218  1.00  0.00    -0.263 A  
HETATM   16  N   UNL     1     -10.594   7.779  69.996  1.00  0.00    -0.235 NA 
HETATM   17  C   UNL     1     -10.623   7.869  71.340  1.00  0.00    -0.211 A  
HETATM   18  N   UNL     1     -10.947   9.003  71.976  1.00  0.00    -0.347 NA 
BRANCH  14  19
HETATM   19  C   UNL     1     -11.698  11.297  69.135  1.00  0.00    -0.341 C  
HETATM   20  O   UNL     1     -12.240  11.223  68.038  1.00  0.00    -0.621 OA 
HETATM   21  N   UNL     1     -11.453  12.492  69.768  1.00  0.00    -0.492 N  
HETATM   22  H   UNL     1     -11.050  12.479  70.706  1.00  0.00     0.000 HD 
BRANCH  21  23
HETATM   23  C   UNL     1     -11.746  13.775  69.148  1.00  0.00    -0.334 C  
BRANCH  23  24
HETATM   24  C   UNL     1     -10.665  14.292  68.215  1.00  0.00    -0.247 A  
HETATM   25  N   UNL     1     -10.872  15.503  67.652  1.00  0.00    -0.300 NA 
HETATM   26  C   UNL     1      -9.894  15.981  66.860  1.00  0.00    -0.245 A  
HETATM   27  N   UNL     1      -9.562  13.539  68.005  1.00  0.00    -0.214 NA 
HETATM   28  C   UNL     1      -8.613  14.074  67.211  1.00  0.00    -0.216 A  
HETATM   29  C   UNL     1      -8.728  15.304  66.605  1.00  0.00    -0.327 A  
ENDBRANCH  23  24
ENDBRANCH  21  23
ENDBRANCH  14  19
BRANCH  17  30
HETATM   30  N   UNL     1     -10.306   6.775  72.095  1.00  0.00    -0.198 NA 
HETATM   31  C   UNL     1     -10.524   5.482  74.072  1.00  0.00    -0.308 C  
HETATM   32  C   UNL     1     -10.477   5.416  71.630  1.00  0.00    -0.227 C  
HETATM   33  C   UNL     1     -10.089   6.856  73.539  1.00  0.00    -0.292 C  
HETATM   34  C   UNL     1     -10.949   4.655  72.864  1.00  0.00    -0.288 C  
BRANCH  33  35
HETATM   35  C   UNL     1      -8.600   7.134  73.828  1.00  0.00    -0.154 C  
HETATM   36  O   UNL     1      -8.301   8.531  73.743  1.00  0.00    -0.362 OA 
HETATM   37  H   UNL     1      -7.384   8.702  73.921  1.00  0.00     0.000 HD 
ENDBRANCH  33  35
ENDBRANCH  17  30
ENDBRANCH  11  13
ENDBRANCH  10  11
ENDBRANCH   7  10
ENDBRANCH   2   3
TORSDOF 9
ENDMDL
MODEL      105
REMARK 921   NORMALIZED FREE ENERGY PREDICTED BY IDOCK:   -5.74 KCAL/MOL
REMARK 922        TOTAL FREE ENERGY PREDICTED BY IDOCK:  -10.28 KCAL/MOL
REMARK 923 INTER-LIGAND FREE ENERGY PREDICTED BY IDOCK:   -9.41 KCAL/MOL
REMARK 924 INTRA-LIGAND FREE ENERGY PREDICTED BY IDOCK:   -0.88 KCAL/MOL
REMARK 927      BINDING AFFINITY PREDICTED BY RF-SCORE:    0.00 PKD
ROOT
HETATM    1  C   UNL     1      -7.651  15.980  68.162  1.00  0.00    -0.136 C  
HETATM    2  O   UNL     1      -7.760  15.084  67.065  1.00  0.00    -0.198 OA 
ENDROOT
BRANCH   2   3
HETATM    3  C   UNL     1      -8.400  13.894  67.293  1.00  0.00    -0.185 A  
HETATM    4  C   UNL     1      -9.668  13.726  66.715  1.00  0.00    -0.275 A  
HETATM    5 CL   UNL     1     -10.436  15.007  65.840  1.00  0.00    -0.318 Cl 
HETATM    6  C   UNL     1     -10.360  12.516  66.840  1.00  0.00    -0.242 A  
HETATM    7  C   UNL     1      -9.790  11.442  67.535  1.00  0.00    -0.194 A  
HETATM    8  C   UNL     1      -7.845  12.831  68.011  1.00  0.00    -0.150 A  
HETATM    9  C   UNL     1      -8.538  11.620  68.137  1.00  0.00    -0.158 A  
BRANCH   7  10
HETATM   10  C   UNL     1     -10.533  10.132  67.676  1.00  0.00    -0.245 C  
BRANCH  10  11
HETATM   11  N   UNL     1     -10.455   9.724  69.067  1.00  0.00    -0.205 NA 
HETATM   12  H   UNL     1      -9.788   9.023  69.390  1.00  0.00     0.000 HD 
BRANCH  11  13
HETATM   13  C   UNL     1     -11.357  10.358  69.945  1.00  0.00    -0.302 A  
HETATM   14  C   UNL     1     -12.005   9.611  70.916  1.00  0.00    -0.391 A  
HETATM   15  C   UNL     1     -12.832  10.322  71.753  1.00  0.00    -0.460 A  
HETATM   16  N   UNL     1     -11.526  11.700  69.854  1.00  0.00    -0.262 NA 
HETATM   17  C   UNL     1     -12.343  12.322  70.728  1.00  0.00    -0.290 A  
HETATM   18  N   UNL     1     -13.026  11.656  71.668  1.00  0.00    -0.427 NA 
BRANCH  14  19
HETATM   19  C   UNL     1     -11.908   8.146  71.100  1.00  0.00    -0.279 C  
HETATM   20  O   UNL     1     -11.471   7.452  70.189  1.00  0.00    -0.232 OA 
HETATM   21  N   UNL     1     -12.287   7.630  72.317  1.00  0.00    -0.489 N  
HETATM   22  H   UNL     1     -12.589   8.271  73.051  1.00  0.00     0.000 HD 
BRANCH  21  23
HETATM   23  C   UNL     1     -12.273   6.202  72.594  1.00  0.00     0.121 C  
BRANCH  23  24
HETATM   24  C   UNL     1     -11.009   5.697  73.265  1.00  0.00    -0.272 A  
HETATM   25  N   UNL     1     -10.259   6.610  73.922  1.00  0.00    -0.323 NA 
HETATM   26  C   UNL     1      -9.161   6.154  74.554  1.00  0.00    -0.166 A  
HETATM   27  N   UNL     1     -10.703   4.381  73.188  1.00  0.00    -0.204 NA 
HETATM   28  C   UNL     1      -9.598   3.983  73.849  1.00  0.00    -0.105 A  
HETATM   29  C   UNL     1      -8.781   4.835  74.555  1.00  0.00    -0.111 A  
ENDBRANCH  23  24
ENDBRANCH  21  23
ENDBRANCH  14  19
BRANCH  17  30
HETATM   30  N   UNL     1     -12.494  13.679  70.660  1.00  0.00    -0.354 NA 
HETATM   31  C   UNL     1     -11.898  15.872  71.342  1.00  0.00    -0.524 C  
HETATM   32  C   UNL     1     -12.374  14.428  69.429  1.00  0.00    -0.191 C  
HETATM   33  C   UNL     1     -12.455  14.531  71.848  1.00  0.00    -0.332 C  
HETATM   34  C   UNL     1     -11.673  15.717  69.841  1.00  0.00    -0.365 C  
BRANCH  33  35
HETATM   35  C   UNL     1     -13.876  14.686  72.427  1.00  0.00    -0.475 C  
HETATM   36  O   UNL     1     -13.980  15.848  73.255  1.00  0.00    -0.666 OA 
HETATM   37  H   UNL     1     -14.855  15.944  73.612  1.00  0.00     0.000 HD 
ENDBRANCH  33  35
ENDBRANCH  17  30
ENDBRANCH  11  13
ENDBRANCH  10  11
ENDBRANCH   7  10
ENDBRANCH   2   3
TORSDOF 9
ENDMDL
MODEL      106
REMARK 921   NORMALIZED FREE ENERGY PREDICTED BY IDOCK:   -5.73 KCAL/MOL
REMARK 922        TOTAL FREE ENERGY PREDICTED BY IDOCK:  -10.27 KCAL/MOL
REMARK 923 INTER-LIGAND FREE ENERGY PREDICTED BY IDOCK:   -8.61 KCAL/MOL
REMARK 924 INTRA-LIGAND FREE ENERGY PREDICTED BY IDOCK:   -1.66 KCAL/MOL
REMARK 927      BINDING AFFINITY PREDICTED BY RF-SCORE:    0.00 PKD
ROOT
HETATM    1  C   UNL     1     -13.774  15.283  71.003  1.00  0.00    -0.380 C  
HETATM    2  O   UNL     1     -12.425  14.848  71.095  1.00  0.00    -0.286 OA 
ENDROOT
BRANCH   2   3
HETATM    3  C   UNL     1     -12.082  13.727  70.385  1.00  0.00    -0.350 A  
HETATM    4  C   UNL     1     -12.565  12.496  70.857  1.00  0.00    -0.241 A  
HETATM    5 CL   UNL     1     -13.465  12.388  72.331  1.00  0.00    -0.491 Cl 
HETATM    6  C   UNL     1     -12.320  11.311  70.154  1.00  0.00    -0.354 A  
HETATM    7  C   UNL     1     -11.598  11.335  68.954  1.00  0.00    -0.386 A  
HETATM    8  C   UNL     1     -11.337  13.745  69.203  1.00  0.00    -0.329 A  
HETATM    9  C   UNL     1     -11.091  12.559  68.500  1.00  0.00    -0.297 A  
BRANCH   7  10
HETATM   10  C   UNL     1     -11.328  10.057  68.191  1.00  0.00    -0.028 C  
BRANCH  10  11
HETATM   11  N   UNL     1      -9.891   9.855  68.158  1.00  0.00    -0.144 NA 
HETATM   12  H   UNL     1      -9.244  10.480  68.639  1.00  0.00     0.000 HD 
BRANCH  11  13
HETATM   13  C   UNL     1      -9.444   8.741  67.421  1.00  0.00    -0.146 A  
HETATM   14  C   UNL     1      -9.081   8.900  66.093  1.00  0.00    -0.251 A  
HETATM   15  C   UNL     1      -8.616   7.767  65.467  1.00  0.00    -0.105 A  
HETATM   16  N   UNL     1      -9.326   7.544  68.048  1.00  0.00    -0.139 NA 
HETATM   17  C   UNL     1      -8.844   6.486  67.365  1.00  0.00    -0.115 A  
HETATM   18  N   UNL     1      -8.507   6.563  66.071  1.00  0.00    -0.139 NA 
BRANCH  14  19
HETATM   19  C   UNL     1      -9.179  10.149  65.304  1.00  0.00    -0.209 C  
HETATM   20  O   UNL     1      -8.433  11.085  65.566  1.00  0.00    -0.159 OA 
HETATM   21  N   UNL     1     -10.092  10.184  64.278  1.00  0.00    -0.449 N  
HETATM   22  H   UNL     1     -10.642   9.348  64.078  1.00  0.00     0.000 HD 
BRANCH  21  23
HETATM   23  C   UNL     1     -10.303  11.373  63.466  1.00  0.00    -0.423 C  
BRANCH  23  24
HETATM   24  C   UNL     1     -10.905  12.552  64.210  1.00  0.00    -0.364 A  
HETATM   25  N   UNL     1     -12.166  12.403  64.672  1.00  0.00    -0.431 NA 
HETATM   26  C   UNL     1     -12.684  13.432  65.370  1.00  0.00    -0.426 A  
HETATM   27  N   UNL     1     -10.163  13.670  64.383  1.00  0.00    -0.313 NA 
HETATM   28  C   UNL     1     -10.731  14.662  65.097  1.00  0.00    -0.414 A  
HETATM   29  C   UNL     1     -12.002  14.597  65.619  1.00  0.00    -0.243 A  
ENDBRANCH  23  24
ENDBRANCH  21  23
ENDBRANCH  14  19
BRANCH  17  30
HETATM   30  N   UNL     1      -8.695   5.286  68.001  1.00  0.00    -0.103 NA 
HETATM   31  C   UNL     1      -9.514   3.572  69.422  1.00  0.00    -0.234 C  
HETATM   32  C   UNL     1      -8.392   4.055  67.306  1.00  0.00    -0.099 C  
HETATM   33  C   UNL     1      -9.150   5.065  69.373  1.00  0.00    -0.103 C  
HETATM   34  C   UNL     1      -9.207   2.998  68.043  1.00  0.00    -0.248 C  
BRANCH  33  35
HETATM   35  C   UNL     1      -8.017   5.408  70.362  1.00  0.00    -0.100 C  
HETATM   36  O   UNL     1      -8.152   6.738  70.871  1.00  0.00    -0.114 OA 
HETATM   37  H   UNL     1      -7.454   6.950  71.480  1.00  0.00     0.000 HD 
ENDBRANCH  33  35
ENDBRANCH  17  30
ENDBRANCH  11  13
ENDBRANCH  10  11
ENDBRANCH   7  10
ENDBRANCH   2   3
TORSDOF 9
ENDMDL
MODEL      107
REMARK 921   NORMALIZED FREE ENERGY PREDICTED BY IDOCK:   -5.72 KCAL/MOL
REMARK 922        TOTAL FREE ENERGY PREDICTED BY IDOCK:  -10.26 KCAL/MOL
REMARK 923 INTER-LIGAND FREE ENERGY PREDICTED BY IDOCK:   -8.44 KCAL/MOL
REMARK 924 INTRA-LIGAND FREE ENERGY PREDICTED BY IDOCK:   -1.82 KCAL/MOL
REMARK 927      BINDING AFFINITY PREDICTED BY RF-SCORE:    0.00 PKD
ROOT
HETATM    1  C   UNL     1      -7.558   8.249  62.361  1.00  0.00    -0.114 C  
HETATM    2  O   UNL     1      -7.289   8.831  63.629  1.00  0.00    -0.098 OA 
ENDROOT
BRANCH   2   3
HETATM    3  C   UNL     1      -8.102   8.462  64.668  1.00  0.00    -0.156 A  
HETATM    4  C   UNL     1      -9.026   9.413  65.129  1.00  0.00    -0.212 A  
HETATM    5 CL   UNL     1      -9.063  11.018  64.483  1.00  0.00    -0.169 Cl 
HETATM    6  C   UNL     1      -9.941   9.096  66.139  1.00  0.00    -0.338 A  
HETATM    7  C   UNL     1      -9.960   7.812  66.701  1.00  0.00    -0.299 A  
HETATM    8  C   UNL     1      -8.104   7.191  65.250  1.00  0.00    -0.134 A  
HETATM    9  C   UNL     1      -9.018   6.873  66.262  1.00  0.00    -0.172 A  
BRANCH   7  10
HETATM   10  C   UNL     1     -10.945   7.464  67.795  1.00  0.00    -0.029 C  
BRANCH  10  11
HETATM   11  N   UNL     1     -10.958   8.561  68.746  1.00  0.00    -0.433 NA 
HETATM   12  H   UNL     1     -11.074   9.531  68.452  1.00  0.00     0.000 HD 
BRANCH  11  13
HETATM   13  C   UNL     1     -10.802   8.203  70.099  1.00  0.00    -0.241 A  
HETATM   14  C   UNL     1     -11.309   9.030  71.089  1.00  0.00    -0.375 A  
HETATM   15  C   UNL     1     -11.147   8.578  72.377  1.00  0.00    -0.327 A  
HETATM   16  N   UNL     1     -10.205   7.023  70.400  1.00  0.00    -0.195 NA 
HETATM   17  C   UNL     1     -10.104   6.645  71.690  1.00  0.00    -0.184 A  
HETATM   18  N   UNL     1     -10.542   7.413  72.697  1.00  0.00    -0.249 NA 
BRANCH  14  19
HETATM   19  C   UNL     1     -11.964  10.341  70.881  1.00  0.00    -0.375 C  
HETATM   20  O   UNL     1     -13.073  10.542  71.362  1.00  0.00    -0.389 OA 
HETATM   21  N   UNL     1     -11.271  11.295  70.176  1.00  0.00    -0.490 N  
HETATM   22  H   UNL     1     -10.327  11.080  69.852  1.00  0.00     0.000 HD 
BRANCH  21  23
HETATM   23  C   UNL     1     -11.835  12.603  69.875  1.00  0.00    -0.294 C  
BRANCH  23  24
HETATM   24  C   UNL     1     -11.791  12.992  68.408  1.00  0.00    -0.334 A  
HETATM   25  N   UNL     1     -11.754  11.984  67.509  1.00  0.00    -0.517 NA 
HETATM   26  C   UNL     1     -11.759  12.329  66.208  1.00  0.00    -0.366 A  
HETATM   27  N   UNL     1     -11.802  14.303  68.075  1.00  0.00    -0.347 NA 
HETATM   28  C   UNL     1     -11.816  14.586  66.757  1.00  0.00    -0.371 A  
HETATM   29  C   UNL     1     -11.794  13.629  65.770  1.00  0.00    -0.397 A  
ENDBRANCH  23  24
ENDBRANCH  21  23
ENDBRANCH  14  19
BRANCH  17  30
HETATM   30  N   UNL     1      -9.531   5.443  71.997  1.00  0.00    -0.147 NA 
HETATM   31  C   UNL     1      -8.588   3.931  73.564  1.00  0.00    -0.091 C  
HETATM   32  C   UNL     1     -10.153   4.172  71.702  1.00  0.00    -0.128 C  
HETATM   33  C   UNL     1      -8.416   5.325  72.937  1.00  0.00    -0.116 C  
HETATM   34  C   UNL     1      -9.809   3.299  72.904  1.00  0.00    -0.195 C  
BRANCH  33  35
HETATM   35  C   UNL     1      -7.079   5.448  72.180  1.00  0.00    -0.086 C  
HETATM   36  O   UNL     1      -7.218   6.241  70.997  1.00  0.00    -0.071 OA 
HETATM   37  H   UNL     1      -6.394   6.317  70.530  1.00  0.00     0.000 HD 
ENDBRANCH  33  35
ENDBRANCH  17  30
ENDBRANCH  11  13
ENDBRANCH  10  11
ENDBRANCH   7  10
ENDBRANCH   2   3
TORSDOF 9
ENDMDL
MODEL      108
REMARK 921   NORMALIZED FREE ENERGY PREDICTED BY IDOCK:   -5.71 KCAL/MOL
REMARK 922        TOTAL FREE ENERGY PREDICTED BY IDOCK:  -10.24 KCAL/MOL
REMARK 923 INTER-LIGAND FREE ENERGY PREDICTED BY IDOCK:   -9.04 KCAL/MOL
REMARK 924 INTRA-LIGAND FREE ENERGY PREDICTED BY IDOCK:   -1.21 KCAL/MOL
REMARK 927      BINDING AFFINITY PREDICTED BY RF-SCORE:    0.00 PKD
ROOT
HETATM    1  C   UNL     1     -10.541  19.368  67.245  1.00  0.00    -0.486 C  
HETATM    2  O   UNL     1     -10.227  18.750  68.485  1.00  0.00    -0.377 OA 
ENDROOT
BRANCH   2   3
HETATM    3  C   UNL     1      -9.386  17.668  68.446  1.00  0.00    -0.289 A  
HETATM    4  C   UNL     1      -9.770  16.531  69.174  1.00  0.00    -0.241 A  
HETATM    5 CL   UNL     1     -11.190  16.533  70.164  1.00  0.00    -0.266 Cl 
HETATM    6  C   UNL     1      -9.005  15.360  69.134  1.00  0.00    -0.245 A  
HETATM    7  C   UNL     1      -7.846  15.297  68.350  1.00  0.00    -0.122 A  
HETATM    8  C   UNL     1      -8.213  17.613  67.688  1.00  0.00    -0.225 A  
HETATM    9  C   UNL     1      -7.447  16.441  67.648  1.00  0.00    -0.153 A  
BRANCH   7  10
HETATM   10  C   UNL     1      -7.014  14.035  68.304  1.00  0.00    -0.107 C  
BRANCH  10  11
HETATM   11  N   UNL     1      -7.751  12.991  68.994  1.00  0.00    -0.326 NA 
HETATM   12  H   UNL     1      -7.732  12.895  70.009  1.00  0.00     0.000 HD 
BRANCH  11  13
HETATM   13  C   UNL     1      -8.496  12.120  68.175  1.00  0.00    -0.175 A  
HETATM   14  C   UNL     1      -8.696  10.809  68.574  1.00  0.00    -0.149 A  
HETATM   15  C   UNL     1      -9.471  10.046  67.732  1.00  0.00    -0.140 A  
HETATM   16  N   UNL     1      -9.050  12.606  67.036  1.00  0.00    -0.209 NA 
HETATM   17  C   UNL     1      -9.813  11.794  66.276  1.00  0.00    -0.221 A  
HETATM   18  N   UNL     1     -10.018  10.507  66.586  1.00  0.00    -0.203 NA 
BRANCH  14  19
HETATM   19  C   UNL     1      -8.133  10.168  69.784  1.00  0.00    -0.154 C  
HETATM   20  O   UNL     1      -7.072  10.577  70.242  1.00  0.00    -0.228 OA 
HETATM   21  N   UNL     1      -8.856   9.154  70.363  1.00  0.00    -0.200 N  
HETATM   22  H   UNL     1      -9.760   8.902  69.962  1.00  0.00     0.000 HD 
BRANCH  21  23
HETATM   23  C   UNL     1      -8.378   8.426  71.529  1.00  0.00    -0.154 C  
BRANCH  23  24
HETATM   24  C   UNL     1      -9.355   7.406  72.086  1.00  0.00    -0.135 A  
HETATM   25  N   UNL     1      -9.666   7.510  73.397  1.00  0.00    -0.267 NA 
HETATM   26  C   UNL     1     -10.567   6.633  73.880  1.00  0.00    -0.242 A  
HETATM   27  N   UNL     1      -9.868   6.466  71.259  1.00  0.00    -0.181 NA 
HETATM   28  C   UNL     1     -10.771   5.622  71.798  1.00  0.00    -0.244 A  
HETATM   29  C   UNL     1     -11.161   5.660  73.116  1.00  0.00    -0.315 A  
ENDBRANCH  23  24
ENDBRANCH  21  23
ENDBRANCH  14  19
BRANCH  17  30
HETATM   30  N   UNL     1     -10.398  12.286  65.143  1.00  0.00    -0.280 NA 
HETATM   31  C   UNL     1     -12.111  12.241  63.502  1.00  0.00    -0.649 C  
HETATM   32  C   UNL     1     -10.806  13.666  64.999  1.00  0.00    -0.352 C  
HETATM   33  C   UNL     1     -10.967  11.416  64.115  1.00  0.00    -0.341 C  
HETATM   34  C   UNL     1     -12.111  13.590  64.213  1.00  0.00    -0.482 C  
BRANCH  33  35
HETATM   35  C   UNL     1      -9.889  11.070  63.067  1.00  0.00    -0.337 C  
HETATM   36  O   UNL     1      -9.595   9.670  63.061  1.00  0.00    -0.541 OA 
HETATM   37  H   UNL     1      -8.931   9.457  62.416  1.00  0.00     0.000 HD 
ENDBRANCH  33  35
ENDBRANCH  17  30
ENDBRANCH  11  13
ENDBRANCH  10  11
ENDBRANCH   7  10
ENDBRANCH   2   3
TORSDOF 9
ENDMDL
MODEL      109
REMARK 921   NORMALIZED FREE ENERGY PREDICTED BY IDOCK:   -5.71 KCAL/MOL
REMARK 922        TOTAL FREE ENERGY PREDICTED BY IDOCK:  -10.24 KCAL/MOL
REMARK 923 INTER-LIGAND FREE ENERGY PREDICTED BY IDOCK:   -9.64 KCAL/MOL
REMARK 924 INTRA-LIGAND FREE ENERGY PREDICTED BY IDOCK:   -0.60 KCAL/MOL
REMARK 927      BINDING AFFINITY PREDICTED BY RF-SCORE:    0.00 PKD
ROOT
HETATM    1  C   UNL     1     -13.505   9.609  71.952  1.00  0.00    -0.413 C  
HETATM    2  O   UNL     1     -13.510  11.014  72.162  1.00  0.00    -0.377 OA 
ENDROOT
BRANCH   2   3
HETATM    3  C   UNL     1     -12.833  11.783  71.252  1.00  0.00    -0.308 A  
HETATM    4  C   UNL     1     -12.796  13.167  71.483  1.00  0.00    -0.307 A  
HETATM    5 CL   UNL     1     -13.658  13.883  72.802  1.00  0.00    -0.591 Cl 
HETATM    6  C   UNL     1     -12.069  14.017  70.642  1.00  0.00    -0.424 A  
HETATM    7  C   UNL     1     -11.350  13.496  69.558  1.00  0.00    -0.265 A  
HETATM    8  C   UNL     1     -12.139  11.269  70.153  1.00  0.00    -0.448 A  
HETATM    9  C   UNL     1     -11.412  12.119  69.311  1.00  0.00    -0.363 A  
BRANCH   7  10
HETATM   10  C   UNL     1     -10.564  14.410  68.644  1.00  0.00    -0.252 C  
BRANCH  10  11
HETATM   11  N   UNL     1     -10.374  13.718  67.381  1.00  0.00    -0.251 NA 
HETATM   12  H   UNL     1     -10.985  13.875  66.580  1.00  0.00     0.000 HD 
BRANCH  11  13
HETATM   13  C   UNL     1      -9.294  12.814  67.332  1.00  0.00    -0.193 A  
HETATM   14  C   UNL     1      -7.997  13.293  67.418  1.00  0.00    -0.175 A  
HETATM   15  C   UNL     1      -7.011  12.335  67.405  1.00  0.00    -0.151 A  
HETATM   16  N   UNL     1      -9.554  11.485  67.258  1.00  0.00    -0.172 NA 
HETATM   17  C   UNL     1      -8.528  10.611  67.269  1.00  0.00    -0.126 A  
HETATM   18  N   UNL     1      -7.250  11.008  67.316  1.00  0.00    -0.096 NA 
BRANCH  14  19
HETATM   19  C   UNL     1      -7.594  14.716  67.489  1.00  0.00    -0.194 C  
HETATM   20  O   UNL     1      -6.954  15.112  68.456  1.00  0.00    -0.100 OA 
HETATM   21  N   UNL     1      -7.934  15.528  66.433  1.00  0.00    -0.265 N  
HETATM   22  H   UNL     1      -8.418  15.119  65.633  1.00  0.00     0.000 HD 
BRANCH  21  23
HETATM   23  C   UNL     1      -7.627  16.950  66.416  1.00  0.00    -0.304 C  
BRANCH  23  24
HETATM   24  C   UNL     1      -8.734  17.846  66.943  1.00  0.00    -0.246 A  
HETATM   25  N   UNL     1      -8.692  18.161  68.257  1.00  0.00    -0.278 NA 
HETATM   26  C   UNL     1      -9.648  18.991  68.714  1.00  0.00    -0.396 A  
HETATM   27  N   UNL     1      -9.686  18.287  66.089  1.00  0.00    -0.507 NA 
HETATM   28  C   UNL     1     -10.611  19.122  66.603  1.00  0.00    -0.432 A  
HETATM   29  C   UNL     1     -10.641  19.511  67.922  1.00  0.00    -0.503 A  
ENDBRANCH  23  24
ENDBRANCH  21  23
ENDBRANCH  14  19
BRANCH  17  30
HETATM   30  N   UNL     1      -8.786   9.269  67.225  1.00  0.00    -0.127 NA 
HETATM   31  C   UNL     1     -10.222   7.445  66.737  1.00  0.00    -0.313 C  
HETATM   32  C   UNL     1      -7.954   8.327  66.512  1.00  0.00    -0.100 C  
HETATM   33  C   UNL     1     -10.084   8.709  67.601  1.00  0.00    -0.213 C  
HETATM   34  C   UNL     1      -8.943   7.332  65.914  1.00  0.00    -0.103 C  
BRANCH  33  35
HETATM   35  C   UNL     1     -10.093   8.374  69.106  1.00  0.00    -0.203 C  
HETATM   36  O   UNL     1     -11.248   7.612  69.466  1.00  0.00    -0.447 OA 
HETATM   37  H   UNL     1     -11.254   7.405  70.393  1.00  0.00     0.000 HD 
ENDBRANCH  33  35
ENDBRANCH  17  30
ENDBRANCH  11  13
ENDBRANCH  10  11
ENDBRANCH   7  10
ENDBRANCH   2   3
TORSDOF 9
ENDMDL
MODEL      110
REMARK 921   NORMALIZED FREE ENERGY PREDICTED BY IDOCK:   -5.69 KCAL/MOL
REMARK 922        TOTAL FREE ENERGY PREDICTED BY IDOCK:  -10.21 KCAL/MOL
REMARK 923 INTER-LIGAND FREE ENERGY PREDICTED BY IDOCK:   -8.28 KCAL/MOL
REMARK 924 INTRA-LIGAND FREE ENERGY PREDICTED BY IDOCK:   -1.93 KCAL/MOL
REMARK 927      BINDING AFFINITY PREDICTED BY RF-SCORE:    0.00 PKD
ROOT
HETATM    1  C   UNL     1     -10.802  17.944  68.393  1.00  0.00    -0.029 C  
HETATM    2  O   UNL     1     -10.582  17.169  67.223  1.00  0.00    -0.325 OA 
ENDROOT
BRANCH   2   3
HETATM    3  C   UNL     1     -10.123  15.890  67.400  1.00  0.00    -0.252 A  
HETATM    4  C   UNL     1     -10.394  14.965  66.380  1.00  0.00    -0.286 A  
HETATM    5 CL   UNL     1     -11.359  15.393  65.008  1.00  0.00    -0.358 Cl 
HETATM    6  C   UNL     1      -9.904  13.656  66.448  1.00  0.00    -0.302 A  
HETATM    7  C   UNL     1      -9.116  13.249  67.533  1.00  0.00    -0.208 A  
HETATM    8  C   UNL     1      -9.362  15.474  68.496  1.00  0.00    -0.197 A  
HETATM    9  C   UNL     1      -8.871  14.165  68.565  1.00  0.00    -0.173 A  
BRANCH   7  10
HETATM   10  C   UNL     1      -8.584  11.836  67.613  1.00  0.00    -0.153 C  
BRANCH  10  11
HETATM   11  N   UNL     1      -9.718  10.944  67.783  1.00  0.00    -0.166 NA 
HETATM   12  H   UNL     1     -10.496  10.924  67.124  1.00  0.00     0.000 HD 
BRANCH  11  13
HETATM   13  C   UNL     1      -9.677  10.108  68.917  1.00  0.00    -0.187 A  
HETATM   14  C   UNL     1     -10.685  10.190  69.864  1.00  0.00    -0.340 A  
HETATM   15  C   UNL     1     -10.584   9.306  70.912  1.00  0.00    -0.296 A  
HETATM   16  N   UNL     1      -8.676   9.200  69.025  1.00  0.00    -0.133 NA 
HETATM   17  C   UNL     1      -8.662   8.357  70.077  1.00  0.00    -0.133 A  
HETATM   18  N   UNL     1      -9.586   8.404  71.045  1.00  0.00    -0.160 NA 
BRANCH  14  19
HETATM   19  C   UNL     1     -11.816  11.146  69.857  1.00  0.00    -0.363 C  
HETATM   20  O   UNL     1     -12.377  11.405  68.799  1.00  0.00    -0.480 OA 
HETATM   21  N   UNL     1     -12.208  11.678  71.062  1.00  0.00    -0.314 N  
HETATM   22  H   UNL     1     -11.732  11.374  71.912  1.00  0.00     0.000 HD 
BRANCH  21  23
HETATM   23  C   UNL     1     -13.277  12.658  71.167  1.00  0.00     0.073 C  
BRANCH  23  24
HETATM   24  C   UNL     1     -12.859  13.995  71.754  1.00  0.00    -0.340 A  
HETATM   25  N   UNL     1     -13.309  14.286  72.994  1.00  0.00    -0.644 NA 
HETATM   26  C   UNL     1     -12.902  15.451  73.532  1.00  0.00    -0.552 A  
HETATM   27  N   UNL     1     -12.060  14.811  71.028  1.00  0.00    -0.309 NA 
HETATM   28  C   UNL     1     -11.678  15.959  71.622  1.00  0.00    -0.485 A  
HETATM   29  C   UNL     1     -12.073  16.334  72.885  1.00  0.00    -0.625 A  
ENDBRANCH  23  24
ENDBRANCH  21  23
ENDBRANCH  14  19
BRANCH  17  30
HETATM   30  N   UNL     1      -7.672   7.419  70.176  1.00  0.00    -0.089 NA 
HETATM   31  C   UNL     1      -6.900   5.185  69.977  1.00  0.00    -0.052 C  
HETATM   32  C   UNL     1      -6.409   7.527  69.480  1.00  0.00    -0.032 C  
HETATM   33  C   UNL     1      -7.914   6.079  70.709  1.00  0.00    -0.114 C  
HETATM   34  C   UNL     1      -6.090   6.096  69.061  1.00  0.00    -0.029 C  
BRANCH  33  35
HETATM   35  C   UNL     1      -7.681   6.074  72.234  1.00  0.00    -0.101 C  
HETATM   36  O   UNL     1      -8.912   5.956  72.952  1.00  0.00    -0.124 OA 
HETATM   37  H   UNL     1      -8.769   5.953  73.891  1.00  0.00     0.000 HD 
ENDBRANCH  33  35
ENDBRANCH  17  30
ENDBRANCH  11  13
ENDBRANCH  10  11
ENDBRANCH   7  10
ENDBRANCH   2   3
TORSDOF 9
ENDMDL
MODEL      111
REMARK 921   NORMALIZED FREE ENERGY PREDICTED BY IDOCK:   -5.68 KCAL/MOL
REMARK 922        TOTAL FREE ENERGY PREDICTED BY IDOCK:  -10.20 KCAL/MOL
REMARK 923 INTER-LIGAND FREE ENERGY PREDICTED BY IDOCK:   -8.23 KCAL/MOL
REMARK 924 INTRA-LIGAND FREE ENERGY PREDICTED BY IDOCK:   -1.97 KCAL/MOL
REMARK 927      BINDING AFFINITY PREDICTED BY RF-SCORE:    0.00 PKD
ROOT
HETATM    1  C   UNL     1     -13.937   8.929  71.858  1.00  0.00    -0.419 C  
HETATM    2  O   UNL     1     -12.839   9.758  72.211  1.00  0.00    -0.370 OA 
ENDROOT
BRANCH   2   3
HETATM    3  C   UNL     1     -11.619   9.436  71.678  1.00  0.00    -0.396 A  
HETATM    4  C   UNL     1     -11.189  10.176  70.565  1.00  0.00    -0.336 A  
HETATM    5 CL   UNL     1     -12.204  11.372  69.833  1.00  0.00    -0.358 Cl 
HETATM    6  C   UNL     1      -9.926   9.960  70.002  1.00  0.00    -0.302 A  
HETATM    7  C   UNL     1      -9.059   9.007  70.551  1.00  0.00    -0.259 A  
HETATM    8  C   UNL     1     -10.763   8.465  72.206  1.00  0.00    -0.417 A  
HETATM    9  C   UNL     1      -9.500   8.248  71.642  1.00  0.00    -0.258 A  
BRANCH   7  10
HETATM   10  C   UNL     1      -7.694   8.767  69.945  1.00  0.00    -0.081 C  
BRANCH  10  11
HETATM   11  N   UNL     1      -7.802   8.972  68.512  1.00  0.00    -0.101 NA 
HETATM   12  H   UNL     1      -7.633   9.881  68.080  1.00  0.00     0.000 HD 
BRANCH  11  13
HETATM   13  C   UNL     1      -8.156   7.839  67.754  1.00  0.00    -0.125 A  
HETATM   14  C   UNL     1      -8.480   7.985  66.414  1.00  0.00    -0.138 A  
HETATM   15  C   UNL     1      -8.769   6.819  65.745  1.00  0.00    -0.110 A  
HETATM   16  N   UNL     1      -8.115   6.617  68.343  1.00  0.00    -0.114 NA 
HETATM   17  C   UNL     1      -8.395   5.522  67.609  1.00  0.00    -0.100 A  
HETATM   18  N   UNL     1      -8.749   5.595  66.319  1.00  0.00    -0.126 NA 
BRANCH  14  19
HETATM   19  C   UNL     1      -8.569   9.262  65.671  1.00  0.00    -0.153 C  
HETATM   20  O   UNL     1      -7.635  10.054  65.723  1.00  0.00    -0.109 OA 
HETATM   21  N   UNL     1      -9.698   9.485  64.921  1.00  0.00    -0.438 N  
HETATM   22  H   UNL     1     -10.413   8.757  64.877  1.00  0.00     0.000 HD 
BRANCH  21  23
HETATM   23  C   UNL     1      -9.911  10.723  64.185  1.00  0.00    -0.343 C  
BRANCH  23  24
HETATM   24  C   UNL     1     -10.702  11.780  64.936  1.00  0.00    -0.295 A  
HETATM   25  N   UNL     1     -11.890  12.144  64.406  1.00  0.00    -0.365 NA 
HETATM   26  C   UNL     1     -12.611  13.049  65.095  1.00  0.00    -0.469 A  
HETATM   27  N   UNL     1     -10.196  12.288  66.083  1.00  0.00    -0.234 NA 
HETATM   28  C   UNL     1     -10.968  13.183  66.733  1.00  0.00    -0.279 A  
HETATM   29  C   UNL     1     -12.196  13.605  66.280  1.00  0.00    -0.484 A  
ENDBRANCH  23  24
ENDBRANCH  21  23
ENDBRANCH  14  19
BRANCH  17  30
HETATM   30  N   UNL     1      -8.326   4.287  68.190  1.00  0.00    -0.093 NA 
HETATM   31  C   UNL     1      -9.188   2.104  68.537  1.00  0.00    -0.233 C  
HETATM   32  C   UNL     1      -7.181   3.414  68.060  1.00  0.00    -0.051 C  
HETATM   33  C   UNL     1      -9.509   3.598  68.706  1.00  0.00    -0.144 C  
HETATM   34  C   UNL     1      -7.785   2.018  67.946  1.00  0.00    -0.058 C  
BRANCH  33  35
HETATM   35  C   UNL     1      -9.726   3.970  70.187  1.00  0.00    -0.195 C  
HETATM   36  O   UNL     1     -10.528   5.147  70.319  1.00  0.00    -0.275 OA 
HETATM   37  H   UNL     1     -10.662   5.377  71.231  1.00  0.00     0.000 HD 
ENDBRANCH  33  35
ENDBRANCH  17  30
ENDBRANCH  11  13
ENDBRANCH  10  11
ENDBRANCH   7  10
ENDBRANCH   2   3
TORSDOF 9
ENDMDL
MODEL      112
REMARK 921   NORMALIZED FREE ENERGY PREDICTED BY IDOCK:   -5.67 KCAL/MOL
REMARK 922        TOTAL FREE ENERGY PREDICTED BY IDOCK:  -10.19 KCAL/MOL
REMARK 923 INTER-LIGAND FREE ENERGY PREDICTED BY IDOCK:   -8.63 KCAL/MOL
REMARK 924 INTRA-LIGAND FREE ENERGY PREDICTED BY IDOCK:   -1.55 KCAL/MOL
REMARK 927      BINDING AFFINITY PREDICTED BY RF-SCORE:    0.00 PKD
ROOT
HETATM    1  C   UNL     1     -10.224   6.332  74.566  1.00  0.00    -0.300 C  
HETATM    2  O   UNL     1     -10.737   6.138  73.256  1.00  0.00    -0.242 OA 
ENDROOT
BRANCH   2   3
HETATM    3  C   UNL     1     -10.622   7.185  72.380  1.00  0.00    -0.226 A  
HETATM    4  C   UNL     1     -11.786   7.590  71.707  1.00  0.00    -0.284 A  
HETATM    5 CL   UNL     1     -13.278   6.733  71.895  1.00  0.00    -0.268 Cl 
HETATM    6  C   UNL     1     -11.772   8.695  70.848  1.00  0.00    -0.287 A  
HETATM    7  C   UNL     1     -10.595   9.429  70.656  1.00  0.00    -0.354 A  
HETATM    8  C   UNL     1      -9.442   7.902  72.164  1.00  0.00    -0.234 A  
HETATM    9  C   UNL     1      -9.427   9.007  71.304  1.00  0.00    -0.339 A  
BRANCH   7  10
HETATM   10  C   UNL     1     -10.573  10.623  69.727  1.00  0.00    -0.184 C  
BRANCH  10  11
HETATM   11  N   UNL     1      -9.317  10.595  68.999  1.00  0.00    -0.225 NA 
HETATM   12  H   UNL     1      -8.483  11.075  69.337  1.00  0.00     0.000 HD 
BRANCH  11  13
HETATM   13  C   UNL     1      -9.322   9.864  67.794  1.00  0.00    -0.140 A  
HETATM   14  C   UNL     1      -9.663  10.499  66.610  1.00  0.00    -0.232 A  
HETATM   15  C   UNL     1      -9.597   9.718  65.480  1.00  0.00    -0.282 A  
HETATM   16  N   UNL     1      -8.937   8.564  67.814  1.00  0.00    -0.136 NA 
HETATM   17  C   UNL     1      -8.883   7.874  66.658  1.00  0.00    -0.146 A  
HETATM   18  N   UNL     1      -9.231   8.417  65.483  1.00  0.00    -0.064 NA 
BRANCH  14  19
HETATM   19  C   UNL     1     -10.109  11.903  66.469  1.00  0.00    -0.203 C  
HETATM   20  O   UNL     1      -9.277  12.802  66.471  1.00  0.00    -0.233 OA 
HETATM   21  N   UNL     1     -11.455  12.130  66.305  1.00  0.00    -0.365 N  
HETATM   22  H   UNL     1     -12.087  11.331  66.256  1.00  0.00     0.000 HD 
BRANCH  21  23
HETATM   23  C   UNL     1     -12.010  13.472  66.200  1.00  0.00    -0.412 C  
BRANCH  23  24
HETATM   24  C   UNL     1     -11.830  14.333  67.438  1.00  0.00    -0.409 A  
HETATM   25  N   UNL     1     -11.281  15.554  67.258  1.00  0.00    -0.276 NA 
HETATM   26  C   UNL     1     -11.162  16.334  68.349  1.00  0.00    -0.349 A  
HETATM   27  N   UNL     1     -12.232  13.852  68.637  1.00  0.00    -0.288 NA 
HETATM   28  C   UNL     1     -12.097  14.683  69.691  1.00  0.00    -0.311 A  
HETATM   29  C   UNL     1     -11.563  15.947  69.604  1.00  0.00    -0.339 A  
ENDBRANCH  23  24
ENDBRANCH  21  23
ENDBRANCH  14  19
BRANCH  17  30
HETATM   30  N   UNL     1      -8.466   6.572  66.669  1.00  0.00    -0.113 NA 
HETATM   31  C   UNL     1      -7.824   4.587  65.539  1.00  0.00    -0.094 C  
HETATM   32  C   UNL     1      -7.271   6.130  67.352  1.00  0.00    -0.076 C  
HETATM   33  C   UNL     1      -8.985   5.577  65.731  1.00  0.00    -0.154 C  
HETATM   34  C   UNL     1      -6.683   5.069  66.428  1.00  0.00    -0.054 C  
BRANCH  33  35
HETATM   35  C   UNL     1     -10.226   4.889  66.335  1.00  0.00    -0.278 C  
HETATM   36  O   UNL     1     -11.402   5.684  66.162  1.00  0.00    -0.739 OA 
HETATM   37  H   UNL     1     -12.167   5.261  66.534  1.00  0.00     0.000 HD 
ENDBRANCH  33  35
ENDBRANCH  17  30
ENDBRANCH  11  13
ENDBRANCH  10  11
ENDBRANCH   7  10
ENDBRANCH   2   3
TORSDOF 9
ENDMDL
MODEL      113
REMARK 921   NORMALIZED FREE ENERGY PREDICTED BY IDOCK:   -5.66 KCAL/MOL
REMARK 922        TOTAL FREE ENERGY PREDICTED BY IDOCK:  -10.17 KCAL/MOL
REMARK 923 INTER-LIGAND FREE ENERGY PREDICTED BY IDOCK:   -9.02 KCAL/MOL
REMARK 924 INTRA-LIGAND FREE ENERGY PREDICTED BY IDOCK:   -1.16 KCAL/MOL
REMARK 927      BINDING AFFINITY PREDICTED BY RF-SCORE:    0.00 PKD
ROOT
HETATM    1  C   UNL     1     -13.030  11.914  63.355  1.00  0.00    -0.115 C  
HETATM    2  O   UNL     1     -13.056  12.751  64.502  1.00  0.00    -0.743 OA 
ENDROOT
BRANCH   2   3
HETATM    3  C   UNL     1     -11.912  12.817  65.252  1.00  0.00    -0.429 A  
HETATM    4  C   UNL     1     -11.254  14.056  65.312  1.00  0.00    -0.319 A  
HETATM    5 CL   UNL     1     -11.806  15.414  64.392  1.00  0.00    -0.348 Cl 
HETATM    6  C   UNL     1     -10.118  14.229  66.111  1.00  0.00    -0.325 A  
HETATM    7  C   UNL     1      -9.623  13.167  66.879  1.00  0.00    -0.248 A  
HETATM    8  C   UNL     1     -11.399  11.751  65.997  1.00  0.00    -0.335 A  
HETATM    9  C   UNL     1     -10.262  11.923  66.795  1.00  0.00    -0.232 A  
BRANCH   7  10
HETATM   10  C   UNL     1      -8.394  13.346  67.742  1.00  0.00    -0.178 C  
BRANCH  10  11
HETATM   11  N   UNL     1      -8.782  14.114  68.912  1.00  0.00    -0.359 NA 
HETATM   12  H   UNL     1      -9.475  13.774  69.579  1.00  0.00     0.000 HD 
BRANCH  11  13
HETATM   13  C   UNL     1      -8.141  15.359  69.071  1.00  0.00    -0.213 A  
HETATM   14  C   UNL     1      -6.944  15.428  69.764  1.00  0.00    -0.152 A  
HETATM   15  C   UNL     1      -6.370  16.677  69.830  1.00  0.00    -0.175 A  
HETATM   16  N   UNL     1      -8.687  16.456  68.489  1.00  0.00    -0.213 NA 
HETATM   17  C   UNL     1      -8.050  17.639  68.586  1.00  0.00    -0.269 A  
HETATM   18  N   UNL     1      -6.907  17.783  69.270  1.00  0.00    -0.227 NA 
BRANCH  14  19
HETATM   19  C   UNL     1      -6.264  14.306  70.448  1.00  0.00    -0.162 C  
HETATM   20  O   UNL     1      -5.713  14.503  71.525  1.00  0.00    -0.148 OA 
HETATM   21  N   UNL     1      -6.314  13.070  69.849  1.00  0.00    -0.312 N  
HETATM   22  H   UNL     1      -6.839  12.964  68.980  1.00  0.00     0.000 HD 
BRANCH  21  23
HETATM   23  C   UNL     1      -5.646  11.906  70.411  1.00  0.00    -0.155 C  
BRANCH  23  24
HETATM   24  C   UNL     1      -6.463  10.626  70.379  1.00  0.00    -0.100 A  
HETATM   25  N   UNL     1      -7.251  10.432  69.298  1.00  0.00    -0.087 NA 
HETATM   26  C   UNL     1      -7.941   9.277  69.249  1.00  0.00    -0.098 A  
HETATM   27  N   UNL     1      -6.356   9.752  71.406  1.00  0.00    -0.300 NA 
HETATM   28  C   UNL     1      -7.064   8.610  71.295  1.00  0.00    -0.085 A  
HETATM   29  C   UNL     1      -7.881   8.317  70.229  1.00  0.00    -0.092 A  
ENDBRANCH  23  24
ENDBRANCH  21  23
ENDBRANCH  14  19
BRANCH  17  30
HETATM   30  N   UNL     1      -8.580  18.742  67.976  1.00  0.00    -0.289 NA 
HETATM   31  C   UNL     1      -9.568  19.803  66.098  1.00  0.00    -0.484 C  
HETATM   32  C   UNL     1      -9.694  19.487  68.518  1.00  0.00    -0.419 C  
HETATM   33  C   UNL     1      -8.304  19.071  66.578  1.00  0.00    -0.305 C  
HETATM   34  C   UNL     1     -10.512  19.881  67.293  1.00  0.00    -0.557 C  
BRANCH  33  35
HETATM   35  C   UNL     1      -7.056  19.973  66.491  1.00  0.00    -0.251 C  
HETATM   36  O   UNL     1      -6.857  20.711  67.700  1.00  0.00    -0.292 OA 
HETATM   37  H   UNL     1      -6.088  21.266  67.647  1.00  0.00     0.000 HD 
ENDBRANCH  33  35
ENDBRANCH  17  30
ENDBRANCH  11  13
ENDBRANCH  10  11
ENDBRANCH   7  10
ENDBRANCH   2   3
TORSDOF 9
ENDMDL
MODEL      114
REMARK 921   NORMALIZED FREE ENERGY PREDICTED BY IDOCK:   -5.66 KCAL/MOL
REMARK 922        TOTAL FREE ENERGY PREDICTED BY IDOCK:  -10.17 KCAL/MOL
REMARK 923 INTER-LIGAND FREE ENERGY PREDICTED BY IDOCK:   -8.75 KCAL/MOL
REMARK 924 INTRA-LIGAND FREE ENERGY PREDICTED BY IDOCK:   -1.42 KCAL/MOL
REMARK 927      BINDING AFFINITY PREDICTED BY RF-SCORE:    0.00 PKD
ROOT
HETATM    1  C   UNL     1      -9.274   7.323  72.344  1.00  0.00    -0.134 C  
HETATM    2  O   UNL     1     -10.280   8.321  72.243  1.00  0.00    -0.250 OA 
ENDROOT
BRANCH   2   3
HETATM    3  C   UNL     1     -10.326   9.044  71.080  1.00  0.00    -0.291 A  
HETATM    4  C   UNL     1     -11.545   9.657  70.753  1.00  0.00    -0.321 A  
HETATM    5 CL   UNL     1     -12.960   9.421  71.722  1.00  0.00    -0.443 Cl 
HETATM    6  C   UNL     1     -11.660  10.471  69.620  1.00  0.00    -0.342 A  
HETATM    7  C   UNL     1     -10.551  10.700  68.797  1.00  0.00    -0.234 A  
HETATM    8  C   UNL     1      -9.227   9.251  70.241  1.00  0.00    -0.273 A  
HETATM    9  C   UNL     1      -9.342  10.064  69.107  1.00  0.00    -0.200 A  
BRANCH   7  10
HETATM   10  C   UNL     1     -10.669  11.577  67.570  1.00  0.00    -0.223 C  
BRANCH  10  11
HETATM   11  N   UNL     1      -9.376  11.592  66.909  1.00  0.00    -0.184 NA 
HETATM   12  H   UNL     1      -8.557  12.031  67.330  1.00  0.00     0.000 HD 
BRANCH  11  13
HETATM   13  C   UNL     1      -9.322  10.963  65.650  1.00  0.00    -0.207 A  
HETATM   14  C   UNL     1      -9.986  11.529  64.573  1.00  0.00    -0.306 A  
HETATM   15  C   UNL     1      -9.841  10.869  63.376  1.00  0.00    -0.362 A  
HETATM   16  N   UNL     1      -8.571   9.842  65.508  1.00  0.00    -0.138 NA 
HETATM   17  C   UNL     1      -8.467   9.268  64.293  1.00  0.00    -0.190 A  
HETATM   18  N   UNL     1      -9.110   9.743  63.219  1.00  0.00    -0.257 NA 
BRANCH  14  19
HETATM   19  C   UNL     1     -10.841  12.737  64.612  1.00  0.00    -0.335 C  
HETATM   20  O   UNL     1     -12.059  12.613  64.558  1.00  0.00    -0.372 OA 
HETATM   21  N   UNL     1     -10.219  13.955  64.742  1.00  0.00    -0.583 N  
HETATM   22  H   UNL     1      -9.203  13.981  64.838  1.00  0.00     0.000 HD 
BRANCH  21  23
HETATM   23  C   UNL     1     -10.957  15.209  64.747  1.00  0.00    -0.377 C  
BRANCH  23  24
HETATM   24  C   UNL     1     -10.648  16.124  65.919  1.00  0.00    -0.312 A  
HETATM   25  N   UNL     1     -10.419  17.425  65.634  1.00  0.00    -0.601 NA 
HETATM   26  C   UNL     1     -10.188  18.244  66.678  1.00  0.00    -0.384 A  
HETATM   27  N   UNL     1     -10.628  15.607  67.169  1.00  0.00    -0.305 NA 
HETATM   28  C   UNL     1     -10.402  16.478  68.173  1.00  0.00    -0.296 A  
HETATM   29  C   UNL     1     -10.172  17.821  67.983  1.00  0.00    -0.377 A  
ENDBRANCH  23  24
ENDBRANCH  21  23
ENDBRANCH  14  19
BRANCH  17  30
HETATM   30  N   UNL     1      -7.687   8.156  64.139  1.00  0.00    -0.129 NA 
HETATM   31  C   UNL     1      -6.615   6.232  65.021  1.00  0.00    -0.039 C  
HETATM   32  C   UNL     1      -7.991   7.101  63.198  1.00  0.00    -0.079 C  
HETATM   33  C   UNL     1      -6.679   7.765  65.123  1.00  0.00    -0.051 C  
HETATM   34  C   UNL     1      -7.598   5.822  63.930  1.00  0.00    -0.083 C  
BRANCH  33  35
HETATM   35  C   UNL     1      -5.326   8.416  64.772  1.00  0.00    -0.036 C  
HETATM   36  O   UNL     1      -5.135   9.644  65.480  1.00  0.00    -0.037 OA 
HETATM   37  H   UNL     1      -4.302  10.045  65.263  1.00  0.00     0.000 HD 
ENDBRANCH  33  35
ENDBRANCH  17  30
ENDBRANCH  11  13
ENDBRANCH  10  11
ENDBRANCH   7  10
ENDBRANCH   2   3
TORSDOF 9
ENDMDL
MODEL      115
REMARK 921   NORMALIZED FREE ENERGY PREDICTED BY IDOCK:   -5.66 KCAL/MOL
REMARK 922        TOTAL FREE ENERGY PREDICTED BY IDOCK:  -10.16 KCAL/MOL
REMARK 923 INTER-LIGAND FREE ENERGY PREDICTED BY IDOCK:   -8.61 KCAL/MOL
REMARK 924 INTRA-LIGAND FREE ENERGY PREDICTED BY IDOCK:   -1.56 KCAL/MOL
REMARK 927      BINDING AFFINITY PREDICTED BY RF-SCORE:    0.00 PKD
ROOT
HETATM    1  C   UNL     1      -9.317   3.037  67.564  1.00  0.00    -0.185 C  
HETATM    2  O   UNL     1      -8.355   3.803  66.851  1.00  0.00    -0.098 OA 
ENDROOT
BRANCH   2   3
HETATM    3  C   UNL     1      -8.464   5.166  66.927  1.00  0.00    -0.106 A  
HETATM    4  C   UNL     1      -7.652   5.824  67.865  1.00  0.00    -0.085 A  
HETATM    5 CL   UNL     1      -6.636   4.940  68.952  1.00  0.00    -0.043 Cl 
HETATM    6  C   UNL     1      -7.649   7.220  67.960  1.00  0.00    -0.115 A  
HETATM    7  C   UNL     1      -8.450   7.990  67.106  1.00  0.00    -0.124 A  
HETATM    8  C   UNL     1      -9.284   5.935  66.096  1.00  0.00    -0.164 A  
HETATM    9  C   UNL     1      -9.282   7.332  66.192  1.00  0.00    -0.136 A  
BRANCH   7  10
HETATM   10  C   UNL     1      -8.453   9.499  67.205  1.00  0.00    -0.128 C  
BRANCH  10  11
HETATM   11  N   UNL     1      -9.826   9.951  67.057  1.00  0.00    -0.181 NA 
HETATM   12  H   UNL     1     -10.218  10.205  66.151  1.00  0.00     0.000 HD 
BRANCH  11  13
HETATM   13  C   UNL     1     -10.582  10.017  68.244  1.00  0.00    -0.226 A  
HETATM   14  C   UNL     1     -11.468  11.065  68.433  1.00  0.00    -0.378 A  
HETATM   15  C   UNL     1     -12.193  11.022  69.601  1.00  0.00    -0.300 A  
HETATM   16  N   UNL     1     -10.465   9.016  69.153  1.00  0.00    -0.226 NA 
HETATM   17  C   UNL     1     -11.228   9.042  70.264  1.00  0.00    -0.205 A  
HETATM   18  N   UNL     1     -12.079  10.043  70.525  1.00  0.00    -0.269 NA 
BRANCH  14  19
HETATM   19  C   UNL     1     -11.670  12.214  67.522  1.00  0.00    -0.315 C  
HETATM   20  O   UNL     1     -11.954  12.006  66.348  1.00  0.00    -0.611 OA 
HETATM   21  N   UNL     1     -11.561  13.476  68.053  1.00  0.00    -0.316 N  
HETATM   22  H   UNL     1     -11.378  13.576  69.052  1.00  0.00     0.000 HD 
BRANCH  21  23
HETATM   23  C   UNL     1     -11.697  14.676  67.241  1.00  0.00    -0.385 C  
BRANCH  23  24
HETATM   24  C   UNL     1     -10.704  15.778  67.564  1.00  0.00    -0.317 A  
HETATM   25  N   UNL     1      -9.538  15.769  66.882  1.00  0.00    -0.224 NA 
HETATM   26  C   UNL     1      -8.676  16.772  67.136  1.00  0.00    -0.200 A  
HETATM   27  N   UNL     1     -11.031  16.707  68.492  1.00  0.00    -0.350 NA 
HETATM   28  C   UNL     1     -10.132  17.691  68.697  1.00  0.00    -0.377 A  
HETATM   29  C   UNL     1      -8.926  17.773  68.041  1.00  0.00    -0.263 A  
ENDBRANCH  23  24
ENDBRANCH  21  23
ENDBRANCH  14  19
BRANCH  17  30
HETATM   30  N   UNL     1     -11.135   8.021  71.168  1.00  0.00    -0.247 NA 
HETATM   31  C   UNL     1      -9.854   6.473  72.428  1.00  0.00    -0.169 C  
HETATM   32  C   UNL     1     -11.678   8.097  72.506  1.00  0.00    -0.394 C  
HETATM   33  C   UNL     1     -10.205   6.905  70.995  1.00  0.00    -0.197 C  
HETATM   34  C   UNL     1     -10.651   7.371  73.368  1.00  0.00    -0.427 C  
BRANCH  33  35
HETATM   35  C   UNL     1     -10.891   5.770  70.209  1.00  0.00    -0.303 C  
HETATM   36  O   UNL     1     -11.418   6.238  68.965  1.00  0.00    -0.540 OA 
HETATM   37  H   UNL     1     -11.841   5.539  68.480  1.00  0.00     0.000 HD 
ENDBRANCH  33  35
ENDBRANCH  17  30
ENDBRANCH  11  13
ENDBRANCH  10  11
ENDBRANCH   7  10
ENDBRANCH   2   3
TORSDOF 9
ENDMDL
MODEL      116
REMARK 921   NORMALIZED FREE ENERGY PREDICTED BY IDOCK:   -5.64 KCAL/MOL
REMARK 922        TOTAL FREE ENERGY PREDICTED BY IDOCK:  -10.14 KCAL/MOL
REMARK 923 INTER-LIGAND FREE ENERGY PREDICTED BY IDOCK:   -8.09 KCAL/MOL
REMARK 924 INTRA-LIGAND FREE ENERGY PREDICTED BY IDOCK:   -2.05 KCAL/MOL
REMARK 927      BINDING AFFINITY PREDICTED BY RF-SCORE:    0.00 PKD
ROOT
HETATM    1  C   UNL     1      -9.638   3.682  69.573  1.00  0.00    -0.137 C  
HETATM    2  O   UNL     1     -10.400   4.422  70.516  1.00  0.00    -0.106 OA 
ENDROOT
BRANCH   2   3
HETATM    3  C   UNL     1     -10.599   5.751  70.250  1.00  0.00    -0.299 A  
HETATM    4  C   UNL     1     -11.266   6.508  71.227  1.00  0.00    -0.288 A  
HETATM    5 CL   UNL     1     -11.903   5.771  72.657  1.00  0.00    -0.278 Cl 
HETATM    6  C   UNL     1     -11.450   7.887  71.066  1.00  0.00    -0.298 A  
HETATM    7  C   UNL     1     -10.956   8.540  69.930  1.00  0.00    -0.165 A  
HETATM    8  C   UNL     1     -10.133   6.401  69.104  1.00  0.00    -0.194 A  
HETATM    9  C   UNL     1     -10.317   7.779  68.942  1.00  0.00    -0.224 A  
BRANCH   7  10
HETATM   10  C   UNL     1     -11.153  10.029  69.750  1.00  0.00    -0.274 C  
BRANCH  10  11
HETATM   11  N   UNL     1      -9.842  10.653  69.751  1.00  0.00    -0.430 NA 
HETATM   12  H   UNL     1      -9.320  10.818  70.612  1.00  0.00     0.000 HD 
BRANCH  11  13
HETATM   13  C   UNL     1      -9.334  11.018  68.488  1.00  0.00    -0.188 A  
HETATM   14  C   UNL     1      -8.160  10.442  68.030  1.00  0.00    -0.110 A  
HETATM   15  C   UNL     1      -7.766  10.826  66.770  1.00  0.00    -0.136 A  
HETATM   16  N   UNL     1     -10.041  11.888  67.724  1.00  0.00    -0.187 NA 
HETATM   17  C   UNL     1      -9.592  12.197  66.491  1.00  0.00    -0.228 A  
HETATM   18  N   UNL     1      -8.448  11.703  66.001  1.00  0.00    -0.020 NA 
BRANCH  14  19
HETATM   19  C   UNL     1      -7.302   9.495  68.778  1.00  0.00    -0.074 C  
HETATM   20  O   UNL     1      -6.677   8.638  68.165  1.00  0.00    -0.063 OA 
HETATM   21  N   UNL     1      -7.221   9.649  70.141  1.00  0.00    -0.110 N  
HETATM   22  H   UNL     1      -7.724  10.420  70.581  1.00  0.00     0.000 HD 
BRANCH  21  23
HETATM   23  C   UNL     1      -6.442   8.750  70.980  1.00  0.00    -0.056 C  
BRANCH  23  24
HETATM   24  C   UNL     1      -7.247   8.003  72.028  1.00  0.00    -0.082 A  
HETATM   25  N   UNL     1      -8.039   8.744  72.834  1.00  0.00    -0.393 NA 
HETATM   26  C   UNL     1      -8.786   8.077  73.734  1.00  0.00    -0.265 A  
HETATM   27  N   UNL     1      -7.145   6.655  72.098  1.00  0.00    -0.079 NA 
HETATM   28  C   UNL     1      -7.924   6.043  73.012  1.00  0.00    -0.109 A  
HETATM   29  C   UNL     1      -8.771   6.711  73.866  1.00  0.00    -0.158 A  
ENDBRANCH  23  24
ENDBRANCH  21  23
ENDBRANCH  14  19
BRANCH  17  30
HETATM   30  N   UNL     1     -10.316  13.050  65.706  1.00  0.00    -0.282 NA 
HETATM   31  C   UNL     1     -12.386  13.954  64.982  1.00  0.00    -0.452 C  
HETATM   32  C   UNL     1     -10.107  14.480  65.689  1.00  0.00    -0.359 C  
HETATM   33  C   UNL     1     -11.573  12.653  65.072  1.00  0.00    -0.345 C  
HETATM   34  C   UNL     1     -11.510  15.062  65.556  1.00  0.00    -0.265 C  
BRANCH  33  35
HETATM   35  C   UNL     1     -11.291  12.059  63.677  1.00  0.00    -0.452 C  
HETATM   36  O   UNL     1     -12.488  11.575  63.062  1.00  0.00    -0.982 OA 
HETATM   37  H   UNL     1     -12.314  11.210  62.202  1.00  0.00     0.000 HD 
ENDBRANCH  33  35
ENDBRANCH  17  30
ENDBRANCH  11  13
ENDBRANCH  10  11
ENDBRANCH   7  10
ENDBRANCH   2   3
TORSDOF 9
ENDMDL
MODEL      117
REMARK 921   NORMALIZED FREE ENERGY PREDICTED BY IDOCK:   -5.63 KCAL/MOL
REMARK 922        TOTAL FREE ENERGY PREDICTED BY IDOCK:  -10.12 KCAL/MOL
REMARK 923 INTER-LIGAND FREE ENERGY PREDICTED BY IDOCK:   -9.03 KCAL/MOL
REMARK 924 INTRA-LIGAND FREE ENERGY PREDICTED BY IDOCK:   -1.09 KCAL/MOL
REMARK 927      BINDING AFFINITY PREDICTED BY RF-SCORE:    0.00 PKD
ROOT
HETATM    1  C   UNL     1     -12.894   9.506  71.891  1.00  0.00    -0.420 C  
HETATM    2  O   UNL     1     -13.050  10.904  72.093  1.00  0.00    -0.463 OA 
ENDROOT
BRANCH   2   3
HETATM    3  C   UNL     1     -12.730  11.724  71.043  1.00  0.00    -0.275 A  
HETATM    4  C   UNL     1     -12.776  13.108  71.273  1.00  0.00    -0.306 A  
HETATM    5 CL   UNL     1     -13.319  13.752  72.785  1.00  0.00    -0.606 Cl 
HETATM    6  C   UNL     1     -12.398  14.016  70.276  1.00  0.00    -0.425 A  
HETATM    7  C   UNL     1     -11.949  13.555  69.032  1.00  0.00    -0.376 A  
HETATM    8  C   UNL     1     -12.309  11.268  69.790  1.00  0.00    -0.277 A  
HETATM    9  C   UNL     1     -11.931  12.175  68.793  1.00  0.00    -0.292 A  
BRANCH   7  10
HETATM   10  C   UNL     1     -11.541  14.531  67.951  1.00  0.00    -0.344 C  
BRANCH  10  11
HETATM   11  N   UNL     1     -10.796  13.793  66.945  1.00  0.00    -0.283 NA 
HETATM   12  H   UNL     1     -11.239  13.427  66.102  1.00  0.00     0.000 HD 
BRANCH  11  13
HETATM   13  C   UNL     1      -9.424  13.612  67.207  1.00  0.00    -0.230 A  
HETATM   14  C   UNL     1      -8.567  14.700  67.149  1.00  0.00    -0.244 A  
HETATM   15  C   UNL     1      -7.255  14.437  67.461  1.00  0.00    -0.180 A  
HETATM   16  N   UNL     1      -8.981  12.382  67.567  1.00  0.00    -0.174 NA 
HETATM   17  C   UNL     1      -7.680  12.214  67.875  1.00  0.00    -0.134 A  
HETATM   18  N   UNL     1      -6.792  13.215  67.806  1.00  0.00    -0.133 NA 
BRANCH  14  19
HETATM   19  C   UNL     1      -8.934  16.080  66.757  1.00  0.00    -0.246 C  
HETATM   20  O   UNL     1      -9.420  16.283  65.651  1.00  0.00    -0.463 OA 
HETATM   21  N   UNL     1      -8.739  17.078  67.683  1.00  0.00    -0.213 N  
HETATM   22  H   UNL     1      -8.383  16.830  68.606  1.00  0.00     0.000 HD 
BRANCH  21  23
HETATM   23  C   UNL     1      -9.023  18.475  67.391  1.00  0.00    -0.272 C  
BRANCH  23  24
HETATM   24  C   UNL     1      -7.876  19.429  67.673  1.00  0.00    -0.274 A  
HETATM   25  N   UNL     1      -7.604  20.354  66.726  1.00  0.00    -0.288 NA 
HETATM   26  C   UNL     1      -6.616  21.228  66.996  1.00  0.00    -0.305 A  
HETATM   27  N   UNL     1      -7.202  19.320  68.840  1.00  0.00    -0.347 NA 
HETATM   28  C   UNL     1      -6.230  20.228  69.058  1.00  0.00    -0.331 A  
HETATM   29  C   UNL     1      -5.891  21.214  68.161  1.00  0.00    -0.380 A  
ENDBRANCH  23  24
ENDBRANCH  21  23
ENDBRANCH  14  19
BRANCH  17  30
HETATM   30  N   UNL     1      -7.234  10.982  68.267  1.00  0.00    -0.082 NA 
HETATM   31  C   UNL     1      -7.216   8.619  68.065  1.00  0.00    -0.087 C  
HETATM   32  C   UNL     1      -5.835  10.621  68.300  1.00  0.00    -0.046 C  
HETATM   33  C   UNL     1      -8.122   9.824  68.366  1.00  0.00    -0.104 C  
HETATM   34  C   UNL     1      -5.812   9.169  67.836  1.00  0.00    -0.042 C  
BRANCH  33  35
HETATM   35  C   UNL     1      -8.723   9.745  69.784  1.00  0.00    -0.212 C  
HETATM   36  O   UNL     1      -9.778   8.782  69.853  1.00  0.00    -0.172 OA 
HETATM   37  H   UNL     1     -10.148   8.733  70.726  1.00  0.00     0.000 HD 
ENDBRANCH  33  35
ENDBRANCH  17  30
ENDBRANCH  11  13
ENDBRANCH  10  11
ENDBRANCH   7  10
ENDBRANCH   2   3
TORSDOF 9
ENDMDL
MODEL      118
REMARK 921   NORMALIZED FREE ENERGY PREDICTED BY IDOCK:   -5.62 KCAL/MOL
REMARK 922        TOTAL FREE ENERGY PREDICTED BY IDOCK:  -10.10 KCAL/MOL
REMARK 923 INTER-LIGAND FREE ENERGY PREDICTED BY IDOCK:   -7.83 KCAL/MOL
REMARK 924 INTRA-LIGAND FREE ENERGY PREDICTED BY IDOCK:   -2.27 KCAL/MOL
REMARK 927      BINDING AFFINITY PREDICTED BY RF-SCORE:    0.00 PKD
ROOT
HETATM    1  C   UNL     1     -11.709  15.910  68.746  1.00  0.00    -0.349 C  
HETATM    2  O   UNL     1     -10.550  15.102  68.895  1.00  0.00    -0.226 OA 
ENDROOT
BRANCH   2   3
HETATM    3  C   UNL     1     -10.666  13.778  68.560  1.00  0.00    -0.262 A  
HETATM    4  C   UNL     1      -9.593  13.194  67.869  1.00  0.00    -0.218 A  
HETATM    5 CL   UNL     1      -8.229  14.133  67.367  1.00  0.00    -0.195 Cl 
HETATM    6  C   UNL     1      -9.599  11.831  67.550  1.00  0.00    -0.179 A  
HETATM    7  C   UNL     1     -10.676  11.020  67.931  1.00  0.00    -0.263 A  
HETATM    8  C   UNL     1     -11.752  12.972  68.913  1.00  0.00    -0.371 A  
HETATM    9  C   UNL     1     -11.760  11.609  68.594  1.00  0.00    -0.386 A  
BRANCH   7  10
HETATM   10  C   UNL     1     -10.690   9.547  67.587  1.00  0.00    -0.250 C  
BRANCH  10  11
HETATM   11  N   UNL     1      -9.323   9.061  67.662  1.00  0.00    -0.135 NA 
HETATM   12  H   UNL     1      -8.629   9.486  68.278  1.00  0.00     0.000 HD 
BRANCH  11  13
HETATM   13  C   UNL     1      -9.015   7.965  66.832  1.00  0.00    -0.136 A  
HETATM   14  C   UNL     1      -8.599   8.189  65.530  1.00  0.00    -0.173 A  
HETATM   15  C   UNL     1      -8.278   7.063  64.809  1.00  0.00    -0.047 A  
HETATM   16  N   UNL     1      -9.078   6.712  67.349  1.00  0.00    -0.120 NA 
HETATM   17  C   UNL     1      -8.729   5.663  66.579  1.00  0.00    -0.121 A  
HETATM   18  N   UNL     1      -8.351   5.806  65.302  1.00  0.00    -0.142 NA 
BRANCH  14  19
HETATM   19  C   UNL     1      -8.503   9.505  64.857  1.00  0.00    -0.158 C  
HETATM   20  O   UNL     1      -7.503  10.193  65.022  1.00  0.00    -0.136 OA 
HETATM   21  N   UNL     1      -9.543   9.879  64.040  1.00  0.00    -0.399 N  
HETATM   22  H   UNL     1     -10.320   9.232  63.903  1.00  0.00     0.000 HD 
BRANCH  21  23
HETATM   23  C   UNL     1      -9.575  11.168  63.364  1.00  0.00    -0.332 C  
BRANCH  23  24
HETATM   24  C   UNL     1     -10.499  12.194  63.995  1.00  0.00    -0.386 A  
HETATM   25  N   UNL     1     -11.746  11.780  64.312  1.00  0.00    -0.287 NA 
HETATM   26  C   UNL     1     -12.551  12.677  64.912  1.00  0.00    -0.450 A  
HETATM   27  N   UNL     1     -10.038  13.446  64.217  1.00  0.00    -0.273 NA 
HETATM   28  C   UNL     1     -10.886  14.297  64.829  1.00  0.00    -0.405 A  
HETATM   29  C   UNL     1     -12.167  13.963  65.202  1.00  0.00    -0.443 A  
ENDBRANCH  23  24
ENDBRANCH  21  23
ENDBRANCH  14  19
BRANCH  17  30
HETATM   30  N   UNL     1      -8.762   4.401  67.104  1.00  0.00    -0.104 NA 
HETATM   31  C   UNL     1      -7.701   2.354  67.660  1.00  0.00    -0.060 C  
HETATM   32  C   UNL     1      -9.194   4.118  68.455  1.00  0.00    -0.144 C  
HETATM   33  C   UNL     1      -8.061   3.277  66.485  1.00  0.00    -0.088 C  
HETATM   34  C   UNL     1      -8.260   3.006  68.920  1.00  0.00    -0.077 C  
BRANCH  33  35
HETATM   35  C   UNL     1      -8.990   2.575  65.473  1.00  0.00    -0.133 C  
HETATM   36  O   UNL     1     -10.185   3.330  65.248  1.00  0.00    -0.382 OA 
HETATM   37  H   UNL     1     -10.757   2.898  64.626  1.00  0.00     0.000 HD 
ENDBRANCH  33  35
ENDBRANCH  17  30
ENDBRANCH  11  13
ENDBRANCH  10  11
ENDBRANCH   7  10
ENDBRANCH   2   3
TORSDOF 9
ENDMDL
MODEL      119
REMARK 921   NORMALIZED FREE ENERGY PREDICTED BY IDOCK:   -5.62 KCAL/MOL
REMARK 922        TOTAL FREE ENERGY PREDICTED BY IDOCK:  -10.10 KCAL/MOL
REMARK 923 INTER-LIGAND FREE ENERGY PREDICTED BY IDOCK:   -8.47 KCAL/MOL
REMARK 924 INTRA-LIGAND FREE ENERGY PREDICTED BY IDOCK:   -1.64 KCAL/MOL
REMARK 927      BINDING AFFINITY PREDICTED BY RF-SCORE:    0.00 PKD
ROOT
HETATM    1  C   UNL     1     -10.240   6.721  74.046  1.00  0.00    -0.369 C  
HETATM    2  O   UNL     1     -11.099   7.656  73.409  1.00  0.00    -0.337 OA 
ENDROOT
BRANCH   2   3
HETATM    3  C   UNL     1     -10.597   8.327  72.325  1.00  0.00    -0.323 A  
HETATM    4  C   UNL     1     -11.462   9.208  71.659  1.00  0.00    -0.381 A  
HETATM    5 CL   UNL     1     -13.123   9.360  72.121  1.00  0.00    -0.499 Cl 
HETATM    6  C   UNL     1     -11.010   9.985  70.586  1.00  0.00    -0.392 A  
HETATM    7  C   UNL     1      -9.676   9.907  70.166  1.00  0.00    -0.255 A  
HETATM    8  C   UNL     1      -9.273   8.228  71.886  1.00  0.00    -0.272 A  
HETATM    9  C   UNL     1      -8.821   9.005  70.812  1.00  0.00    -0.281 A  
BRANCH   7  10
HETATM   10  C   UNL     1      -9.182  10.742  69.006  1.00  0.00    -0.146 C  
BRANCH  10  11
HETATM   11  N   UNL     1      -9.073   9.872  67.848  1.00  0.00    -0.131 NA 
HETATM   12  H   UNL     1      -8.748   8.908  67.922  1.00  0.00     0.000 HD 
BRANCH  11  13
HETATM   13  C   UNL     1      -9.444  10.443  66.614  1.00  0.00    -0.165 A  
HETATM   14  C   UNL     1      -9.246   9.729  65.443  1.00  0.00    -0.282 A  
HETATM   15  C   UNL     1      -9.678  10.348  64.294  1.00  0.00    -0.326 A  
HETATM   16  N   UNL     1     -10.042  11.660  66.608  1.00  0.00    -0.205 NA 
HETATM   17  C   UNL     1     -10.453  12.187  65.438  1.00  0.00    -0.270 A  
HETATM   18  N   UNL     1     -10.261  11.566  64.266  1.00  0.00    -0.286 NA 
BRANCH  14  19
HETATM   19  C   UNL     1      -8.595   8.405  65.327  1.00  0.00    -0.150 C  
HETATM   20  O   UNL     1      -7.482   8.324  64.819  1.00  0.00    -0.084 OA 
HETATM   21  N   UNL     1      -9.267   7.318  65.833  1.00  0.00    -0.379 N  
HETATM   22  H   UNL     1     -10.165   7.465  66.294  1.00  0.00     0.000 HD 
BRANCH  21  23
HETATM   23  C   UNL     1      -8.741   5.965  65.735  1.00  0.00    -0.151 C  
BRANCH  23  24
HETATM   24  C   UNL     1      -8.246   5.378  67.045  1.00  0.00    -0.104 A  
HETATM   25  N   UNL     1      -7.642   6.228  67.905  1.00  0.00    -0.100 NA 
HETATM   26  C   UNL     1      -7.243   5.718  69.085  1.00  0.00    -0.074 A  
HETATM   27  N   UNL     1      -8.439   4.062  67.292  1.00  0.00    -0.099 NA 
HETATM   28  C   UNL     1      -8.027   3.611  68.494  1.00  0.00    -0.070 A  
HETATM   29  C   UNL     1      -7.416   4.402  69.438  1.00  0.00    -0.055 A  
ENDBRANCH  23  24
ENDBRANCH  21  23
ENDBRANCH  14  19
BRANCH  17  30
HETATM   30  N   UNL     1     -11.083  13.400  65.430  1.00  0.00    -0.285 NA 
HETATM   31  C   UNL     1     -11.175  15.689  64.812  1.00  0.00    -0.391 C  
HETATM   32  C   UNL     1     -12.425  13.591  64.925  1.00  0.00    -0.384 C  
HETATM   33  C   UNL     1     -10.360  14.658  65.611  1.00  0.00    -0.351 C  
HETATM   34  C   UNL     1     -12.372  14.946  64.227  1.00  0.00    -0.300 C  
BRANCH  33  35
HETATM   35  C   UNL     1     -10.302  15.017  67.110  1.00  0.00    -0.257 C  
HETATM   36  O   UNL     1     -10.812  16.330  67.354  1.00  0.00    -0.313 OA 
HETATM   37  H   UNL     1     -10.777  16.551  68.277  1.00  0.00     0.000 HD 
ENDBRANCH  33  35
ENDBRANCH  17  30
ENDBRANCH  11  13
ENDBRANCH  10  11
ENDBRANCH   7  10
ENDBRANCH   2   3
TORSDOF 9
ENDMDL
MODEL      120
REMARK 921   NORMALIZED FREE ENERGY PREDICTED BY IDOCK:   -5.62 KCAL/MOL
REMARK 922        TOTAL FREE ENERGY PREDICTED BY IDOCK:  -10.10 KCAL/MOL
REMARK 923 INTER-LIGAND FREE ENERGY PREDICTED BY IDOCK:   -8.05 KCAL/MOL
REMARK 924 INTRA-LIGAND FREE ENERGY PREDICTED BY IDOCK:   -2.05 KCAL/MOL
REMARK 927      BINDING AFFINITY PREDICTED BY RF-SCORE:    0.00 PKD
ROOT
HETATM    1  C   UNL     1     -10.134   7.137  73.986  1.00  0.00    -0.261 C  
HETATM    2  O   UNL     1     -10.697   6.991  72.690  1.00  0.00    -0.229 OA 
ENDROOT
BRANCH   2   3
HETATM    3  C   UNL     1     -10.965   8.140  71.994  1.00  0.00    -0.286 A  
HETATM    4  C   UNL     1      -9.921   8.687  71.231  1.00  0.00    -0.246 A  
HETATM    5 CL   UNL     1      -8.333   7.998  71.254  1.00  0.00    -0.117 Cl 
HETATM    6  C   UNL     1     -10.128   9.819  70.435  1.00  0.00    -0.313 A  
HETATM    7  C   UNL     1     -11.391  10.421  70.374  1.00  0.00    -0.417 A  
HETATM    8  C   UNL     1     -12.217   8.760  71.954  1.00  0.00    -0.429 A  
HETATM    9  C   UNL     1     -12.425   9.894  71.159  1.00  0.00    -0.464 A  
BRANCH   7  10
HETATM   10  C   UNL     1     -11.621  11.647  69.518  1.00  0.00    -0.331 C  
BRANCH  10  11
HETATM   11  N   UNL     1     -10.931  11.442  68.257  1.00  0.00    -0.199 NA 
HETATM   12  H   UNL     1     -11.234  10.741  67.581  1.00  0.00     0.000 HD 
BRANCH  11  13
HETATM   13  C   UNL     1      -9.817  12.273  68.024  1.00  0.00    -0.204 A  
HETATM   14  C   UNL     1      -8.629  11.716  67.580  1.00  0.00    -0.142 A  
HETATM   15  C   UNL     1      -7.611  12.609  67.339  1.00  0.00    -0.150 A  
HETATM   16  N   UNL     1      -9.954  13.613  68.187  1.00  0.00    -0.240 NA 
HETATM   17  C   UNL     1      -8.910  14.420  67.910  1.00  0.00    -0.179 A  
HETATM   18  N   UNL     1      -7.723  13.944  67.511  1.00  0.00    -0.175 NA 
BRANCH  14  19
HETATM   19  C   UNL     1      -8.362  10.274  67.380  1.00  0.00    -0.118 C  
HETATM   20  O   UNL     1      -7.409   9.754  67.949  1.00  0.00    -0.084 OA 
HETATM   21  N   UNL     1      -9.229   9.570  66.580  1.00  0.00    -0.153 N  
HETATM   22  H   UNL     1     -10.035  10.053  66.182  1.00  0.00     0.000 HD 
BRANCH  21  23
HETATM   23  C   UNL     1      -9.039   8.159  66.279  1.00  0.00    -0.185 C  
BRANCH  23  24
HETATM   24  C   UNL     1      -9.504   7.209  67.368  1.00  0.00    -0.131 A  
HETATM   25  N   UNL     1     -10.784   7.336  67.784  1.00  0.00    -0.217 NA 
HETATM   26  C   UNL     1     -11.209   6.465  68.718  1.00  0.00    -0.274 A  
HETATM   27  N   UNL     1      -8.638   6.289  67.853  1.00  0.00    -0.116 NA 
HETATM   28  C   UNL     1      -9.125   5.439  68.779  1.00  0.00    -0.118 A  
HETATM   29  C   UNL     1     -10.415   5.481  69.254  1.00  0.00    -0.336 A  
ENDBRANCH  23  24
ENDBRANCH  21  23
ENDBRANCH  14  19
BRANCH  17  30
HETATM   30  N   UNL     1      -9.051  15.773  68.044  1.00  0.00    -0.186 NA 
HETATM   31  C   UNL     1      -9.961  17.846  67.335  1.00  0.00    -0.325 C  
HETATM   32  C   UNL     1      -9.520  16.403  69.258  1.00  0.00    -0.182 C  
HETATM   33  C   UNL     1      -9.068  16.675  66.893  1.00  0.00    -0.228 C  
HETATM   34  C   UNL     1     -10.391  17.555  68.769  1.00  0.00    -0.358 C  
BRANCH  33  35
HETATM   35  C   UNL     1      -7.634  17.142  66.573  1.00  0.00    -0.285 C  
HETATM   36  O   UNL     1      -7.597  17.955  65.397  1.00  0.00    -0.377 OA 
HETATM   37  H   UNL     1      -6.714  18.242  65.200  1.00  0.00     0.000 HD 
ENDBRANCH  33  35
ENDBRANCH  17  30
ENDBRANCH  11  13
ENDBRANCH  10  11
ENDBRANCH   7  10
ENDBRANCH   2   3
TORSDOF 9
ENDMDL
MODEL      121
REMARK 921   NORMALIZED FREE ENERGY PREDICTED BY IDOCK:   -5.59 KCAL/MOL
REMARK 922        TOTAL FREE ENERGY PREDICTED BY IDOCK:  -10.06 KCAL/MOL
REMARK 923 INTER-LIGAND FREE ENERGY PREDICTED BY IDOCK:   -8.60 KCAL/MOL
REMARK 924 INTRA-LIGAND FREE ENERGY PREDICTED BY IDOCK:   -1.46 KCAL/MOL
REMARK 927      BINDING AFFINITY PREDICTED BY RF-SCORE:    0.00 PKD
ROOT
HETATM    1  C   UNL     1     -10.330   3.227  73.077  1.00  0.00    -0.162 C  
HETATM    2  O   UNL     1     -10.230   4.427  73.831  1.00  0.00    -0.152 OA 
ENDROOT
BRANCH   2   3
HETATM    3  C   UNL     1     -10.755   5.561  73.269  1.00  0.00    -0.274 A  
HETATM    4  C   UNL     1     -10.075   6.767  73.502  1.00  0.00    -0.268 A  
HETATM    5 CL   UNL     1      -8.694   6.835  74.543  1.00  0.00    -0.187 Cl 
HETATM    6  C   UNL     1     -10.503   7.960  72.908  1.00  0.00    -0.422 A  
HETATM    7  C   UNL     1     -11.614   7.969  72.056  1.00  0.00    -0.369 A  
HETATM    8  C   UNL     1     -11.881   5.577  72.441  1.00  0.00    -0.117 A  
HETATM    9  C   UNL     1     -12.310   6.771  71.847  1.00  0.00    -0.369 A  
BRANCH   7  10
HETATM   10  C   UNL     1     -12.083   9.255  71.413  1.00  0.00    -0.348 C  
BRANCH  10  11
HETATM   11  N   UNL     1     -11.847   9.149  69.984  1.00  0.00    -0.439 NA 
HETATM   12  H   UNL     1     -12.589   8.902  69.329  1.00  0.00     0.000 HD 
BRANCH  11  13
HETATM   13  C   UNL     1     -10.530   9.408  69.557  1.00  0.00    -0.218 A  
HETATM   14  C   UNL     1     -10.216  10.645  69.018  1.00  0.00    -0.231 A  
HETATM   15  C   UNL     1      -8.897  10.821  68.671  1.00  0.00    -0.152 A  
HETATM   16  N   UNL     1      -9.583   8.454  69.738  1.00  0.00    -0.170 NA 
HETATM   17  C   UNL     1      -8.308   8.715  69.387  1.00  0.00    -0.114 A  
HETATM   18  N   UNL     1      -7.943   9.877  68.829  1.00  0.00    -0.089 NA 
BRANCH  14  19
HETATM   19  C   UNL     1     -11.164  11.752  68.762  1.00  0.00    -0.251 C  
HETATM   20  O   UNL     1     -12.093  11.581  67.982  1.00  0.00    -0.617 OA 
HETATM   21  N   UNL     1     -10.973  12.926  69.451  1.00  0.00    -0.456 N  
HETATM   22  H   UNL     1     -10.212  12.982  70.128  1.00  0.00     0.000 HD 
BRANCH  21  23
HETATM   23  C   UNL     1     -11.818  14.094  69.246  1.00  0.00    -0.338 C  
BRANCH  23  24
HETATM   24  C   UNL     1     -12.390  14.694  70.518  1.00  0.00    -0.337 A  
HETATM   25  N   UNL     1     -13.723  14.571  70.706  1.00  0.00    -0.073 NA 
HETATM   26  C   UNL     1     -14.224  15.065  71.854  1.00  0.00    -0.555 A  
HETATM   27  N   UNL     1     -11.555  15.302  71.393  1.00  0.00    -0.360 NA 
HETATM   28  C   UNL     1     -12.113  15.767  72.528  1.00  0.00    -0.489 A  
HETATM   29  C   UNL     1     -13.456  15.676  72.814  1.00  0.00    -0.662 A  
ENDBRANCH  23  24
ENDBRANCH  21  23
ENDBRANCH  14  19
BRANCH  17  30
HETATM   30  N   UNL     1      -7.344   7.768  69.595  1.00  0.00    -0.085 NA 
HETATM   31  C   UNL     1      -6.693   5.550  70.127  1.00  0.00    -0.047 C  
HETATM   32  C   UNL     1      -6.338   7.434  68.611  1.00  0.00    -0.039 C  
HETATM   33  C   UNL     1      -7.437   6.781  70.670  1.00  0.00    -0.083 C  
HETATM   34  C   UNL     1      -6.174   5.924  68.743  1.00  0.00    -0.032 C  
BRANCH  33  35
HETATM   35  C   UNL     1      -6.768   7.334  71.945  1.00  0.00    -0.055 C  
HETATM   36  O   UNL     1      -5.739   6.461  72.418  1.00  0.00    -0.036 OA 
HETATM   37  H   UNL     1      -5.327   6.801  73.203  1.00  0.00     0.000 HD 
ENDBRANCH  33  35
ENDBRANCH  17  30
ENDBRANCH  11  13
ENDBRANCH  10  11
ENDBRANCH   7  10
ENDBRANCH   2   3
TORSDOF 9
ENDMDL
MODEL      122
REMARK 921   NORMALIZED FREE ENERGY PREDICTED BY IDOCK:   -5.57 KCAL/MOL
REMARK 922        TOTAL FREE ENERGY PREDICTED BY IDOCK:  -10.03 KCAL/MOL
REMARK 923 INTER-LIGAND FREE ENERGY PREDICTED BY IDOCK:   -8.78 KCAL/MOL
REMARK 924 INTRA-LIGAND FREE ENERGY PREDICTED BY IDOCK:   -1.25 KCAL/MOL
REMARK 927      BINDING AFFINITY PREDICTED BY RF-SCORE:    0.00 PKD
ROOT
HETATM    1  C   UNL     1     -10.901   5.144  73.818  1.00  0.00    -0.287 C  
HETATM    2  O   UNL     1     -11.161   5.272  72.427  1.00  0.00    -0.240 OA 
ENDROOT
BRANCH   2   3
HETATM    3  C   UNL     1     -11.150   6.539  71.906  1.00  0.00    -0.261 A  
HETATM    4  C   UNL     1     -10.863   6.668  70.538  1.00  0.00    -0.261 A  
HETATM    5 CL   UNL     1     -10.434   5.295  69.575  1.00  0.00    -0.340 Cl 
HETATM    6  C   UNL     1     -10.899   7.918  69.910  1.00  0.00    -0.221 A  
HETATM    7  C   UNL     1     -11.240   9.066  70.636  1.00  0.00    -0.318 A  
HETATM    8  C   UNL     1     -11.462   7.690  72.635  1.00  0.00    -0.403 A  
HETATM    9  C   UNL     1     -11.498   8.942  72.007  1.00  0.00    -0.431 A  
BRANCH   7  10
HETATM   10  C   UNL     1     -11.280  10.421  69.963  1.00  0.00    -0.316 C  
BRANCH  10  11
HETATM   11  N   UNL     1     -11.664  10.217  68.578  1.00  0.00    -0.672 NA 
HETATM   12  H   UNL     1     -12.603   9.917  68.314  1.00  0.00     0.000 HD 
BRANCH  11  13
HETATM   13  C   UNL     1     -10.660  10.460  67.620  1.00  0.00    -0.257 A  
HETATM   14  C   UNL     1     -10.337  11.765  67.283  1.00  0.00    -0.231 A  
HETATM   15  C   UNL     1      -9.316  11.905  66.372  1.00  0.00    -0.226 A  
HETATM   16  N   UNL     1      -9.992   9.406  67.089  1.00  0.00    -0.190 NA 
HETATM   17  C   UNL     1      -8.990   9.633  66.216  1.00  0.00    -0.155 A  
HETATM   18  N   UNL     1      -8.649  10.867  65.821  1.00  0.00    -0.180 NA 
BRANCH  14  19
HETATM   19  C   UNL     1     -11.004  12.987  67.786  1.00  0.00    -0.251 C  
HETATM   20  O   UNL     1     -12.054  13.354  67.271  1.00  0.00    -0.361 OA 
HETATM   21  N   UNL     1     -10.421  13.642  68.844  1.00  0.00    -0.379 N  
HETATM   22  H   UNL     1      -9.577  13.249  69.262  1.00  0.00     0.000 HD 
BRANCH  21  23
HETATM   23  C   UNL     1     -10.966  14.875  69.391  1.00  0.00    -0.271 C  
BRANCH  23  24
HETATM   24  C   UNL     1     -10.193  16.129  69.023  1.00  0.00    -0.250 A  
HETATM   25  N   UNL     1      -8.857  16.106  69.226  1.00  0.00    -0.232 NA 
HETATM   26  C   UNL     1      -8.166  17.201  68.859  1.00  0.00    -0.192 A  
HETATM   27  N   UNL     1     -10.861  17.187  68.507  1.00  0.00    -0.325 NA 
HETATM   28  C   UNL     1     -10.114  18.251  68.149  1.00  0.00    -0.379 A  
HETATM   29  C   UNL     1      -8.749  18.313  68.304  1.00  0.00    -0.302 A  
ENDBRANCH  23  24
ENDBRANCH  21  23
ENDBRANCH  14  19
BRANCH  17  30
HETATM   30  N   UNL     1      -8.293   8.575  65.701  1.00  0.00    -0.139 NA 
HETATM   31  C   UNL     1      -8.195   6.343  64.905  1.00  0.00    -0.110 C  
HETATM   32  C   UNL     1      -7.525   8.654  64.479  1.00  0.00    -0.107 C  
HETATM   33  C   UNL     1      -8.524   7.199  66.139  1.00  0.00    -0.142 C  
HETATM   34  C   UNL     1      -7.751   7.304  63.807  1.00  0.00    -0.120 C  
BRANCH  33  35
HETATM   35  C   UNL     1      -7.598   6.866  67.326  1.00  0.00    -0.108 C  
HETATM   36  O   UNL     1      -8.034   7.511  68.527  1.00  0.00    -0.119 OA 
HETATM   37  H   UNL     1      -7.464   7.306  69.258  1.00  0.00     0.000 HD 
ENDBRANCH  33  35
ENDBRANCH  17  30
ENDBRANCH  11  13
ENDBRANCH  10  11
ENDBRANCH   7  10
ENDBRANCH   2   3
TORSDOF 9
ENDMDL
MODEL      123
REMARK 921   NORMALIZED FREE ENERGY PREDICTED BY IDOCK:   -5.56 KCAL/MOL
REMARK 922        TOTAL FREE ENERGY PREDICTED BY IDOCK:  -10.02 KCAL/MOL
REMARK 923 INTER-LIGAND FREE ENERGY PREDICTED BY IDOCK:   -8.55 KCAL/MOL
REMARK 924 INTRA-LIGAND FREE ENERGY PREDICTED BY IDOCK:   -1.47 KCAL/MOL
REMARK 927      BINDING AFFINITY PREDICTED BY RF-SCORE:    0.00 PKD
ROOT
HETATM    1  C   UNL     1      -6.883  21.076  67.318  1.00  0.00    -0.369 C  
HETATM    2  O   UNL     1      -8.012  20.234  67.132  1.00  0.00    -0.314 OA 
ENDROOT
BRANCH   2   3
HETATM    3  C   UNL     1      -7.995  19.019  67.765  1.00  0.00    -0.263 A  
HETATM    4  C   UNL     1      -9.225  18.363  67.929  1.00  0.00    -0.283 A  
HETATM    5 CL   UNL     1     -10.712  19.106  67.449  1.00  0.00    -0.569 Cl 
HETATM    6  C   UNL     1      -9.289  17.087  68.502  1.00  0.00    -0.265 A  
HETATM    7  C   UNL     1      -8.119  16.434  68.910  1.00  0.00    -0.236 A  
HETATM    8  C   UNL     1      -6.831  18.377  68.199  1.00  0.00    -0.234 A  
HETATM    9  C   UNL     1      -6.895  17.101  68.773  1.00  0.00    -0.209 A  
BRANCH   7  10
HETATM   10  C   UNL     1      -8.181  15.057  69.531  1.00  0.00    -0.106 C  
BRANCH  10  11
HETATM   11  N   UNL     1      -7.365  14.167  68.723  1.00  0.00    -0.124 NA 
HETATM   12  H   UNL     1      -6.352  14.264  68.665  1.00  0.00     0.000 HD 
BRANCH  11  13
HETATM   13  C   UNL     1      -8.061  13.162  68.023  1.00  0.00    -0.157 A  
HETATM   14  C   UNL     1      -7.851  11.831  68.348  1.00  0.00    -0.141 A  
HETATM   15  C   UNL     1      -8.606  10.924  67.642  1.00  0.00    -0.124 A  
HETATM   16  N   UNL     1      -8.968  13.526  67.082  1.00  0.00    -0.219 NA 
HETATM   17  C   UNL     1      -9.680  12.572  66.449  1.00  0.00    -0.249 A  
HETATM   18  N   UNL     1      -9.502  11.267  66.690  1.00  0.00    -0.182 NA 
BRANCH  14  19
HETATM   19  C   UNL     1      -6.883  11.318  69.343  1.00  0.00    -0.121 C  
HETATM   20  O   UNL     1      -5.763  11.812  69.404  1.00  0.00    -0.058 OA 
HETATM   21  N   UNL     1      -7.306  10.318  70.186  1.00  0.00    -0.235 N  
HETATM   22  H   UNL     1      -8.270   9.992  70.118  1.00  0.00     0.000 HD 
BRANCH  21  23
HETATM   23  C   UNL     1      -6.426   9.710  71.173  1.00  0.00     0.000 C  
BRANCH  23  24
HETATM   24  C   UNL     1      -7.140   9.028  72.326  1.00  0.00     0.262 A  
HETATM   25  N   UNL     1      -8.453   8.755  72.156  1.00  0.00    -0.385 NA 
HETATM   26  C   UNL     1      -9.075   8.111  73.162  1.00  0.00    -0.265 A  
HETATM   27  N   UNL     1      -6.441   8.719  73.443  1.00  0.00    -0.293 NA 
HETATM   28  C   UNL     1      -7.116   8.067  74.410  1.00  0.00    -0.153 A  
HETATM   29  C   UNL     1      -8.447   7.734  74.323  1.00  0.00    -0.285 A  
ENDBRANCH  23  24
ENDBRANCH  21  23
ENDBRANCH  14  19
BRANCH  17  30
HETATM   30  N   UNL     1     -10.616  12.935  65.521  1.00  0.00    -0.275 NA 
HETATM   31  C   UNL     1     -12.606  12.508  64.302  1.00  0.00    -0.485 C  
HETATM   32  C   UNL     1     -11.364  14.170  65.594  1.00  0.00    -0.319 C  
HETATM   33  C   UNL     1     -11.187  11.981  64.572  1.00  0.00    -0.332 C  
HETATM   34  C   UNL     1     -12.760  13.791  65.112  1.00  0.00    -0.439 C  
BRANCH  33  35
HETATM   35  C   UNL     1     -10.336  11.951  63.286  1.00  0.00    -0.391 C  
HETATM   36  O   UNL     1     -10.221  10.624  62.765  1.00  0.00    -0.730 OA 
HETATM   37  H   UNL     1      -9.697  10.604  61.973  1.00  0.00     0.000 HD 
ENDBRANCH  33  35
ENDBRANCH  17  30
ENDBRANCH  11  13
ENDBRANCH  10  11
ENDBRANCH   7  10
ENDBRANCH   2   3
TORSDOF 9
ENDMDL
MODEL      124
REMARK 921   NORMALIZED FREE ENERGY PREDICTED BY IDOCK:   -5.56 KCAL/MOL
REMARK 922        TOTAL FREE ENERGY PREDICTED BY IDOCK:  -10.01 KCAL/MOL
REMARK 923 INTER-LIGAND FREE ENERGY PREDICTED BY IDOCK:   -8.31 KCAL/MOL
REMARK 924 INTRA-LIGAND FREE ENERGY PREDICTED BY IDOCK:   -1.70 KCAL/MOL
REMARK 927      BINDING AFFINITY PREDICTED BY RF-SCORE:    0.00 PKD
ROOT
HETATM    1  C   UNL     1      -7.959   7.850  73.223  1.00  0.00    -0.161 C  
HETATM    2  O   UNL     1      -8.954   7.182  72.460  1.00  0.00    -0.127 OA 
ENDROOT
BRANCH   2   3
HETATM    3  C   UNL     1      -9.401   7.813  71.330  1.00  0.00    -0.152 A  
HETATM    4  C   UNL     1      -9.120   7.201  70.098  1.00  0.00    -0.152 A  
HETATM    5 CL   UNL     1      -8.157   5.766  70.006  1.00  0.00    -0.106 Cl 
HETATM    6  C   UNL     1      -9.600   7.742  68.900  1.00  0.00    -0.154 A  
HETATM    7  C   UNL     1     -10.385   8.901  68.910  1.00  0.00    -0.229 A  
HETATM    8  C   UNL     1     -10.161   8.987  71.335  1.00  0.00    -0.399 A  
HETATM    9  C   UNL     1     -10.640   9.529  70.137  1.00  0.00    -0.298 A  
BRANCH   7  10
HETATM   10  C   UNL     1     -10.905   9.492  67.619  1.00  0.00    -0.187 C  
BRANCH  10  11
HETATM   11  N   UNL     1      -9.943  10.480  67.164  1.00  0.00    -0.186 NA 
HETATM   12  H   UNL     1      -9.439  11.085  67.812  1.00  0.00     0.000 HD 
BRANCH  11  13
HETATM   13  C   UNL     1      -9.748  10.551  65.770  1.00  0.00    -0.223 A  
HETATM   14  C   UNL     1     -10.361  11.560  65.044  1.00  0.00    -0.333 A  
HETATM   15  C   UNL     1     -10.078  11.575  63.699  1.00  0.00    -0.388 A  
HETATM   16  N   UNL     1      -8.914   9.660  65.178  1.00  0.00    -0.192 NA 
HETATM   17  C   UNL     1      -8.677   9.757  63.855  1.00  0.00    -0.218 A  
HETATM   18  N   UNL     1      -9.263  10.686  63.089  1.00  0.00    -0.260 NA 
BRANCH  14  19
HETATM   19  C   UNL     1     -11.296  12.576  65.578  1.00  0.00    -0.331 C  
HETATM   20  O   UNL     1     -12.479  12.528  65.263  1.00  0.00    -0.608 OA 
HETATM   21  N   UNL     1     -10.789  13.517  66.441  1.00  0.00    -0.289 N  
HETATM   22  H   UNL     1      -9.804  13.464  66.705  1.00  0.00     0.000 HD 
BRANCH  21  23
HETATM   23  C   UNL     1     -11.607  14.587  66.992  1.00  0.00    -0.386 C  
BRANCH  23  24
HETATM   24  C   UNL     1     -11.853  14.493  68.487  1.00  0.00    -0.320 A  
HETATM   25  N   UNL     1     -12.175  15.639  69.127  1.00  0.00    -0.228 NA 
HETATM   26  C   UNL     1     -12.437  15.548  70.444  1.00  0.00    -0.402 A  
HETATM   27  N   UNL     1     -11.754  13.289  69.096  1.00  0.00    -0.310 NA 
HETATM   28  C   UNL     1     -12.037  13.259  70.414  1.00  0.00    -0.327 A  
HETATM   29  C   UNL     1     -12.387  14.369  71.146  1.00  0.00    -0.428 A  
ENDBRANCH  23  24
ENDBRANCH  21  23
ENDBRANCH  14  19
BRANCH  17  30
HETATM   30  N   UNL     1      -7.814   8.880  63.259  1.00  0.00    -0.135 NA 
HETATM   31  C   UNL     1      -6.062   7.285  63.379  1.00  0.00    -0.048 C  
HETATM   32  C   UNL     1      -8.252   7.788  62.419  1.00  0.00    -0.125 C  
HETATM   33  C   UNL     1      -6.418   8.751  63.675  1.00  0.00    -0.088 C  
HETATM   34  C   UNL     1      -7.302   6.646  62.763  1.00  0.00    -0.070 C  
BRANCH  33  35
HETATM   35  C   UNL     1      -5.540   9.726  62.864  1.00  0.00    -0.093 C  
HETATM   36  O   UNL     1      -6.171  11.001  62.716  1.00  0.00    -0.360 OA 
HETATM   37  H   UNL     1      -5.631  11.601  62.216  1.00  0.00     0.000 HD 
ENDBRANCH  33  35
ENDBRANCH  17  30
ENDBRANCH  11  13
ENDBRANCH  10  11
ENDBRANCH   7  10
ENDBRANCH   2   3
TORSDOF 9
ENDMDL
MODEL      125
REMARK 921   NORMALIZED FREE ENERGY PREDICTED BY IDOCK:   -5.56 KCAL/MOL
REMARK 922        TOTAL FREE ENERGY PREDICTED BY IDOCK:  -10.01 KCAL/MOL
REMARK 923 INTER-LIGAND FREE ENERGY PREDICTED BY IDOCK:   -8.01 KCAL/MOL
REMARK 924 INTRA-LIGAND FREE ENERGY PREDICTED BY IDOCK:   -2.00 KCAL/MOL
REMARK 927      BINDING AFFINITY PREDICTED BY RF-SCORE:    0.00 PKD
ROOT
HETATM    1  C   UNL     1      -5.638   7.016  62.957  1.00  0.00    -0.037 C  
HETATM    2  O   UNL     1      -5.679   7.728  64.185  1.00  0.00    -0.047 OA 
ENDROOT
BRANCH   2   3
HETATM    3  C   UNL     1      -6.763   7.513  64.994  1.00  0.00    -0.047 A  
HETATM    4  C   UNL     1      -7.606   8.607  65.243  1.00  0.00    -0.088 A  
HETATM    5 CL   UNL     1      -7.233  10.186  64.640  1.00  0.00    -0.139 Cl 
HETATM    6  C   UNL     1      -8.773   8.458  66.001  1.00  0.00    -0.183 A  
HETATM    7  C   UNL     1      -9.129   7.205  66.515  1.00  0.00    -0.182 A  
HETATM    8  C   UNL     1      -7.105   6.269  65.533  1.00  0.00    -0.068 A  
HETATM    9  C   UNL     1      -8.272   6.119  66.292  1.00  0.00    -0.116 A  
BRANCH   7  10
HETATM   10  C   UNL     1     -10.388   7.038  67.337  1.00  0.00    -0.244 C  
BRANCH  10  11
HETATM   11  N   UNL     1     -10.763   8.345  67.845  1.00  0.00    -0.461 NA 
HETATM   12  H   UNL     1     -11.024   9.113  67.226  1.00  0.00     0.000 HD 
BRANCH  11  13
HETATM   13  C   UNL     1     -10.744   8.489  69.246  1.00  0.00    -0.133 A  
HETATM   14  C   UNL     1     -11.102   9.701  69.815  1.00  0.00    -0.247 A  
HETATM   15  C   UNL     1     -11.096   9.734  71.189  1.00  0.00    -0.344 A  
HETATM   16  N   UNL     1     -10.429   7.414  70.011  1.00  0.00    -0.220 NA 
HETATM   17  C   UNL     1     -10.465   7.528  71.354  1.00  0.00    -0.209 A  
HETATM   18  N   UNL     1     -10.769   8.679  71.968  1.00  0.00    -0.337 NA 
BRANCH  14  19
HETATM   19  C   UNL     1     -11.451  10.940  69.083  1.00  0.00    -0.303 C  
HETATM   20  O   UNL     1     -12.605  11.353  69.117  1.00  0.00    -0.255 OA 
HETATM   21  N   UNL     1     -10.441  11.594  68.420  1.00  0.00    -0.205 N  
HETATM   22  H   UNL     1      -9.492  11.225  68.481  1.00  0.00     0.000 HD 
BRANCH  21  23
HETATM   23  C   UNL     1     -10.678  12.796  67.634  1.00  0.00    -0.219 C  
BRANCH  23  24
HETATM   24  C   UNL     1     -10.951  12.549  66.161  1.00  0.00    -0.284 A  
HETATM   25  N   UNL     1     -11.709  13.464  65.518  1.00  0.00    -0.327 NA 
HETATM   26  C   UNL     1     -11.914  13.267  64.202  1.00  0.00    -0.447 A  
HETATM   27  N   UNL     1     -10.423  11.452  65.570  1.00  0.00    -0.261 NA 
HETATM   28  C   UNL     1     -10.655  11.314  64.249  1.00  0.00    -0.358 A  
HETATM   29  C   UNL     1     -11.401  12.200  63.507  1.00  0.00    -0.535 A  
ENDBRANCH  23  24
ENDBRANCH  21  23
ENDBRANCH  14  19
BRANCH  17  30
HETATM   30  N   UNL     1     -10.177   6.439  72.129  1.00  0.00    -0.185 NA 
HETATM   31  C   UNL     1     -10.631   5.033  73.985  1.00  0.00    -0.348 C  
HETATM   32  C   UNL     1     -10.085   5.096  71.604  1.00  0.00    -0.200 C  
HETATM   33  C   UNL     1     -10.267   6.473  73.589  1.00  0.00    -0.286 C  
HETATM   34  C   UNL     1     -10.700   4.225  72.694  1.00  0.00    -0.172 C  
BRANCH  33  35
HETATM   35  C   UNL     1      -8.911   6.903  74.186  1.00  0.00    -0.191 C  
HETATM   36  O   UNL     1      -8.767   8.326  74.186  1.00  0.00    -0.335 OA 
HETATM   37  H   UNL     1      -7.932   8.591  74.554  1.00  0.00     0.000 HD 
ENDBRANCH  33  35
ENDBRANCH  17  30
ENDBRANCH  11  13
ENDBRANCH  10  11
ENDBRANCH   7  10
ENDBRANCH   2   3
TORSDOF 9
ENDMDL
MODEL      126
REMARK 921   NORMALIZED FREE ENERGY PREDICTED BY IDOCK:   -5.53 KCAL/MOL
REMARK 922        TOTAL FREE ENERGY PREDICTED BY IDOCK:   -9.97 KCAL/MOL
REMARK 923 INTER-LIGAND FREE ENERGY PREDICTED BY IDOCK:   -8.45 KCAL/MOL
REMARK 924 INTRA-LIGAND FREE ENERGY PREDICTED BY IDOCK:   -1.52 KCAL/MOL
REMARK 927      BINDING AFFINITY PREDICTED BY RF-SCORE:    0.00 PKD
ROOT
HETATM    1  C   UNL     1      -8.639  18.510  66.142  1.00  0.00    -0.126 C  
HETATM    2  O   UNL     1      -8.202  17.159  66.081  1.00  0.00    -0.395 OA 
ENDROOT
BRANCH   2   3
HETATM    3  C   UNL     1      -9.120  16.193  66.400  1.00  0.00    -0.304 A  
HETATM    4  C   UNL     1      -9.092  15.689  67.710  1.00  0.00    -0.181 A  
HETATM    5 CL   UNL     1      -7.881  16.189  68.841  1.00  0.00    -0.201 Cl 
HETATM    6  C   UNL     1     -10.038  14.751  68.140  1.00  0.00    -0.221 A  
HETATM    7  C   UNL     1     -11.043  14.309  67.270  1.00  0.00    -0.315 A  
HETATM    8  C   UNL     1     -10.106  15.728  65.525  1.00  0.00    -0.383 A  
HETATM    9  C   UNL     1     -11.053  14.790  65.954  1.00  0.00    -0.340 A  
BRANCH   7  10
HETATM   10  C   UNL     1     -12.067  13.294  67.728  1.00  0.00    -0.237 C  
BRANCH  10  11
HETATM   11  N   UNL     1     -11.746  12.025  67.098  1.00  0.00    -0.566 NA 
HETATM   12  H   UNL     1     -12.226  11.700  66.259  1.00  0.00     0.000 HD 
BRANCH  11  13
HETATM   13  C   UNL     1     -10.732  11.271  67.720  1.00  0.00    -0.220 A  
HETATM   14  C   UNL     1     -10.950  10.737  68.980  1.00  0.00    -0.289 A  
HETATM   15  C   UNL     1      -9.921   9.980  69.488  1.00  0.00    -0.228 A  
HETATM   16  N   UNL     1      -9.580  11.036  67.042  1.00  0.00    -0.176 NA 
HETATM   17  C   UNL     1      -8.628  10.267  67.606  1.00  0.00    -0.118 A  
HETATM   18  N   UNL     1      -8.761   9.748  68.834  1.00  0.00    -0.129 NA 
BRANCH  14  19
HETATM   19  C   UNL     1     -12.155  10.936  69.816  1.00  0.00    -0.338 C  
HETATM   20  O   UNL     1     -13.184  10.329  69.542  1.00  0.00     0.332 OA 
HETATM   21  N   UNL     1     -12.050  11.779  70.896  1.00  0.00    -0.394 N  
HETATM   22  H   UNL     1     -11.147  12.209  71.099  1.00  0.00     0.000 HD 
BRANCH  21  23
HETATM   23  C   UNL     1     -13.181  12.081  71.760  1.00  0.00    -0.317 C  
BRANCH  23  24
HETATM   24  C   UNL     1     -13.240  13.517  72.252  1.00  0.00    -0.475 A  
HETATM   25  N   UNL     1     -14.264  14.275  71.803  1.00  0.00    -0.459 NA 
HETATM   26  C   UNL     1     -14.341  15.534  72.274  1.00  0.00    -0.462 A  
HETATM   27  N   UNL     1     -12.290  13.958  73.109  1.00  0.00     0.121 NA 
HETATM   28  C   UNL     1     -12.426  15.223  73.553  1.00  0.00    -0.548 A  
HETATM   29  C   UNL     1     -13.441  16.065  73.164  1.00  0.00    -0.587 A  
ENDBRANCH  23  24
ENDBRANCH  21  23
ENDBRANCH  14  19
BRANCH  17  30
HETATM   30  N   UNL     1      -7.479  10.002  66.914  1.00  0.00    -0.094 NA 
HETATM   31  C   UNL     1      -5.248   9.202  66.823  1.00  0.00    -0.038 C  
HETATM   32  C   UNL     1      -7.438   9.160  65.740  1.00  0.00    -0.090 C  
HETATM   33  C   UNL     1      -6.153  10.261  67.474  1.00  0.00    -0.053 C  
HETATM   34  C   UNL     1      -6.127   8.393  65.875  1.00  0.00    -0.048 C  
BRANCH  33  35
HETATM   35  C   UNL     1      -5.704  11.692  67.115  1.00  0.00    -0.120 C  
HETATM   36  O   UNL     1      -5.221  11.768  65.771  1.00  0.00    -0.454 OA 
HETATM   37  H   UNL     1      -4.944  12.649  65.550  1.00  0.00     0.000 HD 
ENDBRANCH  33  35
ENDBRANCH  17  30
ENDBRANCH  11  13
ENDBRANCH  10  11
ENDBRANCH   7  10
ENDBRANCH   2   3
TORSDOF 9
ENDMDL
MODEL      127
REMARK 921   NORMALIZED FREE ENERGY PREDICTED BY IDOCK:   -5.51 KCAL/MOL
REMARK 922        TOTAL FREE ENERGY PREDICTED BY IDOCK:   -9.94 KCAL/MOL
REMARK 923 INTER-LIGAND FREE ENERGY PREDICTED BY IDOCK:   -8.57 KCAL/MOL
REMARK 924 INTRA-LIGAND FREE ENERGY PREDICTED BY IDOCK:   -1.37 KCAL/MOL
REMARK 927      BINDING AFFINITY PREDICTED BY RF-SCORE:    0.00 PKD
ROOT
HETATM    1  C   UNL     1      -5.965  15.856  68.709  1.00  0.00    -0.101 C  
HETATM    2  O   UNL     1      -6.217  15.168  67.491  1.00  0.00    -0.258 OA 
ENDROOT
BRANCH   2   3
HETATM    3  C   UNL     1      -7.059  14.089  67.548  1.00  0.00    -0.160 A  
HETATM    4  C   UNL     1      -8.379  14.281  67.111  1.00  0.00    -0.180 A  
HETATM    5 CL   UNL     1      -8.947  15.842  66.623  1.00  0.00    -0.283 Cl 
HETATM    6  C   UNL     1      -9.286  13.216  67.070  1.00  0.00    -0.233 A  
HETATM    7  C   UNL     1      -8.885  11.929  67.453  1.00  0.00    -0.171 A  
HETATM    8  C   UNL     1      -6.670  12.810  67.957  1.00  0.00    -0.100 A  
HETATM    9  C   UNL     1      -7.576  11.744  67.917  1.00  0.00    -0.121 A  
BRANCH   7  10
HETATM   10  C   UNL     1      -9.860  10.774  67.413  1.00  0.00    -0.177 C  
BRANCH  10  11
HETATM   11  N   UNL     1      -9.879  10.163  68.730  1.00  0.00    -0.168 NA 
HETATM   12  H   UNL     1      -9.211   9.441  69.002  1.00  0.00     0.000 HD 
BRANCH  11  13
HETATM   13  C   UNL     1     -10.876  10.629  69.609  1.00  0.00    -0.268 A  
HETATM   14  C   UNL     1     -11.471   9.747  70.498  1.00  0.00    -0.370 A  
HETATM   15  C   UNL     1     -12.401  10.300  71.346  1.00  0.00    -0.401 A  
HETATM   16  N   UNL     1     -11.192  11.948  69.603  1.00  0.00    -0.167 NA 
HETATM   17  C   UNL     1     -12.103  12.412  70.481  1.00  0.00    -0.275 A  
HETATM   18  N   UNL     1     -12.740  11.609  71.344  1.00  0.00    -0.379 NA 
BRANCH  14  19
HETATM   19  C   UNL     1     -11.216   8.292  70.586  1.00  0.00    -0.256 C  
HETATM   20  O   UNL     1     -10.891   7.802  71.662  1.00  0.00    -0.224 OA 
HETATM   21  N   UNL     1     -11.394   7.543  69.447  1.00  0.00    -0.441 N  
HETATM   22  H   UNL     1     -11.722   8.007  68.599  1.00  0.00     0.000 HD 
BRANCH  21  23
HETATM   23  C   UNL     1     -11.132   6.113  69.409  1.00  0.00    -0.409 C  
BRANCH  23  24
HETATM   24  C   UNL     1     -10.169   5.672  68.320  1.00  0.00    -0.186 A  
HETATM   25  N   UNL     1      -9.710   4.403  68.387  1.00  0.00    -0.134 NA 
HETATM   26  C   UNL     1      -8.891   3.999  67.397  1.00  0.00    -0.119 A  
HETATM   27  N   UNL     1      -9.832   6.549  67.346  1.00  0.00    -0.126 NA 
HETATM   28  C   UNL     1      -9.016   6.084  66.378  1.00  0.00    -0.145 A  
HETATM   29  C   UNL     1      -8.511   4.806  66.354  1.00  0.00    -0.110 A  
ENDBRANCH  23  24
ENDBRANCH  21  23
ENDBRANCH  14  19
BRANCH  17  30
HETATM   30  N   UNL     1     -12.403  13.745  70.499  1.00  0.00    -0.349 NA 
HETATM   31  C   UNL     1     -11.959  15.964  71.212  1.00  0.00    -0.493 C  
HETATM   32  C   UNL     1     -12.517  14.547  69.301  1.00  0.00    -0.031 C  
HETATM   33  C   UNL     1     -12.304  14.553  71.715  1.00  0.00    -0.334 C  
HETATM   34  C   UNL     1     -11.909  15.890  69.690  1.00  0.00    -0.298 C  
BRANCH  33  35
HETATM   35  C   UNL     1     -13.650  14.529  72.468  1.00  0.00    -0.487 C  
HETATM   36  O   UNL     1     -13.942  15.799  73.058  1.00  0.00    -0.620 OA 
HETATM   37  H   UNL     1     -14.771  15.785  73.522  1.00  0.00     0.000 HD 
ENDBRANCH  33  35
ENDBRANCH  17  30
ENDBRANCH  11  13
ENDBRANCH  10  11
ENDBRANCH   7  10
ENDBRANCH   2   3
TORSDOF 9
ENDMDL
MODEL      128
REMARK 921   NORMALIZED FREE ENERGY PREDICTED BY IDOCK:   -5.51 KCAL/MOL
REMARK 922        TOTAL FREE ENERGY PREDICTED BY IDOCK:   -9.94 KCAL/MOL
REMARK 923 INTER-LIGAND FREE ENERGY PREDICTED BY IDOCK:   -7.96 KCAL/MOL
REMARK 924 INTRA-LIGAND FREE ENERGY PREDICTED BY IDOCK:   -1.98 KCAL/MOL
REMARK 927      BINDING AFFINITY PREDICTED BY RF-SCORE:    0.00 PKD
ROOT
HETATM    1  C   UNL     1      -7.191  19.171  67.829  1.00  0.00    -0.240 C  
HETATM    2  O   UNL     1      -6.144  18.250  67.560  1.00  0.00    -0.166 OA 
ENDROOT
BRANCH   2   3
HETATM    3  C   UNL     1      -6.404  16.925  67.793  1.00  0.00    -0.144 A  
HETATM    4  C   UNL     1      -6.076  16.420  69.061  1.00  0.00    -0.152 A  
HETATM    5 CL   UNL     1      -5.278  17.402  70.242  1.00  0.00    -0.213 Cl 
HETATM    6  C   UNL     1      -6.372  15.096  69.406  1.00  0.00    -0.129 A  
HETATM    7  C   UNL     1      -7.018  14.253  68.493  1.00  0.00    -0.102 A  
HETATM    8  C   UNL     1      -7.022  16.073  66.873  1.00  0.00    -0.139 A  
HETATM    9  C   UNL     1      -7.318  14.748  67.218  1.00  0.00    -0.147 A  
BRANCH   7  10
HETATM   10  C   UNL     1      -7.339  12.821  68.860  1.00  0.00    -0.008 C  
BRANCH  10  11
HETATM   11  N   UNL     1      -8.137  12.256  67.786  1.00  0.00    -0.143 NA 
HETATM   12  H   UNL     1      -7.898  12.393  66.803  1.00  0.00     0.000 HD 
BRANCH  11  13
HETATM   13  C   UNL     1      -9.262  11.508  68.185  1.00  0.00    -0.181 A  
HETATM   14  C   UNL     1     -10.476  11.706  67.546  1.00  0.00    -0.228 A  
HETATM   15  C   UNL     1     -11.506  10.901  67.973  1.00  0.00    -0.281 A  
HETATM   16  N   UNL     1      -9.115  10.568  69.151  1.00  0.00    -0.181 NA 
HETATM   17  C   UNL     1     -10.173   9.808  69.497  1.00  0.00    -0.221 A  
HETATM   18  N   UNL     1     -11.383   9.970  68.945  1.00  0.00    -0.129 NA 
BRANCH  14  19
HETATM   19  C   UNL     1     -10.756  12.707  66.492  1.00  0.00    -0.250 C  
HETATM   20  O   UNL     1     -11.237  12.339  65.426  1.00  0.00    -0.307 OA 
HETATM   21  N   UNL     1     -10.491  14.024  66.778  1.00  0.00    -0.276 N  
HETATM   22  H   UNL     1     -10.144  14.267  67.707  1.00  0.00     0.000 HD 
BRANCH  21  23
HETATM   23  C   UNL     1     -10.687  15.086  65.803  1.00  0.00    -0.342 C  
BRANCH  23  24
HETATM   24  C   UNL     1     -10.680  16.490  66.381  1.00  0.00    -0.146 A  
HETATM   25  N   UNL     1     -10.498  17.508  65.512  1.00  0.00    -0.637 NA 
HETATM   26  C   UNL     1     -10.535  18.755  66.019  1.00  0.00    -0.432 A  
HETATM   27  N   UNL     1     -10.865  16.654  67.712  1.00  0.00    -0.325 NA 
HETATM   28  C   UNL     1     -10.903  17.926  68.159  1.00  0.00    -0.164 A  
HETATM   29  C   UNL     1     -10.741  19.026  67.349  1.00  0.00    -0.559 A  
ENDBRANCH  23  24
ENDBRANCH  21  23
ENDBRANCH  14  19
BRANCH  17  30
HETATM   30  N   UNL     1     -10.023   8.839  70.450  1.00  0.00    -0.182 NA 
HETATM   31  C   UNL     1     -10.506   6.682  71.312  1.00  0.00    -0.244 C  
HETATM   32  C   UNL     1      -8.738   8.301  70.835  1.00  0.00    -0.146 C  
HETATM   33  C   UNL     1     -11.144   8.025  70.921  1.00  0.00    -0.255 C  
HETATM   34  C   UNL     1      -9.007   6.818  71.065  1.00  0.00    -0.145 C  
BRANCH  33  35
HETATM   35  C   UNL     1     -11.815   8.710  72.129  1.00  0.00    -0.377 C  
HETATM   36  O   UNL     1     -12.651   9.796  71.718  1.00  0.00    -0.373 OA 
HETATM   37  H   UNL     1     -13.064  10.218  72.461  1.00  0.00     0.000 HD 
ENDBRANCH  33  35
ENDBRANCH  17  30
ENDBRANCH  11  13
ENDBRANCH  10  11
ENDBRANCH   7  10
ENDBRANCH   2   3
TORSDOF 9
ENDMDL
MODEL      129
REMARK 921   NORMALIZED FREE ENERGY PREDICTED BY IDOCK:   -5.48 KCAL/MOL
REMARK 922        TOTAL FREE ENERGY PREDICTED BY IDOCK:   -9.89 KCAL/MOL
REMARK 923 INTER-LIGAND FREE ENERGY PREDICTED BY IDOCK:   -8.49 KCAL/MOL
REMARK 924 INTRA-LIGAND FREE ENERGY PREDICTED BY IDOCK:   -1.40 KCAL/MOL
REMARK 927      BINDING AFFINITY PREDICTED BY RF-SCORE:    0.00 PKD
ROOT
HETATM    1  C   UNL     1      -5.131  13.429  67.398  1.00  0.00     0.211 C  
HETATM    2  O   UNL     1      -5.330  12.187  66.737  1.00  0.00    -0.312 OA 
ENDROOT
BRANCH   2   3
HETATM    3  C   UNL     1      -6.278  11.348  67.261  1.00  0.00    -0.093 A  
HETATM    4  C   UNL     1      -6.646  10.234  66.489  1.00  0.00    -0.085 A  
HETATM    5 CL   UNL     1      -6.009   9.991  64.898  1.00  0.00    -0.104 Cl 
HETATM    6  C   UNL     1      -7.554   9.289  66.978  1.00  0.00    -0.091 A  
HETATM    7  C   UNL     1      -8.103   9.430  68.259  1.00  0.00    -0.109 A  
HETATM    8  C   UNL     1      -6.849  11.502  68.527  1.00  0.00    -0.074 A  
HETATM    9  C   UNL     1      -7.759  10.557  69.017  1.00  0.00    -0.125 A  
BRANCH   7  10
HETATM   10  C   UNL     1      -9.087   8.413  68.793  1.00  0.00    -0.143 C  
BRANCH  10  11
HETATM   11  N   UNL     1     -10.303   8.516  68.005  1.00  0.00    -0.233 NA 
HETATM   12  H   UNL     1     -10.676   7.726  67.478  1.00  0.00     0.000 HD 
BRANCH  11  13
HETATM   13  C   UNL     1     -10.936   9.774  68.013  1.00  0.00    -0.180 A  
HETATM   14  C   UNL     1     -11.508  10.245  69.185  1.00  0.00    -0.210 A  
HETATM   15  C   UNL     1     -12.064  11.500  69.108  1.00  0.00    -0.263 A  
HETATM   16  N   UNL     1     -10.921  10.523  66.883  1.00  0.00    -0.188 NA 
HETATM   17  C   UNL     1     -11.473  11.753  66.899  1.00  0.00    -0.293 A  
HETATM   18  N   UNL     1     -12.072  12.254  67.987  1.00  0.00    -0.409 NA 
BRANCH  14  19
HETATM   19  C   UNL     1     -11.595   9.514  70.469  1.00  0.00    -0.254 C  
HETATM   20  O   UNL     1     -11.085   9.999  71.473  1.00  0.00    -0.192 OA 
HETATM   21  N   UNL     1     -12.285   8.325  70.480  1.00  0.00    -0.469 N  
HETATM   22  H   UNL     1     -12.733   8.008  69.621  1.00  0.00     0.000 HD 
BRANCH  21  23
HETATM   23  C   UNL     1     -12.397   7.503  71.676  1.00  0.00    -0.333 C  
BRANCH  23  24
HETATM   24  C   UNL     1     -11.460   6.309  71.716  1.00  0.00    -0.301 A  
HETATM   25  N   UNL     1     -11.279   5.715  72.917  1.00  0.00    -0.291 NA 
HETATM   26  C   UNL     1     -10.483   4.630  72.944  1.00  0.00    -0.194 A  
HETATM   27  N   UNL     1     -10.872   5.895  70.570  1.00  0.00    -0.291 NA 
HETATM   28  C   UNL     1     -10.094   4.798  70.659  1.00  0.00    -0.218 A  
HETATM   29  C   UNL     1      -9.861   4.118  71.832  1.00  0.00    -0.251 A  
ENDBRANCH  23  24
ENDBRANCH  21  23
ENDBRANCH  14  19
BRANCH  17  30
HETATM   30  N   UNL     1     -11.433  12.524  65.771  1.00  0.00    -0.346 NA 
HETATM   31  C   UNL     1     -12.224  13.074  63.603  1.00  0.00    -0.568 C  
HETATM   32  C   UNL     1     -11.588  13.961  65.789  1.00  0.00    -0.338 C  
HETATM   33  C   UNL     1     -11.569  11.955  64.430  1.00  0.00    -0.292 C  
HETATM   34  C   UNL     1     -12.402  14.266  64.537  1.00  0.00    -0.432 C  
BRANCH  33  35
HETATM   35  C   UNL     1     -10.179  11.579  63.879  1.00  0.00    -0.362 C  
HETATM   36  O   UNL     1     -10.266  10.533  62.907  1.00  0.00    -0.657 OA 
HETATM   37  H   UNL     1      -9.410  10.301  62.568  1.00  0.00     0.000 HD 
ENDBRANCH  33  35
ENDBRANCH  17  30
ENDBRANCH  11  13
ENDBRANCH  10  11
ENDBRANCH   7  10
ENDBRANCH   2   3
TORSDOF 9
ENDMDL
MODEL      130
REMARK 921   NORMALIZED FREE ENERGY PREDICTED BY IDOCK:   -5.46 KCAL/MOL
REMARK 922        TOTAL FREE ENERGY PREDICTED BY IDOCK:   -9.87 KCAL/MOL
REMARK 923 INTER-LIGAND FREE ENERGY PREDICTED BY IDOCK:   -7.93 KCAL/MOL
REMARK 924 INTRA-LIGAND FREE ENERGY PREDICTED BY IDOCK:   -1.94 KCAL/MOL
REMARK 927      BINDING AFFINITY PREDICTED BY RF-SCORE:    0.00 PKD
ROOT
HETATM    1  C   UNL     1      -6.627  14.564  67.930  1.00  0.00    -0.166 C  
HETATM    2  O   UNL     1      -6.631  13.523  68.897  1.00  0.00    -0.094 OA 
ENDROOT
BRANCH   2   3
HETATM    3  C   UNL     1      -7.457  12.456  68.661  1.00  0.00    -0.095 A  
HETATM    4  C   UNL     1      -7.095  11.225  69.232  1.00  0.00    -0.112 A  
HETATM    5 CL   UNL     1      -5.613  11.040  70.107  1.00  0.00    -0.076 Cl 
HETATM    6  C   UNL     1      -7.918  10.101  69.099  1.00  0.00    -0.124 A  
HETATM    7  C   UNL     1      -9.131  10.189  68.403  1.00  0.00    -0.133 A  
HETATM    8  C   UNL     1      -8.653  12.533  67.942  1.00  0.00    -0.179 A  
HETATM    9  C   UNL     1      -9.477  11.409  67.808  1.00  0.00    -0.167 A  
BRANCH   7  10
HETATM   10  C   UNL     1     -10.024   8.977  68.254  1.00  0.00    -0.173 C  
BRANCH  10  11
HETATM   11  N   UNL     1     -11.259   9.246  68.968  1.00  0.00    -0.442 NA 
HETATM   12  H   UNL     1     -12.013   9.799  68.558  1.00  0.00     0.000 HD 
BRANCH  11  13
HETATM   13  C   UNL     1     -11.354   8.696  70.261  1.00  0.00    -0.136 A  
HETATM   14  C   UNL     1     -12.161   9.308  71.208  1.00  0.00    -0.412 A  
HETATM   15  C   UNL     1     -12.225   8.676  72.427  1.00  0.00    -0.349 A  
HETATM   16  N   UNL     1     -10.693   7.543  70.533  1.00  0.00    -0.230 NA 
HETATM   17  C   UNL     1     -10.825   6.980  71.751  1.00  0.00    -0.223 A  
HETATM   18  N   UNL     1     -11.561   7.536  72.722  1.00  0.00    -0.291 NA 
BRANCH  14  19
HETATM   19  C   UNL     1     -12.915  10.569  71.029  1.00  0.00    -0.383 C  
HETATM   20  O   UNL     1     -13.215  10.935  69.898  1.00  0.00     0.018 OA 
HETATM   21  N   UNL     1     -13.277  11.261  72.160  1.00  0.00    -0.559 N  
HETATM   22  H   UNL     1     -13.044  10.869  73.073  1.00  0.00     0.000 HD 
BRANCH  21  23
HETATM   23  C   UNL     1     -13.982  12.533  72.101  1.00  0.00     0.072 C  
BRANCH  23  24
HETATM   24  C   UNL     1     -13.091  13.758  72.205  1.00  0.00    -0.406 A  
HETATM   25  N   UNL     1     -12.348  14.067  71.120  1.00  0.00    -0.354 NA 
HETATM   26  C   UNL     1     -11.592  15.179  71.196  1.00  0.00    -0.360 A  
HETATM   27  N   UNL     1     -13.093  14.477  73.351  1.00  0.00    -0.555 NA 
HETATM   28  C   UNL     1     -12.324  15.584  73.365  1.00  0.00    -0.521 A  
HETATM   29  C   UNL     1     -11.544  15.986  72.305  1.00  0.00    -0.474 A  
ENDBRANCH  23  24
ENDBRANCH  21  23
ENDBRANCH  14  19
BRANCH  17  30
HETATM   30  N   UNL     1     -10.186   5.802  72.020  1.00  0.00    -0.196 NA 
HETATM   31  C   UNL     1      -8.318   4.594  72.845  1.00  0.00    -0.100 C  
HETATM   32  C   UNL     1     -10.756   4.764  72.849  1.00  0.00    -0.232 C  
HETATM   33  C   UNL     1      -8.754   5.617  71.783  1.00  0.00    -0.136 C  
HETATM   34  C   UNL     1      -9.567   4.216  73.633  1.00  0.00    -0.128 C  
BRANCH  33  35
HETATM   35  C   UNL     1      -8.525   5.087  70.353  1.00  0.00    -0.100 C  
HETATM   36  O   UNL     1      -8.280   6.153  69.432  1.00  0.00    -0.110 OA 
HETATM   37  H   UNL     1      -8.138   5.827  68.552  1.00  0.00     0.000 HD 
ENDBRANCH  33  35
ENDBRANCH  17  30
ENDBRANCH  11  13
ENDBRANCH  10  11
ENDBRANCH   7  10
ENDBRANCH   2   3
TORSDOF 9
ENDMDL
MODEL      131
REMARK 921   NORMALIZED FREE ENERGY PREDICTED BY IDOCK:   -5.46 KCAL/MOL
REMARK 922        TOTAL FREE ENERGY PREDICTED BY IDOCK:   -9.87 KCAL/MOL
REMARK 923 INTER-LIGAND FREE ENERGY PREDICTED BY IDOCK:   -8.32 KCAL/MOL
REMARK 924 INTRA-LIGAND FREE ENERGY PREDICTED BY IDOCK:   -1.55 KCAL/MOL
REMARK 927      BINDING AFFINITY PREDICTED BY RF-SCORE:    0.00 PKD
ROOT
HETATM    1  C   UNL     1     -12.922  11.019  71.501  1.00  0.00    -0.448 C  
HETATM    2  O   UNL     1     -12.901  12.434  71.373  1.00  0.00    -0.367 OA 
ENDROOT
BRANCH   2   3
HETATM    3  C   UNL     1     -12.253  12.951  70.282  1.00  0.00    -0.289 A  
HETATM    4  C   UNL     1     -11.634  14.202  70.437  1.00  0.00    -0.171 A  
HETATM    5 CL   UNL     1     -11.777  15.101  71.909  1.00  0.00    -0.461 Cl 
HETATM    6  C   UNL     1     -10.892  14.771  69.396  1.00  0.00    -0.269 A  
HETATM    7  C   UNL     1     -10.740  14.091  68.180  1.00  0.00    -0.254 A  
HETATM    8  C   UNL     1     -12.124  12.288  69.059  1.00  0.00    -0.197 A  
HETATM    9  C   UNL     1     -11.382  12.857  68.016  1.00  0.00    -0.333 A  
BRANCH   7  10
HETATM   10  C   UNL     1      -9.940  14.701  67.050  1.00  0.00    -0.246 C  
BRANCH  10  11
HETATM   11  N   UNL     1      -8.952  13.724  66.628  1.00  0.00    -0.425 NA 
HETATM   12  H   UNL     1      -8.896  13.392  65.665  1.00  0.00     0.000 HD 
BRANCH  11  13
HETATM   13  C   UNL     1      -8.076  13.263  67.631  1.00  0.00    -0.174 A  
HETATM   14  C   UNL     1      -7.210  14.154  68.244  1.00  0.00    -0.116 A  
HETATM   15  C   UNL     1      -6.425  13.623  69.240  1.00  0.00    -0.110 A  
HETATM   16  N   UNL     1      -8.143  11.964  68.012  1.00  0.00    -0.141 NA 
HETATM   17  C   UNL     1      -7.349  11.528  69.011  1.00  0.00    -0.094 A  
HETATM   18  N   UNL     1      -6.465  12.328  69.623  1.00  0.00    -0.107 NA 
BRANCH  14  19
HETATM   19  C   UNL     1      -7.042  15.585  67.904  1.00  0.00    -0.139 C  
HETATM   20  O   UNL     1      -6.621  15.894  66.795  1.00  0.00    -0.254 OA 
HETATM   21  N   UNL     1      -7.405  16.512  68.852  1.00  0.00    -0.207 N  
HETATM   22  H   UNL     1      -7.802  16.186  69.733  1.00  0.00     0.000 HD 
BRANCH  21  23
HETATM   23  C   UNL     1      -7.243  17.942  68.641  1.00  0.00    -0.272 C  
BRANCH  23  24
HETATM   24  C   UNL     1      -8.415  18.621  67.954  1.00  0.00    -0.276 A  
HETATM   25  N   UNL     1      -8.155  19.263  66.794  1.00  0.00    -0.264 NA 
HETATM   26  C   UNL     1      -9.202  19.826  66.162  1.00  0.00    -0.350 A  
HETATM   27  N   UNL     1      -9.643  18.542  68.517  1.00  0.00    -0.343 NA 
HETATM   28  C   UNL     1     -10.653  19.116  67.833  1.00  0.00    -0.365 A  
HETATM   29  C   UNL     1     -10.488  19.779  66.640  1.00  0.00    -0.615 A  
ENDBRANCH  23  24
ENDBRANCH  21  23
ENDBRANCH  14  19
BRANCH  17  30
HETATM   30  N   UNL     1      -7.433  10.227  69.419  1.00  0.00    -0.113 NA 
HETATM   31  C   UNL     1      -7.910   7.942  68.992  1.00  0.00    -0.110 C  
HETATM   32  C   UNL     1      -6.320   9.505  69.995  1.00  0.00    -0.054 C  
HETATM   33  C   UNL     1      -8.530   9.349  69.014  1.00  0.00    -0.129 C  
HETATM   34  C   UNL     1      -6.457   8.095  69.430  1.00  0.00    -0.035 C  
BRANCH  33  35
HETATM   35  C   UNL     1      -9.683   9.447  70.034  1.00  0.00    -0.224 C  
HETATM   36  O   UNL     1     -10.912   8.966  69.483  1.00  0.00    -0.368 OA 
HETATM   37  H   UNL     1     -11.622   9.027  70.111  1.00  0.00     0.000 HD 
ENDBRANCH  33  35
ENDBRANCH  17  30
ENDBRANCH  11  13
ENDBRANCH  10  11
ENDBRANCH   7  10
ENDBRANCH   2   3
TORSDOF 9
ENDMDL
MODEL      132
REMARK 921   NORMALIZED FREE ENERGY PREDICTED BY IDOCK:   -5.46 KCAL/MOL
REMARK 922        TOTAL FREE ENERGY PREDICTED BY IDOCK:   -9.86 KCAL/MOL
REMARK 923 INTER-LIGAND FREE ENERGY PREDICTED BY IDOCK:   -8.59 KCAL/MOL
REMARK 924 INTRA-LIGAND FREE ENERGY PREDICTED BY IDOCK:   -1.27 KCAL/MOL
REMARK 927      BINDING AFFINITY PREDICTED BY RF-SCORE:    0.00 PKD
ROOT
HETATM    1  C   UNL     1      -7.388   5.421  69.225  1.00  0.00    -0.065 C  
HETATM    2  O   UNL     1      -8.321   5.818  70.220  1.00  0.00    -0.113 OA 
ENDROOT
BRANCH   2   3
HETATM    3  C   UNL     1      -8.893   7.055  70.080  1.00  0.00    -0.142 A  
HETATM    4  C   UNL     1     -10.088   7.130  69.347  1.00  0.00    -0.176 A  
HETATM    5 CL   UNL     1     -10.752   5.737  68.563  1.00  0.00    -0.303 Cl 
HETATM    6  C   UNL     1     -10.775   8.342  69.214  1.00  0.00    -0.139 A  
HETATM    7  C   UNL     1     -10.287   9.504  69.826  1.00  0.00    -0.251 A  
HETATM    8  C   UNL     1      -8.393   8.222  70.665  1.00  0.00    -0.121 A  
HETATM    9  C   UNL     1      -9.079   9.435  70.532  1.00  0.00    -0.308 A  
BRANCH   7  10
HETATM   10  C   UNL     1     -11.024  10.817  69.684  1.00  0.00    -0.264 C  
BRANCH  10  11
HETATM   11  N   UNL     1     -10.084  11.800  69.173  1.00  0.00    -0.417 NA 
HETATM   12  H   UNL     1      -9.505  12.369  69.791  1.00  0.00     0.000 HD 
BRANCH  11  13
HETATM   13  C   UNL     1     -10.023  11.920  67.771  1.00  0.00    -0.186 A  
HETATM   14  C   UNL     1     -10.455  13.089  67.164  1.00  0.00    -0.243 A  
HETATM   15  C   UNL     1     -10.317  13.132  65.797  1.00  0.00    -0.289 A  
HETATM   16  N   UNL     1      -9.488  10.904  67.048  1.00  0.00    -0.164 NA 
HETATM   17  C   UNL     1      -9.373  11.035  65.712  1.00  0.00    -0.211 A  
HETATM   18  N   UNL     1      -9.801  12.124  65.059  1.00  0.00    -0.208 NA 
BRANCH  14  19
HETATM   19  C   UNL     1     -11.065  14.253  67.846  1.00  0.00    -0.278 C  
HETATM   20  O   UNL     1     -12.034  14.082  68.577  1.00  0.00    -0.349 OA 
HETATM   21  N   UNL     1     -10.484  15.483  67.649  1.00  0.00    -0.273 N  
HETATM   22  H   UNL     1      -9.645  15.545  67.073  1.00  0.00     0.000 HD 
BRANCH  21  23
HETATM   23  C   UNL     1     -11.025  16.700  68.235  1.00  0.00    -0.341 C  
BRANCH  23  24
HETATM   24  C   UNL     1     -10.309  17.975  67.825  1.00  0.00    -0.393 A  
HETATM   25  N   UNL     1     -10.585  18.463  66.596  1.00  0.00    -0.367 NA 
HETATM   26  C   UNL     1      -9.984  19.617  66.250  1.00  0.00    -0.466 A  
HETATM   27  N   UNL     1      -9.455  18.559  68.697  1.00  0.00    -0.345 NA 
HETATM   28  C   UNL     1      -8.891  19.717  68.299  1.00  0.00    -0.311 A  
HETATM   29  C   UNL     1      -9.121  20.297  67.073  1.00  0.00    -0.481 A  
ENDBRANCH  23  24
ENDBRANCH  21  23
ENDBRANCH  14  19
BRANCH  17  30
HETATM   30  N   UNL     1      -8.807  10.027  64.983  1.00  0.00    -0.171 NA 
HETATM   31  C   UNL     1      -6.939   9.040  63.903  1.00  0.00    -0.088 C  
HETATM   32  C   UNL     1      -8.832   8.641  65.396  1.00  0.00    -0.155 C  
HETATM   33  C   UNL     1      -7.846  10.281  63.910  1.00  0.00    -0.115 C  
HETATM   34  C   UNL     1      -7.466   8.103  64.985  1.00  0.00    -0.087 C  
BRANCH  33  35
HETATM   35  C   UNL     1      -8.592  10.448  62.570  1.00  0.00    -0.210 C  
HETATM   36  O   UNL     1      -9.941   9.980  62.659  1.00  0.00    -0.557 OA 
HETATM   37  H   UNL     1     -10.400  10.082  61.834  1.00  0.00     0.000 HD 
ENDBRANCH  33  35
ENDBRANCH  17  30
ENDBRANCH  11  13
ENDBRANCH  10  11
ENDBRANCH   7  10
ENDBRANCH   2   3
TORSDOF 9
ENDMDL
MODEL      133
REMARK 921   NORMALIZED FREE ENERGY PREDICTED BY IDOCK:   -5.44 KCAL/MOL
REMARK 922        TOTAL FREE ENERGY PREDICTED BY IDOCK:   -9.83 KCAL/MOL
REMARK 923 INTER-LIGAND FREE ENERGY PREDICTED BY IDOCK:   -7.94 KCAL/MOL
REMARK 924 INTRA-LIGAND FREE ENERGY PREDICTED BY IDOCK:   -1.90 KCAL/MOL
REMARK 927      BINDING AFFINITY PREDICTED BY RF-SCORE:    0.00 PKD
ROOT
HETATM    1  C   UNL     1     -10.555   5.542  73.587  1.00  0.00    -0.282 C  
HETATM    2  O   UNL     1     -11.242   5.620  72.346  1.00  0.00    -0.268 OA 
ENDROOT
BRANCH   2   3
HETATM    3  C   UNL     1     -11.350   6.859  71.771  1.00  0.00    -0.261 A  
HETATM    4  C   UNL     1     -10.992   6.973  70.418  1.00  0.00    -0.268 A  
HETATM    5 CL   UNL     1     -10.340   5.629  69.544  1.00  0.00    -0.317 Cl 
HETATM    6  C   UNL     1     -11.137   8.186  69.735  1.00  0.00    -0.058 A  
HETATM    7  C   UNL     1     -11.660   9.309  70.389  1.00  0.00    -0.215 A  
HETATM    8  C   UNL     1     -11.844   7.989  72.429  1.00  0.00    -0.429 A  
HETATM    9  C   UNL     1     -11.989   9.203  71.746  1.00  0.00    -0.449 A  
BRANCH   7  10
HETATM   10  C   UNL     1     -11.818  10.623  69.657  1.00  0.00    -0.286 C  
BRANCH  10  11
HETATM   11  N   UNL     1     -10.539  11.310  69.698  1.00  0.00    -0.454 NA 
HETATM   12  H   UNL     1     -10.021  11.439  70.567  1.00  0.00     0.000 HD 
BRANCH  11  13
HETATM   13  C   UNL     1     -10.060  11.790  68.463  1.00  0.00    -0.207 A  
HETATM   14  C   UNL     1      -8.697  11.794  68.213  1.00  0.00    -0.167 A  
HETATM   15  C   UNL     1      -8.325  12.238  66.966  1.00  0.00    -0.168 A  
HETATM   16  N   UNL     1     -10.953  12.185  67.521  1.00  0.00    -0.244 NA 
HETATM   17  C   UNL     1     -10.504  12.589  66.316  1.00  0.00    -0.246 A  
HETATM   18  N   UNL     1      -9.199  12.650  66.021  1.00  0.00    -0.062 NA 
BRANCH  14  19
HETATM   19  C   UNL     1      -7.633  11.400  69.165  1.00  0.00    -0.038 C  
HETATM   20  O   UNL     1      -6.736  12.193  69.426  1.00  0.00    -0.107 OA 
HETATM   21  N   UNL     1      -7.725  10.157  69.743  1.00  0.00    -0.162 N  
HETATM   22  H   UNL     1      -8.529   9.569  69.524  1.00  0.00     0.000 HD 
BRANCH  21  23
HETATM   23  C   UNL     1      -6.714   9.649  70.659  1.00  0.00    -0.116 C  
BRANCH  23  24
HETATM   24  C   UNL     1      -6.644   8.135  70.753  1.00  0.00    -0.037 A  
HETATM   25  N   UNL     1      -5.927   7.496  69.802  1.00  0.00    -0.024 NA 
HETATM   26  C   UNL     1      -5.828   6.158  69.911  1.00  0.00    -0.018 A  
HETATM   27  N   UNL     1      -7.280   7.509  71.770  1.00  0.00    -0.062 NA 
HETATM   28  C   UNL     1      -7.137   6.170  71.832  1.00  0.00    -0.086 A  
HETATM   29  C   UNL     1      -6.416   5.435  70.919  1.00  0.00    -0.035 A  
ENDBRANCH  23  24
ENDBRANCH  21  23
ENDBRANCH  14  19
BRANCH  17  30
HETATM   30  N   UNL     1     -11.402  12.960  65.354  1.00  0.00    -0.295 NA 
HETATM   31  C   UNL     1     -11.938  13.467  63.099  1.00  0.00    -0.089 C  
HETATM   32  C   UNL     1     -12.628  12.239  65.096  1.00  0.00     0.032 C  
HETATM   33  C   UNL     1     -11.060  13.898  64.285  1.00  0.00    -0.233 C  
HETATM   34  C   UNL     1     -12.782  12.291  63.580  1.00  0.00    -0.526 C  
BRANCH  33  35
HETATM   35  C   UNL     1     -11.376  15.339  64.734  1.00  0.00    -0.391 C  
HETATM   36  O   UNL     1     -11.841  16.138  63.642  1.00  0.00    -1.370 OA 
HETATM   37  H   UNL     1     -12.036  17.025  63.918  1.00  0.00     0.000 HD 
ENDBRANCH  33  35
ENDBRANCH  17  30
ENDBRANCH  11  13
ENDBRANCH  10  11
ENDBRANCH   7  10
ENDBRANCH   2   3
TORSDOF 9
ENDMDL
MODEL      134
REMARK 921   NORMALIZED FREE ENERGY PREDICTED BY IDOCK:   -5.44 KCAL/MOL
REMARK 922        TOTAL FREE ENERGY PREDICTED BY IDOCK:   -9.83 KCAL/MOL
REMARK 923 INTER-LIGAND FREE ENERGY PREDICTED BY IDOCK:   -8.30 KCAL/MOL
REMARK 924 INTRA-LIGAND FREE ENERGY PREDICTED BY IDOCK:   -1.53 KCAL/MOL
REMARK 927      BINDING AFFINITY PREDICTED BY RF-SCORE:    0.00 PKD
ROOT
HETATM    1  C   UNL     1     -14.179  14.314  72.205  1.00  0.00    -0.496 C  
HETATM    2  O   UNL     1     -12.826  13.916  72.029  1.00  0.00    -0.326 OA 
ENDROOT
BRANCH   2   3
HETATM    3  C   UNL     1     -12.405  13.689  70.746  1.00  0.00    -0.371 A  
HETATM    4  C   UNL     1     -12.225  12.352  70.356  1.00  0.00    -0.287 A  
HETATM    5 CL   UNL     1     -12.423  11.053  71.482  1.00  0.00    -0.427 Cl 
HETATM    6  C   UNL     1     -11.864  12.028  69.043  1.00  0.00    -0.372 A  
HETATM    7  C   UNL     1     -11.690  13.036  68.087  1.00  0.00    -0.391 A  
HETATM    8  C   UNL     1     -12.202  14.695  69.797  1.00  0.00    -0.347 A  
HETATM    9  C   UNL     1     -11.841  14.372  68.483  1.00  0.00    -0.369 A  
BRANCH   7  10
HETATM   10  C   UNL     1     -11.298  12.693  66.667  1.00  0.00    -0.326 C  
BRANCH  10  11
HETATM   11  N   UNL     1     -10.238  11.702  66.727  1.00  0.00    -0.213 NA 
HETATM   12  H   UNL     1     -10.418  10.707  66.591  1.00  0.00     0.000 HD 
BRANCH  11  13
HETATM   13  C   UNL     1      -8.946  12.200  66.984  1.00  0.00    -0.201 A  
HETATM   14  C   UNL     1      -7.885  11.317  67.108  1.00  0.00    -0.151 A  
HETATM   15  C   UNL     1      -6.655  11.897  67.315  1.00  0.00    -0.141 A  
HETATM   16  N   UNL     1      -8.761  13.542  67.048  1.00  0.00    -0.211 NA 
HETATM   17  C   UNL     1      -7.518  14.028  67.235  1.00  0.00    -0.029 A  
HETATM   18  N   UNL     1      -6.454  13.230  67.397  1.00  0.00    -0.258 NA 
BRANCH  14  19
HETATM   19  C   UNL     1      -7.968   9.840  67.070  1.00  0.00    -0.105 C  
HETATM   20  O   UNL     1      -8.046   9.270  65.987  1.00  0.00    -0.108 OA 
HETATM   21  N   UNL     1      -7.919   9.167  68.267  1.00  0.00    -0.103 N  
HETATM   22  H   UNL     1      -7.797   9.701  69.128  1.00  0.00     0.000 HD 
BRANCH  21  23
HETATM   23  C   UNL     1      -8.036   7.719  68.350  1.00  0.00    -0.124 C  
BRANCH  23  24
HETATM   24  C   UNL     1      -9.191   7.223  69.203  1.00  0.00    -0.139 A  
HETATM   25  N   UNL     1      -9.156   7.531  70.518  1.00  0.00    -0.156 NA 
HETATM   26  C   UNL     1     -10.201   7.129  71.265  1.00  0.00    -0.190 A  
HETATM   27  N   UNL     1     -10.187   6.519  68.616  1.00  0.00    -0.160 NA 
HETATM   28  C   UNL     1     -11.210   6.152  69.413  1.00  0.00    -0.396 A  
HETATM   29  C   UNL     1     -11.270   6.432  70.758  1.00  0.00    -0.386 A  
ENDBRANCH  23  24
ENDBRANCH  21  23
ENDBRANCH  14  19
BRANCH  17  30
HETATM   30  N   UNL     1      -7.322  15.381  67.270  1.00  0.00    -0.208 NA 
HETATM   31  C   UNL     1      -5.920  17.282  67.054  1.00  0.00    -0.199 C  
HETATM   32  C   UNL     1      -8.085  16.312  66.470  1.00  0.00    -0.302 C  
HETATM   33  C   UNL     1      -6.121  15.982  67.850  1.00  0.00    -0.133 C  
HETATM   34  C   UNL     1      -7.069  17.370  66.055  1.00  0.00    -0.259 C  
BRANCH  33  35
HETATM   35  C   UNL     1      -6.348  16.261  69.349  1.00  0.00    -0.184 C  
HETATM   36  O   UNL     1      -6.460  17.663  69.610  1.00  0.00    -0.230 OA 
HETATM   37  H   UNL     1      -6.600  17.836  70.533  1.00  0.00     0.000 HD 
ENDBRANCH  33  35
ENDBRANCH  17  30
ENDBRANCH  11  13
ENDBRANCH  10  11
ENDBRANCH   7  10
ENDBRANCH   2   3
TORSDOF 9
ENDMDL
MODEL      135
REMARK 921   NORMALIZED FREE ENERGY PREDICTED BY IDOCK:   -5.44 KCAL/MOL
REMARK 922        TOTAL FREE ENERGY PREDICTED BY IDOCK:   -9.82 KCAL/MOL
REMARK 923 INTER-LIGAND FREE ENERGY PREDICTED BY IDOCK:   -8.25 KCAL/MOL
REMARK 924 INTRA-LIGAND FREE ENERGY PREDICTED BY IDOCK:   -1.58 KCAL/MOL
REMARK 927      BINDING AFFINITY PREDICTED BY RF-SCORE:    0.00 PKD
ROOT
HETATM    1  C   UNL     1     -10.650   3.833  73.131  1.00  0.00    -0.182 C  
HETATM    2  O   UNL     1     -10.734   5.052  73.856  1.00  0.00    -0.271 OA 
ENDROOT
BRANCH   2   3
HETATM    3  C   UNL     1     -10.851   6.205  73.126  1.00  0.00    -0.254 A  
HETATM    4  C   UNL     1      -9.880   7.197  73.332  1.00  0.00    -0.259 A  
HETATM    5 CL   UNL     1      -8.649   7.016  74.535  1.00  0.00    -0.210 Cl 
HETATM    6  C   UNL     1      -9.885   8.376  72.578  1.00  0.00    -0.359 A  
HETATM    7  C   UNL     1     -10.856   8.581  71.588  1.00  0.00    -0.356 A  
HETATM    8  C   UNL     1     -11.836   6.424  72.158  1.00  0.00    -0.361 A  
HETATM    9  C   UNL     1     -11.842   7.603  71.404  1.00  0.00    -0.320 A  
BRANCH   7  10
HETATM   10  C   UNL     1     -10.868   9.853  70.771  1.00  0.00    -0.317 C  
BRANCH  10  11
HETATM   11  N   UNL     1     -11.561   9.574  69.526  1.00  0.00    -0.433 NA 
HETATM   12  H   UNL     1     -12.573   9.460  69.482  1.00  0.00     0.000 HD 
BRANCH  11  13
HETATM   13  C   UNL     1     -10.747   9.470  68.380  1.00  0.00    -0.186 A  
HETATM   14  C   UNL     1     -10.646  10.546  67.513  1.00  0.00    -0.306 A  
HETATM   15  C   UNL     1      -9.796  10.368  66.447  1.00  0.00    -0.213 A  
HETATM   16  N   UNL     1     -10.034   8.333  68.184  1.00  0.00    -0.184 NA 
HETATM   17  C   UNL     1      -9.208   8.249  67.122  1.00  0.00    -0.144 A  
HETATM   18  N   UNL     1      -9.089   9.238  66.226  1.00  0.00    -0.160 NA 
BRANCH  14  19
HETATM   19  C   UNL     1     -11.383  11.826  67.619  1.00  0.00    -0.302 C  
HETATM   20  O   UNL     1     -12.024  12.232  66.656  1.00  0.00    -0.598 OA 
HETATM   21  N   UNL     1     -11.339  12.489  68.821  1.00  0.00    -0.271 N  
HETATM   22  H   UNL     1     -10.832  12.065  69.599  1.00  0.00     0.000 HD 
BRANCH  21  23
HETATM   23  C   UNL     1     -11.990  13.774  69.025  1.00  0.00    -0.360 C  
BRANCH  23  24
HETATM   24  C   UNL     1     -11.086  14.981  68.840  1.00  0.00    -0.266 A  
HETATM   25  N   UNL     1     -11.302  16.037  69.655  1.00  0.00    -0.327 NA 
HETATM   26  C   UNL     1     -10.472  17.088  69.520  1.00  0.00    -0.182 A  
HETATM   27  N   UNL     1     -10.118  14.939  67.895  1.00  0.00    -0.226 NA 
HETATM   28  C   UNL     1      -9.313  16.017  67.814  1.00  0.00    -0.211 A  
HETATM   29  C   UNL     1      -9.446  17.132  68.609  1.00  0.00    -0.275 A  
ENDBRANCH  23  24
ENDBRANCH  21  23
ENDBRANCH  14  19
BRANCH  17  30
HETATM   30  N   UNL     1      -8.465   7.117  66.936  1.00  0.00    -0.120 NA 
HETATM   31  C   UNL     1      -8.064   4.809  67.315  1.00  0.00    -0.102 C  
HETATM   32  C   UNL     1      -8.159   6.577  65.630  1.00  0.00    -0.128 C  
HETATM   33  C   UNL     1      -8.196   6.170  68.018  1.00  0.00    -0.114 C  
HETATM   34  C   UNL     1      -8.237   5.066  65.822  1.00  0.00    -0.115 C  
BRANCH  33  35
HETATM   35  C   UNL     1      -6.895   6.564  68.746  1.00  0.00    -0.070 C  
HETATM   36  O   UNL     1      -7.142   6.901  70.114  1.00  0.00    -0.067 OA 
HETATM   37  H   UNL     1      -6.341   7.144  70.563  1.00  0.00     0.000 HD 
ENDBRANCH  33  35
ENDBRANCH  17  30
ENDBRANCH  11  13
ENDBRANCH  10  11
ENDBRANCH   7  10
ENDBRANCH   2   3
TORSDOF 9
ENDMDL
MODEL      136
REMARK 921   NORMALIZED FREE ENERGY PREDICTED BY IDOCK:   -5.43 KCAL/MOL
REMARK 922        TOTAL FREE ENERGY PREDICTED BY IDOCK:   -9.82 KCAL/MOL
REMARK 923 INTER-LIGAND FREE ENERGY PREDICTED BY IDOCK:   -8.12 KCAL/MOL
REMARK 924 INTRA-LIGAND FREE ENERGY PREDICTED BY IDOCK:   -1.70 KCAL/MOL
REMARK 927      BINDING AFFINITY PREDICTED BY RF-SCORE:    0.00 PKD
ROOT
HETATM    1  C   UNL     1      -7.816   2.029  67.592  1.00  0.00    -0.060 C  
HETATM    2  O   UNL     1      -7.890   2.819  66.413  1.00  0.00    -0.076 OA 
ENDROOT
BRANCH   2   3
HETATM    3  C   UNL     1      -8.473   4.053  66.525  1.00  0.00    -0.105 A  
HETATM    4  C   UNL     1      -7.617   5.162  66.612  1.00  0.00    -0.088 A  
HETATM    5 CL   UNL     1      -5.899   4.969  66.683  1.00  0.00    -0.021 Cl 
HETATM    6  C   UNL     1      -8.130   6.464  66.658  1.00  0.00    -0.110 A  
HETATM    7  C   UNL     1      -9.512   6.684  66.603  1.00  0.00    -0.201 A  
HETATM    8  C   UNL     1      -9.853   4.274  66.499  1.00  0.00    -0.238 A  
HETATM    9  C   UNL     1     -10.367   5.576  66.546  1.00  0.00    -0.309 A  
BRANCH   7  10
HETATM   10  C   UNL     1     -10.072   8.088  66.655  1.00  0.00    -0.259 C  
BRANCH  10  11
HETATM   11  N   UNL     1     -10.987   8.159  67.780  1.00  0.00    -0.492 NA 
HETATM   12  H   UNL     1     -11.999   8.120  67.660  1.00  0.00     0.000 HD 
BRANCH  11  13
HETATM   13  C   UNL     1     -10.390   8.287  69.050  1.00  0.00    -0.221 A  
HETATM   14  C   UNL     1     -10.032   9.542  69.515  1.00  0.00    -0.205 A  
HETATM   15  C   UNL     1      -9.497   9.573  70.781  1.00  0.00    -0.168 A  
HETATM   16  N   UNL     1     -10.231   7.178  69.814  1.00  0.00    -0.202 NA 
HETATM   17  C   UNL     1      -9.714   7.299  71.053  1.00  0.00    -0.169 A  
HETATM   18  N   UNL     1      -9.316   8.477  71.551  1.00  0.00    -0.199 NA 
BRANCH  14  19
HETATM   19  C   UNL     1     -10.146  10.815  68.768  1.00  0.00    -0.191 C  
HETATM   20  O   UNL     1      -9.168  11.548  68.676  1.00  0.00    -0.186 OA 
HETATM   21  N   UNL     1     -11.353  11.101  68.177  1.00  0.00    -0.289 N  
HETATM   22  H   UNL     1     -12.109  10.420  68.246  1.00  0.00     0.000 HD 
BRANCH  21  23
HETATM   23  C   UNL     1     -11.590  12.343  67.456  1.00  0.00    -0.365 C  
BRANCH  23  24
HETATM   24  C   UNL     1     -11.396  12.251  65.952  1.00  0.00    -0.360 A  
HETATM   25  N   UNL     1     -12.472  12.521  65.180  1.00  0.00    -0.628 NA 
HETATM   26  C   UNL     1     -12.288  12.483  63.847  1.00  0.00    -0.485 A  
HETATM   27  N   UNL     1     -10.177  11.924  65.465  1.00  0.00    -0.245 NA 
HETATM   28  C   UNL     1     -10.053  11.912  64.123  1.00  0.00    -0.310 A  
HETATM   29  C   UNL     1     -11.085  12.185  63.257  1.00  0.00    -0.408 A  
ENDBRANCH  23  24
ENDBRANCH  21  23
ENDBRANCH  14  19
BRANCH  17  30
HETATM   30  N   UNL     1      -9.580   6.188  71.839  1.00  0.00    -0.154 NA 
HETATM   31  C   UNL     1      -9.739   3.844  72.165  1.00  0.00    -0.225 C  
HETATM   32  C   UNL     1      -8.340   5.822  72.486  1.00  0.00    -0.117 C  
HETATM   33  C   UNL     1     -10.558   5.101  71.830  1.00  0.00    -0.168 C  
HETATM   34  C   UNL     1      -8.301   4.301  72.385  1.00  0.00    -0.104 C  
BRANCH  33  35
HETATM   35  C   UNL     1     -11.648   5.370  72.887  1.00  0.00    -0.228 C  
HETATM   36  O   UNL     1     -12.544   6.402  72.465  1.00  0.00    -0.531 OA 
HETATM   37  H   UNL     1     -13.215   6.568  73.116  1.00  0.00     0.000 HD 
ENDBRANCH  33  35
ENDBRANCH  17  30
ENDBRANCH  11  13
ENDBRANCH  10  11
ENDBRANCH   7  10
ENDBRANCH   2   3
TORSDOF 9
ENDMDL
MODEL      137
REMARK 921   NORMALIZED FREE ENERGY PREDICTED BY IDOCK:   -5.42 KCAL/MOL
REMARK 922        TOTAL FREE ENERGY PREDICTED BY IDOCK:   -9.80 KCAL/MOL
REMARK 923 INTER-LIGAND FREE ENERGY PREDICTED BY IDOCK:   -7.98 KCAL/MOL
REMARK 924 INTRA-LIGAND FREE ENERGY PREDICTED BY IDOCK:   -1.82 KCAL/MOL
REMARK 927      BINDING AFFINITY PREDICTED BY RF-SCORE:    0.00 PKD
ROOT
HETATM    1  C   UNL     1     -10.170   5.359  73.850  1.00  0.00    -0.237 C  
HETATM    2  O   UNL     1     -11.034   5.535  72.735  1.00  0.00    -0.241 OA 
ENDROOT
BRANCH   2   3
HETATM    3  C   UNL     1     -11.054   6.775  72.153  1.00  0.00    -0.250 A  
HETATM    4  C   UNL     1     -10.906   6.832  70.758  1.00  0.00    -0.249 A  
HETATM    5 CL   UNL     1     -10.603   5.405  69.827  1.00  0.00    -0.383 Cl 
HETATM    6  C   UNL     1     -10.985   8.051  70.076  1.00  0.00    -0.202 A  
HETATM    7  C   UNL     1     -11.229   9.240  70.775  1.00  0.00    -0.351 A  
HETATM    8  C   UNL     1     -11.269   7.967  72.852  1.00  0.00    -0.429 A  
HETATM    9  C   UNL     1     -11.347   9.187  72.169  1.00  0.00    -0.209 A  
BRANCH   7  10
HETATM   10  C   UNL     1     -11.313  10.561  70.043  1.00  0.00    -0.318 C  
BRANCH  10  11
HETATM   11  N   UNL     1     -10.047  10.773  69.363  1.00  0.00    -0.385 NA 
HETATM   12  H   UNL     1      -9.151  10.612  69.823  1.00  0.00     0.000 HD 
BRANCH  11  13
HETATM   13  C   UNL     1     -10.134  11.215  68.028  1.00  0.00    -0.174 A  
HETATM   14  C   UNL     1      -9.949  10.311  66.994  1.00  0.00    -0.249 A  
HETATM   15  C   UNL     1     -10.095  10.824  65.727  1.00  0.00    -0.261 A  
HETATM   16  N   UNL     1     -10.454  12.511  67.786  1.00  0.00    -0.216 NA 
HETATM   17  C   UNL     1     -10.596  12.928  66.512  1.00  0.00    -0.259 A  
HETATM   18  N   UNL     1     -10.398  12.115  65.466  1.00  0.00    -0.255 NA 
BRANCH  14  19
HETATM   19  C   UNL     1      -9.586   8.883  67.137  1.00  0.00    -0.172 C  
HETATM   20  O   UNL     1     -10.318   8.025  66.659  1.00  0.00    -0.297 OA 
HETATM   21  N   UNL     1      -8.408   8.587  67.781  1.00  0.00    -0.128 N  
HETATM   22  H   UNL     1      -7.817   9.353  68.105  1.00  0.00     0.000 HD 
BRANCH  21  23
HETATM   23  C   UNL     1      -7.974   7.218  68.015  1.00  0.00    -0.119 C  
BRANCH  23  24
HETATM   24  C   UNL     1      -7.204   7.008  69.307  1.00  0.00    -0.086 A  
HETATM   25  N   UNL     1      -7.604   7.725  70.380  1.00  0.00    -0.085 NA 
HETATM   26  C   UNL     1      -6.949   7.506  71.536  1.00  0.00    -0.054 A  
HETATM   27  N   UNL     1      -6.182   6.121  69.327  1.00  0.00    -0.032 NA 
HETATM   28  C   UNL     1      -5.571   5.938  70.515  1.00  0.00    -0.013 A  
HETATM   29  C   UNL     1      -5.916   6.611  71.664  1.00  0.00    -0.037 A  
ENDBRANCH  23  24
ENDBRANCH  21  23
ENDBRANCH  14  19
BRANCH  17  30
HETATM   30  N   UNL     1     -10.947  14.225  66.264  1.00  0.00    -0.312 NA 
HETATM   31  C   UNL     1     -10.388  16.517  66.009  1.00  0.00    -0.358 C  
HETATM   32  C   UNL     1     -11.638  14.642  65.063  1.00  0.00    -0.385 C  
HETATM   33  C   UNL     1     -10.375  15.347  67.007  1.00  0.00    -0.280 C  
HETATM   34  C   UNL     1     -11.014  15.991  64.722  1.00  0.00    -0.373 C  
BRANCH  33  35
HETATM   35  C   UNL     1     -11.241  15.647  68.248  1.00  0.00    -0.353 C  
HETATM   36  O   UNL     1     -10.499  15.474  69.458  1.00  0.00    -0.226 OA 
HETATM   37  H   UNL     1     -11.031  15.659  70.223  1.00  0.00     0.000 HD 
ENDBRANCH  33  35
ENDBRANCH  17  30
ENDBRANCH  11  13
ENDBRANCH  10  11
ENDBRANCH   7  10
ENDBRANCH   2   3
TORSDOF 9
ENDMDL
MODEL      138
REMARK 921   NORMALIZED FREE ENERGY PREDICTED BY IDOCK:   -5.42 KCAL/MOL
REMARK 922        TOTAL FREE ENERGY PREDICTED BY IDOCK:   -9.80 KCAL/MOL
REMARK 923 INTER-LIGAND FREE ENERGY PREDICTED BY IDOCK:   -8.11 KCAL/MOL
REMARK 924 INTRA-LIGAND FREE ENERGY PREDICTED BY IDOCK:   -1.69 KCAL/MOL
REMARK 927      BINDING AFFINITY PREDICTED BY RF-SCORE:    0.00 PKD
ROOT
HETATM    1  C   UNL     1     -10.097   6.151  74.144  1.00  0.00    -0.295 C  
HETATM    2  O   UNL     1     -11.251   5.893  73.356  1.00  0.00    -0.190 OA 
ENDROOT
BRANCH   2   3
HETATM    3  C   UNL     1     -11.161   6.158  72.015  1.00  0.00    -0.286 A  
HETATM    4  C   UNL     1     -11.580   7.426  71.582  1.00  0.00    -0.270 A  
HETATM    5 CL   UNL     1     -12.279   8.567  72.680  1.00  0.00    -0.392 Cl 
HETATM    6  C   UNL     1     -11.457   7.804  70.240  1.00  0.00    -0.117 A  
HETATM    7  C   UNL     1     -10.898   6.925  69.304  1.00  0.00    -0.270 A  
HETATM    8  C   UNL     1     -10.631   5.271  71.073  1.00  0.00    -0.240 A  
HETATM    9  C   UNL     1     -10.509   5.649  69.730  1.00  0.00    -0.377 A  
BRANCH   7  10
HETATM   10  C   UNL     1     -10.765   7.327  67.852  1.00  0.00    -0.172 C  
BRANCH  10  11
HETATM   11  N   UNL     1      -9.645   8.244  67.746  1.00  0.00    -0.145 NA 
HETATM   12  H   UNL     1      -8.825   8.171  68.349  1.00  0.00     0.000 HD 
BRANCH  11  13
HETATM   13  C   UNL     1      -9.759   9.243  66.759  1.00  0.00    -0.200 A  
HETATM   14  C   UNL     1      -9.140   9.066  65.532  1.00  0.00    -0.271 A  
HETATM   15  C   UNL     1      -9.343  10.072  64.617  1.00  0.00    -0.279 A  
HETATM   16  N   UNL     1     -10.524  10.333  67.015  1.00  0.00    -0.242 NA 
HETATM   17  C   UNL     1     -10.687  11.265  66.054  1.00  0.00    -0.242 A  
HETATM   18  N   UNL     1     -10.089  11.173  64.859  1.00  0.00    -0.268 NA 
BRANCH  14  19
HETATM   19  C   UNL     1      -8.274   7.929  65.146  1.00  0.00    -0.141 C  
HETATM   20  O   UNL     1      -7.393   7.557  65.912  1.00  0.00    -0.071 OA 
HETATM   21  N   UNL     1      -8.529   7.314  63.944  1.00  0.00    -0.347 N  
HETATM   22  H   UNL     1      -9.316   7.638  63.381  1.00  0.00     0.000 HD 
BRANCH  21  23
HETATM   23  C   UNL     1      -7.715   6.215  63.445  1.00  0.00    -0.098 C  
BRANCH  23  24
HETATM   24  C   UNL     1      -8.289   4.832  63.700  1.00  0.00    -0.120 A  
HETATM   25  N   UNL     1      -9.083   4.313  62.737  1.00  0.00    -0.118 NA 
HETATM   26  C   UNL     1      -9.556   3.070  62.943  1.00  0.00    -0.092 A  
HETATM   27  N   UNL     1      -7.976   4.192  64.850  1.00  0.00    -0.092 NA 
HETATM   28  C   UNL     1      -8.471   2.946  64.995  1.00  0.00    -0.098 A  
HETATM   29  C   UNL     1      -9.275   2.330  64.065  1.00  0.00    -0.113 A  
ENDBRANCH  23  24
ENDBRANCH  21  23
ENDBRANCH  14  19
BRANCH  17  30
HETATM   30  N   UNL     1     -11.481  12.351  66.296  1.00  0.00    -0.351 NA 
HETATM   31  C   UNL     1     -11.755  14.641  66.852  1.00  0.00    -0.366 C  
HETATM   32  C   UNL     1     -12.456  12.844  65.350  1.00  0.00    -0.454 C  
HETATM   33  C   UNL     1     -11.196  13.305  67.368  1.00  0.00    -0.289 C  
HETATM   34  C   UNL     1     -12.375  14.361  65.487  1.00  0.00    -0.352 C  
BRANCH  33  35
HETATM   35  C   UNL     1     -11.897  12.857  68.666  1.00  0.00    -0.312 C  
HETATM   36  O   UNL     1     -10.985  12.208  69.557  1.00  0.00    -0.445 OA 
HETATM   37  H   UNL     1     -11.417  11.932  70.357  1.00  0.00     0.000 HD 
ENDBRANCH  33  35
ENDBRANCH  17  30
ENDBRANCH  11  13
ENDBRANCH  10  11
ENDBRANCH   7  10
ENDBRANCH   2   3
TORSDOF 9
ENDMDL
MODEL      139
REMARK 921   NORMALIZED FREE ENERGY PREDICTED BY IDOCK:   -5.41 KCAL/MOL
REMARK 922        TOTAL FREE ENERGY PREDICTED BY IDOCK:   -9.79 KCAL/MOL
REMARK 923 INTER-LIGAND FREE ENERGY PREDICTED BY IDOCK:   -8.00 KCAL/MOL
REMARK 924 INTRA-LIGAND FREE ENERGY PREDICTED BY IDOCK:   -1.79 KCAL/MOL
REMARK 927      BINDING AFFINITY PREDICTED BY RF-SCORE:    0.00 PKD
ROOT
HETATM    1  C   UNL     1     -10.317   7.029  73.933  1.00  0.00    -0.348 C  
HETATM    2  O   UNL     1     -10.998   7.942  73.083  1.00  0.00    -0.383 OA 
ENDROOT
BRANCH   2   3
HETATM    3  C   UNL     1     -10.281   8.486  72.051  1.00  0.00    -0.321 A  
HETATM    4  C   UNL     1     -10.973   9.318  71.157  1.00  0.00    -0.339 A  
HETATM    5 CL   UNL     1     -12.682   9.560  71.292  1.00  0.00    -0.403 Cl 
HETATM    6  C   UNL     1     -10.303   9.970  70.116  1.00  0.00    -0.321 A  
HETATM    7  C   UNL     1      -8.920   9.815  69.956  1.00  0.00    -0.255 A  
HETATM    8  C   UNL     1      -8.906   8.309  71.871  1.00  0.00    -0.238 A  
HETATM    9  C   UNL     1      -8.235   8.960  70.829  1.00  0.00    -0.198 A  
BRANCH   7  10
HETATM   10  C   UNL     1      -8.190  10.515  68.831  1.00  0.00    -0.141 C  
BRANCH  10  11
HETATM   11  N   UNL     1      -8.256   9.660  67.659  1.00  0.00    -0.114 NA 
HETATM   12  H   UNL     1      -7.895   8.706  67.663  1.00  0.00     0.000 HD 
BRANCH  11  13
HETATM   13  C   UNL     1      -8.850  10.229  66.516  1.00  0.00    -0.137 A  
HETATM   14  C   UNL     1      -8.826   9.537  65.315  1.00  0.00    -0.220 A  
HETATM   15  C   UNL     1      -9.468  10.151  64.266  1.00  0.00    -0.305 A  
HETATM   16  N   UNL     1      -9.484  11.423  66.632  1.00  0.00    -0.185 NA 
HETATM   17  C   UNL     1     -10.105  11.947  65.556  1.00  0.00    -0.245 A  
HETATM   18  N   UNL     1     -10.091  11.347  64.359  1.00  0.00    -0.270 NA 
BRANCH  14  19
HETATM   19  C   UNL     1      -8.158   8.240  65.068  1.00  0.00    -0.148 C  
HETATM   20  O   UNL     1      -7.310   8.159  64.187  1.00  0.00    -0.085 OA 
HETATM   21  N   UNL     1      -8.501   7.182  65.875  1.00  0.00    -0.143 N  
HETATM   22  H   UNL     1      -9.174   7.334  66.627  1.00  0.00     0.000 HD 
BRANCH  21  23
HETATM   23  C   UNL     1      -7.939   5.852  65.694  1.00  0.00    -0.118 C  
BRANCH  23  24
HETATM   24  C   UNL     1      -8.727   4.951  64.759  1.00  0.00    -0.154 A  
HETATM   25  N   UNL     1      -8.105   4.551  63.629  1.00  0.00    -0.092 NA 
HETATM   26  C   UNL     1      -8.787   3.716  62.822  1.00  0.00    -0.091 A  
HETATM   27  N   UNL     1      -9.985   4.587  65.101  1.00  0.00    -0.163 NA 
HETATM   28  C   UNL     1     -10.614   3.743  64.258  1.00  0.00    -0.228 A  
HETATM   29  C   UNL     1     -10.057   3.272  63.092  1.00  0.00    -0.141 A  
ENDBRANCH  23  24
ENDBRANCH  21  23
ENDBRANCH  14  19
BRANCH  17  30
HETATM   30  N   UNL     1     -10.770  13.135  65.675  1.00  0.00    -0.277 NA 
HETATM   31  C   UNL     1     -10.963  15.460  65.245  1.00  0.00    -0.397 C  
HETATM   32  C   UNL     1     -12.141  13.319  65.255  1.00  0.00    -0.418 C  
HETATM   33  C   UNL     1     -10.076  14.399  65.918  1.00  0.00    -0.325 C  
HETATM   34  C   UNL     1     -12.166  14.725  64.665  1.00  0.00    -0.405 C  
BRANCH  33  35
HETATM   35  C   UNL     1      -9.950  14.643  67.436  1.00  0.00    -0.231 C  
HETATM   36  O   UNL     1      -8.755  14.059  67.962  1.00  0.00    -0.162 OA 
HETATM   37  H   UNL     1      -8.677  14.208  68.897  1.00  0.00     0.000 HD 
ENDBRANCH  33  35
ENDBRANCH  17  30
ENDBRANCH  11  13
ENDBRANCH  10  11
ENDBRANCH   7  10
ENDBRANCH   2   3
TORSDOF 9
ENDMDL
MODEL      140
REMARK 921   NORMALIZED FREE ENERGY PREDICTED BY IDOCK:   -5.41 KCAL/MOL
REMARK 922        TOTAL FREE ENERGY PREDICTED BY IDOCK:   -9.78 KCAL/MOL
REMARK 923 INTER-LIGAND FREE ENERGY PREDICTED BY IDOCK:   -8.06 KCAL/MOL
REMARK 924 INTRA-LIGAND FREE ENERGY PREDICTED BY IDOCK:   -1.72 KCAL/MOL
REMARK 927      BINDING AFFINITY PREDICTED BY RF-SCORE:    0.00 PKD
ROOT
HETATM    1  C   UNL     1      -8.262   9.273  62.548  1.00  0.00    -0.156 C  
HETATM    2  O   UNL     1      -7.423   8.622  63.492  1.00  0.00    -0.101 OA 
ENDROOT
BRANCH   2   3
HETATM    3  C   UNL     1      -7.743   8.770  64.816  1.00  0.00    -0.113 A  
HETATM    4  C   UNL     1      -6.887   9.560  65.599  1.00  0.00    -0.087 A  
HETATM    5 CL   UNL     1      -5.431  10.229  64.945  1.00  0.00    -0.105 Cl 
HETATM    6  C   UNL     1      -7.177   9.820  66.944  1.00  0.00    -0.090 A  
HETATM    7  C   UNL     1      -8.341   9.306  67.530  1.00  0.00    -0.119 A  
HETATM    8  C   UNL     1      -8.889   8.235  65.411  1.00  0.00    -0.116 A  
HETATM    9  C   UNL     1      -9.180   8.494  66.756  1.00  0.00    -0.215 A  
BRANCH   7  10
HETATM   10  C   UNL     1      -8.659   9.582  68.982  1.00  0.00    -0.133 C  
BRANCH  10  11
HETATM   11  N   UNL     1     -10.098   9.478  69.148  1.00  0.00    -0.187 NA 
HETATM   12  H   UNL     1     -10.580   8.579  69.156  1.00  0.00     0.000 HD 
BRANCH  11  13
HETATM   13  C   UNL     1     -10.789  10.697  69.299  1.00  0.00    -0.239 A  
HETATM   14  C   UNL     1     -11.784  10.806  70.257  1.00  0.00    -0.442 A  
HETATM   15  C   UNL     1     -12.372  12.045  70.360  1.00  0.00    -0.233 A  
HETATM   16  N   UNL     1     -10.421  11.757  68.537  1.00  0.00    -0.210 NA 
HETATM   17  C   UNL     1     -11.037  12.943  68.715  1.00  0.00    -0.263 A  
HETATM   18  N   UNL     1     -12.030  13.108  69.599  1.00  0.00    -0.317 NA 
BRANCH  14  19
HETATM   19  C   UNL     1     -12.276   9.719  71.133  1.00  0.00    -0.362 C  
HETATM   20  O   UNL     1     -12.555   9.967  72.300  1.00  0.00    -0.280 OA 
HETATM   21  N   UNL     1     -12.431   8.472  70.576  1.00  0.00    -0.326 N  
HETATM   22  H   UNL     1     -12.233   8.349  69.582  1.00  0.00     0.000 HD 
BRANCH  21  23
HETATM   23  C   UNL     1     -12.866   7.322  71.353  1.00  0.00    -0.382 C  
BRANCH  23  24
HETATM   24  C   UNL     1     -11.832   6.219  71.490  1.00  0.00    -0.230 A  
HETATM   25  N   UNL     1     -11.099   5.929  70.392  1.00  0.00    -0.311 NA 
HETATM   26  C   UNL     1     -10.152   4.982  70.525  1.00  0.00    -0.253 A  
HETATM   27  N   UNL     1     -11.686   5.598  72.683  1.00  0.00    -0.268 NA 
HETATM   28  C   UNL     1     -10.715   4.665  72.758  1.00  0.00    -0.204 A  
HETATM   29  C   UNL     1      -9.911   4.313  71.700  1.00  0.00    -0.257 A  
ENDBRANCH  23  24
ENDBRANCH  21  23
ENDBRANCH  14  19
BRANCH  17  30
HETATM   30  N   UNL     1     -10.650  14.022  67.970  1.00  0.00    -0.243 NA 
HETATM   31  C   UNL     1     -11.029  16.205  67.125  1.00  0.00    -0.144 C  
HETATM   32  C   UNL     1      -9.400  14.719  68.178  1.00  0.00    -0.197 C  
HETATM   33  C   UNL     1     -11.586  14.773  67.135  1.00  0.00    -0.359 C  
HETATM   34  C   UNL     1      -9.748  16.186  67.953  1.00  0.00    -0.225 C  
BRANCH  33  35
HETATM   35  C   UNL     1     -11.625  14.166  65.718  1.00  0.00    -0.343 C  
HETATM   36  O   UNL     1     -12.871  13.511  65.463  1.00  0.00    -0.549 OA 
HETATM   37  H   UNL     1     -12.895  13.137  64.590  1.00  0.00     0.000 HD 
ENDBRANCH  33  35
ENDBRANCH  17  30
ENDBRANCH  11  13
ENDBRANCH  10  11
ENDBRANCH   7  10
ENDBRANCH   2   3
TORSDOF 9
ENDMDL
MODEL      141
REMARK 921   NORMALIZED FREE ENERGY PREDICTED BY IDOCK:   -5.39 KCAL/MOL
REMARK 922        TOTAL FREE ENERGY PREDICTED BY IDOCK:   -9.76 KCAL/MOL
REMARK 923 INTER-LIGAND FREE ENERGY PREDICTED BY IDOCK:   -7.64 KCAL/MOL
REMARK 924 INTRA-LIGAND FREE ENERGY PREDICTED BY IDOCK:   -2.12 KCAL/MOL
REMARK 927      BINDING AFFINITY PREDICTED BY RF-SCORE:    0.00 PKD
ROOT
HETATM    1  C   UNL     1      -8.997  15.230  67.555  1.00  0.00    -0.185 C  
HETATM    2  O   UNL     1      -9.473  14.184  68.389  1.00  0.00    -0.207 OA 
ENDROOT
BRANCH   2   3
HETATM    3  C   UNL     1      -9.688  12.966  67.800  1.00  0.00    -0.214 A  
HETATM    4  C   UNL     1      -8.716  11.974  68.005  1.00  0.00    -0.175 A  
HETATM    5 CL   UNL     1      -7.258  12.308  68.875  1.00  0.00    -0.098 Cl 
HETATM    6  C   UNL     1      -8.890  10.681  67.497  1.00  0.00    -0.132 A  
HETATM    7  C   UNL     1     -10.050  10.349  66.786  1.00  0.00    -0.267 A  
HETATM    8  C   UNL     1     -10.831  12.640  67.065  1.00  0.00    -0.282 A  
HETATM    9  C   UNL     1     -11.006  11.347  66.556  1.00  0.00    -0.328 A  
BRANCH   7  10
HETATM   10  C   UNL     1     -10.243   8.955  66.233  1.00  0.00    -0.133 C  
BRANCH  10  11
HETATM   11  N   UNL     1     -10.615   8.087  67.336  1.00  0.00    -0.427 NA 
HETATM   12  H   UNL     1     -11.400   8.300  67.953  1.00  0.00     0.000 HD 
BRANCH  11  13
HETATM   13  C   UNL     1      -9.824   6.933  67.504  1.00  0.00    -0.138 A  
HETATM   14  C   UNL     1      -9.410   6.566  68.774  1.00  0.00    -0.130 A  
HETATM   15  C   UNL     1      -8.680   5.403  68.845  1.00  0.00    -0.097 A  
HETATM   16  N   UNL     1      -9.533   6.175  66.418  1.00  0.00    -0.158 NA 
HETATM   17  C   UNL     1      -8.826   5.038  66.578  1.00  0.00    -0.112 A  
HETATM   18  N   UNL     1      -8.367   4.643  67.772  1.00  0.00    -0.103 NA 
BRANCH  14  19
HETATM   19  C   UNL     1      -9.657   7.319  70.025  1.00  0.00    -0.167 C  
HETATM   20  O   UNL     1      -8.704   7.748  70.666  1.00  0.00    -0.136 OA 
HETATM   21  N   UNL     1     -10.963   7.532  70.394  1.00  0.00    -0.249 N  
HETATM   22  H   UNL     1     -11.709   7.195  69.783  1.00  0.00     0.000 HD 
BRANCH  21  23
HETATM   23  C   UNL     1     -11.321   8.221  71.624  1.00  0.00    -0.272 C  
BRANCH  23  24
HETATM   24  C   UNL     1     -11.852   9.630  71.432  1.00  0.00    -0.406 A  
HETATM   25  N   UNL     1     -11.226  10.400  70.515  1.00  0.00    -0.325 NA 
HETATM   26  C   UNL     1     -11.725  11.634  70.313  1.00  0.00    -0.266 A  
HETATM   27  N   UNL     1     -12.915  10.039  72.164  1.00  0.00    -0.407 NA 
HETATM   28  C   UNL     1     -13.375  11.280  71.911  1.00  0.00    -0.307 A  
HETATM   29  C   UNL     1     -12.813  12.130  70.987  1.00  0.00    -0.258 A  
ENDBRANCH  23  24
ENDBRANCH  21  23
ENDBRANCH  14  19
BRANCH  17  30
HETATM   30  N   UNL     1      -8.555   4.255  65.491  1.00  0.00    -0.117 NA 
HETATM   31  C   UNL     1      -8.121   3.997  63.173  1.00  0.00    -0.081 C  
HETATM   32  C   UNL     1      -7.426   3.355  65.426  1.00  0.00    -0.077 C  
HETATM   33  C   UNL     1      -9.168   4.491  64.184  1.00  0.00    -0.109 C  
HETATM   34  C   UNL     1      -6.946   3.461  63.983  1.00  0.00    -0.049 C  
BRANCH  33  35
HETATM   35  C   UNL     1     -10.486   3.697  64.074  1.00  0.00    -0.265 C  
HETATM   36  O   UNL     1     -11.543   4.334  64.797  1.00  0.00    -0.963 OA 
HETATM   37  H   UNL     1     -12.355   3.845  64.729  1.00  0.00     0.000 HD 
ENDBRANCH  33  35
ENDBRANCH  17  30
ENDBRANCH  11  13
ENDBRANCH  10  11
ENDBRANCH   7  10
ENDBRANCH   2   3
TORSDOF 9
ENDMDL
MODEL      142
REMARK 921   NORMALIZED FREE ENERGY PREDICTED BY IDOCK:   -5.39 KCAL/MOL
REMARK 922        TOTAL FREE ENERGY PREDICTED BY IDOCK:   -9.75 KCAL/MOL
REMARK 923 INTER-LIGAND FREE ENERGY PREDICTED BY IDOCK:   -7.81 KCAL/MOL
REMARK 924 INTRA-LIGAND FREE ENERGY PREDICTED BY IDOCK:   -1.94 KCAL/MOL
REMARK 927      BINDING AFFINITY PREDICTED BY RF-SCORE:    0.00 PKD
ROOT
HETATM    1  C   UNL     1      -5.277  18.705  65.116  1.00  0.00    -0.181 C  
HETATM    2  O   UNL     1      -5.965  18.620  66.357  1.00  0.00    -0.152 OA 
ENDROOT
BRANCH   2   3
HETATM    3  C   UNL     1      -6.186  17.366  66.863  1.00  0.00    -0.176 A  
HETATM    4  C   UNL     1      -7.376  16.724  66.488  1.00  0.00    -0.271 A  
HETATM    5 CL   UNL     1      -8.564  17.525  65.516  1.00  0.00     0.595 Cl 
HETATM    6  C   UNL     1      -7.649  15.415  66.903  1.00  0.00    -0.111 A  
HETATM    7  C   UNL     1      -6.726  14.715  67.690  1.00  0.00    -0.196 A  
HETATM    8  C   UNL     1      -5.280  16.676  67.673  1.00  0.00    -0.147 A  
HETATM    9  C   UNL     1      -5.552  15.367  68.089  1.00  0.00    -0.131 A  
BRANCH   7  10
HETATM   10  C   UNL     1      -7.015  13.301  68.143  1.00  0.00    -0.114 C  
BRANCH  10  11
HETATM   11  N   UNL     1      -8.238  13.327  68.926  1.00  0.00    -0.351 NA 
HETATM   12  H   UNL     1      -8.289  13.784  69.837  1.00  0.00     0.000 HD 
BRANCH  11  13
HETATM   13  C   UNL     1      -9.350  12.682  68.350  1.00  0.00    -0.148 A  
HETATM   14  C   UNL     1     -10.606  13.257  68.456  1.00  0.00    -0.270 A  
HETATM   15  C   UNL     1     -11.623  12.579  67.826  1.00  0.00    -0.343 A  
HETATM   16  N   UNL     1      -9.154  11.535  67.653  1.00  0.00    -0.164 NA 
HETATM   17  C   UNL     1     -10.203  10.943  67.049  1.00  0.00    -0.214 A  
HETATM   18  N   UNL     1     -11.449  11.427  67.141  1.00  0.00    -0.499 NA 
BRANCH  14  19
HETATM   19  C   UNL     1     -10.941  14.493  69.199  1.00  0.00    -0.268 C  
HETATM   20  O   UNL     1     -11.638  14.421  70.204  1.00  0.00    -0.271 OA 
HETATM   21  N   UNL     1     -10.416  15.676  68.737  1.00  0.00    -0.218 N  
HETATM   22  H   UNL     1      -9.796  15.657  67.926  1.00  0.00     0.000 HD 
BRANCH  21  23
HETATM   23  C   UNL     1     -10.713  16.956  69.363  1.00  0.00    -0.258 C  
BRANCH  23  24
HETATM   24  C   UNL     1     -10.217  18.169  68.596  1.00  0.00    -0.366 A  
HETATM   25  N   UNL     1     -11.018  18.640  67.614  1.00  0.00    -0.282 NA 
HETATM   26  C   UNL     1     -10.598  19.742  66.964  1.00  0.00    -0.461 A  
HETATM   27  N   UNL     1      -9.028  18.719  68.932  1.00  0.00    -0.259 NA 
HETATM   28  C   UNL     1      -8.666  19.826  68.253  1.00  0.00    -0.275 A  
HETATM   29  C   UNL     1      -9.420  20.386  67.248  1.00  0.00    -0.568 A  
ENDBRANCH  23  24
ENDBRANCH  21  23
ENDBRANCH  14  19
BRANCH  17  30
HETATM   30  N   UNL     1     -10.006   9.803  66.321  1.00  0.00    -0.251 NA 
HETATM   31  C   UNL     1      -8.575   8.258  65.229  1.00  0.00    -0.159 C  
HETATM   32  C   UNL     1     -10.478   8.503  66.741  1.00  0.00    -0.238 C  
HETATM   33  C   UNL     1      -9.027   9.727  65.237  1.00  0.00    -0.193 C  
HETATM   34  C   UNL     1      -9.368   7.547  66.320  1.00  0.00    -0.176 C  
BRANCH  33  35
HETATM   35  C   UNL     1      -9.691  10.127  63.904  1.00  0.00    -0.169 C  
HETATM   36  O   UNL     1      -9.344   9.220  62.853  1.00  0.00    -0.524 OA 
HETATM   37  H   UNL     1      -9.753   9.465  62.032  1.00  0.00     0.000 HD 
ENDBRANCH  33  35
ENDBRANCH  17  30
ENDBRANCH  11  13
ENDBRANCH  10  11
ENDBRANCH   7  10
ENDBRANCH   2   3
TORSDOF 9
ENDMDL
MODEL      143
REMARK 921   NORMALIZED FREE ENERGY PREDICTED BY IDOCK:   -5.34 KCAL/MOL
REMARK 922        TOTAL FREE ENERGY PREDICTED BY IDOCK:   -9.68 KCAL/MOL
REMARK 923 INTER-LIGAND FREE ENERGY PREDICTED BY IDOCK:   -7.67 KCAL/MOL
REMARK 924 INTRA-LIGAND FREE ENERGY PREDICTED BY IDOCK:   -2.01 KCAL/MOL
REMARK 927      BINDING AFFINITY PREDICTED BY RF-SCORE:    0.00 PKD
ROOT
HETATM    1  C   UNL     1     -11.037   4.172  73.498  1.00  0.00    -0.270 C  
HETATM    2  O   UNL     1     -10.077   5.123  73.060  1.00  0.00    -0.160 OA 
ENDROOT
BRANCH   2   3
HETATM    3  C   UNL     1     -10.554   6.259  72.460  1.00  0.00    -0.212 A  
HETATM    4  C   UNL     1      -9.994   7.481  72.864  1.00  0.00    -0.249 A  
HETATM    5 CL   UNL     1      -8.828   7.559  74.141  1.00  0.00    -0.278 Cl 
HETATM    6  C   UNL     1     -10.374   8.682  72.254  1.00  0.00    -0.376 A  
HETATM    7  C   UNL     1     -11.312   8.683  71.214  1.00  0.00    -0.341 A  
HETATM    8  C   UNL     1     -11.512   6.266  71.442  1.00  0.00    -0.352 A  
HETATM    9  C   UNL     1     -11.893   7.467  70.832  1.00  0.00    -0.293 A  
BRANCH   7  10
HETATM   10  C   UNL     1     -11.728   9.978  70.552  1.00  0.00    -0.318 C  
BRANCH  10  11
HETATM   11  N   UNL     1     -11.240   9.954  69.185  1.00  0.00    -0.411 NA 
HETATM   12  H   UNL     1     -11.611   9.310  68.487  1.00  0.00     0.000 HD 
BRANCH  11  13
HETATM   13  C   UNL     1     -10.219  10.877  68.881  1.00  0.00    -0.198 A  
HETATM   14  C   UNL     1      -8.902  10.451  68.839  1.00  0.00    -0.161 A  
HETATM   15  C   UNL     1      -7.981  11.411  68.492  1.00  0.00    -0.143 A  
HETATM   16  N   UNL     1     -10.560  12.155  68.580  1.00  0.00    -0.227 NA 
HETATM   17  C   UNL     1      -9.595  13.030  68.232  1.00  0.00    -0.213 A  
HETATM   18  N   UNL     1      -8.299  12.693  68.204  1.00  0.00    -0.169 NA 
BRANCH  14  19
HETATM   19  C   UNL     1      -8.413   9.091  69.159  1.00  0.00    -0.128 C  
HETATM   20  O   UNL     1      -7.563   8.947  70.031  1.00  0.00    -0.057 OA 
HETATM   21  N   UNL     1      -8.969   8.037  68.476  1.00  0.00    -0.134 N  
HETATM   22  H   UNL     1      -9.713   8.223  67.802  1.00  0.00     0.000 HD 
BRANCH  21  23
HETATM   23  C   UNL     1      -8.535   6.663  68.678  1.00  0.00    -0.122 C  
BRANCH  23  24
HETATM   24  C   UNL     1      -8.981   5.690  67.601  1.00  0.00    -0.107 A  
HETATM   25  N   UNL     1     -10.186   5.917  67.034  1.00  0.00    -0.184 NA 
HETATM   26  C   UNL     1     -10.562   5.080  66.049  1.00  0.00    -0.232 A  
HETATM   27  N   UNL     1      -8.162   4.668  67.258  1.00  0.00    -0.105 NA 
HETATM   28  C   UNL     1      -8.588   3.870  66.259  1.00  0.00    -0.112 A  
HETATM   29  C   UNL     1      -9.792   4.030  65.612  1.00  0.00    -0.181 A  
ENDBRANCH  23  24
ENDBRANCH  21  23
ENDBRANCH  14  19
BRANCH  17  30
HETATM   30  N   UNL     1      -9.936  14.311  67.899  1.00  0.00    -0.226 NA 
HETATM   31  C   UNL     1     -11.332  16.215  68.128  1.00  0.00    -0.270 C  
HETATM   32  C   UNL     1      -9.023  15.426  68.006  1.00  0.00    -0.171 C  
HETATM   33  C   UNL     1     -11.327  14.731  67.727  1.00  0.00    -0.330 C  
HETATM   34  C   UNL     1      -9.896  16.580  68.487  1.00  0.00    -0.243 C  
BRANCH  33  35
HETATM   35  C   UNL     1     -11.754  14.536  66.258  1.00  0.00    -0.358 C  
HETATM   36  O   UNL     1     -12.937  13.738  66.158  1.00  0.00    -0.339 OA 
HETATM   37  H   UNL     1     -13.201  13.618  65.254  1.00  0.00     0.000 HD 
ENDBRANCH  33  35
ENDBRANCH  17  30
ENDBRANCH  11  13
ENDBRANCH  10  11
ENDBRANCH   7  10
ENDBRANCH   2   3
TORSDOF 9
ENDMDL
MODEL      144
REMARK 921   NORMALIZED FREE ENERGY PREDICTED BY IDOCK:   -5.33 KCAL/MOL
REMARK 922        TOTAL FREE ENERGY PREDICTED BY IDOCK:   -9.67 KCAL/MOL
REMARK 923 INTER-LIGAND FREE ENERGY PREDICTED BY IDOCK:   -7.73 KCAL/MOL
REMARK 924 INTRA-LIGAND FREE ENERGY PREDICTED BY IDOCK:   -1.94 KCAL/MOL
REMARK 927      BINDING AFFINITY PREDICTED BY RF-SCORE:    0.00 PKD
ROOT
HETATM    1  C   UNL     1     -10.185  15.744  68.097  1.00  0.00    -0.230 C  
HETATM    2  O   UNL     1     -10.127  14.665  67.175  1.00  0.00    -0.241 OA 
ENDROOT
BRANCH   2   3
HETATM    3  C   UNL     1     -10.394  13.413  67.663  1.00  0.00    -0.238 A  
HETATM    4  C   UNL     1      -9.295  12.595  67.969  1.00  0.00    -0.209 A  
HETATM    5 CL   UNL     1      -7.674  13.106  67.641  1.00  0.00    -0.153 Cl 
HETATM    6  C   UNL     1      -9.476  11.329  68.537  1.00  0.00    -0.191 A  
HETATM    7  C   UNL     1     -10.764  10.860  68.826  1.00  0.00    -0.243 A  
HETATM    8  C   UNL     1     -11.679  12.931  67.926  1.00  0.00    -0.405 A  
HETATM    9  C   UNL     1     -11.862  11.664  68.493  1.00  0.00    -0.357 A  
BRANCH   7  10
HETATM   10  C   UNL     1     -10.967   9.492  69.438  1.00  0.00    -0.170 C  
BRANCH  10  11
HETATM   11  N   UNL     1     -10.720   8.502  68.405  1.00  0.00    -0.426 NA 
HETATM   12  H   UNL     1     -10.967   8.664  67.428  1.00  0.00     0.000 HD 
BRANCH  11  13
HETATM   13  C   UNL     1     -10.117   7.303  68.834  1.00  0.00    -0.180 A  
HETATM   14  C   UNL     1      -9.235   6.642  67.995  1.00  0.00    -0.112 A  
HETATM   15  C   UNL     1      -8.663   5.505  68.515  1.00  0.00    -0.105 A  
HETATM   16  N   UNL     1     -10.374   6.853  70.087  1.00  0.00    -0.196 NA 
HETATM   17  C   UNL     1      -9.756   5.738  70.526  1.00  0.00    -0.177 A  
HETATM   18  N   UNL     1      -8.918   5.033  69.755  1.00  0.00    -0.104 NA 
BRANCH  14  19
HETATM   19  C   UNL     1      -8.890   7.032  66.609  1.00  0.00    -0.132 C  
HETATM   20  O   UNL     1      -9.027   6.217  65.703  1.00  0.00    -0.134 OA 
HETATM   21  N   UNL     1      -8.457   8.319  66.397  1.00  0.00    -0.116 N  
HETATM   22  H   UNL     1      -8.420   8.962  67.188  1.00  0.00     0.000 HD 
BRANCH  21  23
HETATM   23  C   UNL     1      -8.051   8.796  65.084  1.00  0.00    -0.133 C  
BRANCH  23  24
HETATM   24  C   UNL     1      -8.955   9.860  64.487  1.00  0.00    -0.234 A  
HETATM   25  N   UNL     1      -9.993  10.276  65.245  1.00  0.00    -0.310 NA 
HETATM   26  C   UNL     1     -10.769  11.250  64.734  1.00  0.00    -0.285 A  
HETATM   27  N   UNL     1      -8.678  10.343  63.254  1.00  0.00    -0.185 NA 
HETATM   28  C   UNL     1      -9.483  11.323  62.799  1.00  0.00    -0.326 A  
HETATM   29  C   UNL     1     -10.555  11.820  63.504  1.00  0.00    -0.499 A  
ENDBRANCH  23  24
ENDBRANCH  21  23
ENDBRANCH  14  19
BRANCH  17  30
HETATM   30  N   UNL     1      -9.988   5.297  71.799  1.00  0.00    -0.183 NA 
HETATM   31  C   UNL     1     -11.463   4.566  73.508  1.00  0.00    -0.287 C  
HETATM   32  C   UNL     1      -9.352   4.125  72.358  1.00  0.00    -0.122 C  
HETATM   33  C   UNL     1     -11.130   5.754  72.590  1.00  0.00    -0.280 C  
HETATM   34  C   UNL     1     -10.441   3.475  73.204  1.00  0.00    -0.258 C  
BRANCH  33  35
HETATM   35  C   UNL     1     -10.738   7.007  73.399  1.00  0.00    -0.345 C  
HETATM   36  O   UNL     1      -9.655   7.710  72.783  1.00  0.00    -0.163 OA 
HETATM   37  H   UNL     1      -9.413   8.482  73.281  1.00  0.00     0.000 HD 
ENDBRANCH  33  35
ENDBRANCH  17  30
ENDBRANCH  11  13
ENDBRANCH  10  11
ENDBRANCH   7  10
ENDBRANCH   2   3
TORSDOF 9
ENDMDL
MODEL      145
REMARK 921   NORMALIZED FREE ENERGY PREDICTED BY IDOCK:   -5.33 KCAL/MOL
REMARK 922        TOTAL FREE ENERGY PREDICTED BY IDOCK:   -9.66 KCAL/MOL
REMARK 923 INTER-LIGAND FREE ENERGY PREDICTED BY IDOCK:   -8.58 KCAL/MOL
REMARK 924 INTRA-LIGAND FREE ENERGY PREDICTED BY IDOCK:   -1.08 KCAL/MOL
REMARK 927      BINDING AFFINITY PREDICTED BY RF-SCORE:    0.00 PKD
ROOT
HETATM    1  C   UNL     1     -10.496  19.869  66.014  1.00  0.00    -0.475 C  
HETATM    2  O   UNL     1      -9.106  19.661  66.223  1.00  0.00    -0.362 OA 
ENDROOT
BRANCH   2   3
HETATM    3  C   UNL     1      -8.734  18.487  66.823  1.00  0.00    -0.278 A  
HETATM    4  C   UNL     1      -9.127  18.296  68.157  1.00  0.00    -0.298 A  
HETATM    5 CL   UNL     1      -9.951  19.536  69.039  1.00  0.00    -0.519 Cl 
HETATM    6  C   UNL     1      -8.849  17.097  68.823  1.00  0.00    -0.235 A  
HETATM    7  C   UNL     1      -8.185  16.056  68.162  1.00  0.00    -0.152 A  
HETATM    8  C   UNL     1      -8.046  17.458  66.174  1.00  0.00    -0.255 A  
HETATM    9  C   UNL     1      -7.767  16.258  66.840  1.00  0.00    -0.278 A  
BRANCH   7  10
HETATM   10  C   UNL     1      -7.880  14.759  68.877  1.00  0.00    -0.152 C  
BRANCH  10  11
HETATM   11  N   UNL     1      -8.536  13.686  68.150  1.00  0.00    -0.167 NA 
HETATM   12  H   UNL     1      -8.013  13.004  67.602  1.00  0.00     0.000 HD 
BRANCH  11  13
HETATM   13  C   UNL     1      -9.941  13.647  68.248  1.00  0.00    -0.236 A  
HETATM   14  C   UNL     1     -10.691  13.225  67.162  1.00  0.00    -0.264 A  
HETATM   15  C   UNL     1     -12.050  13.178  67.365  1.00  0.00    -0.263 A  
HETATM   16  N   UNL     1     -10.525  13.972  69.428  1.00  0.00    -0.018 NA 
HETATM   17  C   UNL     1     -11.864  13.881  69.548  1.00  0.00    -0.329 A  
HETATM   18  N   UNL     1     -12.651  13.513  68.529  1.00  0.00     0.374 NA 
BRANCH  14  19
HETATM   19  C   UNL     1     -10.167  12.860  65.827  1.00  0.00    -0.288 C  
HETATM   20  O   UNL     1      -8.999  13.110  65.551  1.00  0.00     0.535 OA 
HETATM   21  N   UNL     1     -11.019  12.218  64.961  1.00  0.00    -0.293 N  
HETATM   22  H   UNL     1     -11.963  11.990  65.277  1.00  0.00     0.000 HD 
BRANCH  21  23
HETATM   23  C   UNL     1     -10.624  11.852  63.610  1.00  0.00    -0.446 C  
BRANCH  23  24
HETATM   24  C   UNL     1      -9.575  10.757  63.529  1.00  0.00    -0.320 A  
HETATM   25  N   UNL     1      -8.790  10.742  62.429  1.00  0.00    -0.272 NA 
HETATM   26  C   UNL     1      -7.831   9.798  62.379  1.00  0.00    -0.116 A  
HETATM   27  N   UNL     1      -9.468   9.872  64.547  1.00  0.00    -0.291 NA 
HETATM   28  C   UNL     1      -8.483   8.957  64.445  1.00  0.00    -0.153 A  
HETATM   29  C   UNL     1      -7.627   8.873  63.372  1.00  0.00    -0.110 A  
ENDBRANCH  23  24
ENDBRANCH  21  23
ENDBRANCH  14  19
BRANCH  17  30
HETATM   30  N   UNL     1     -12.455  14.178  70.745  1.00  0.00    -0.343 NA 
HETATM   31  C   UNL     1     -13.971  15.450  72.053  1.00  0.00    -0.640 C  
HETATM   32  C   UNL     1     -13.163  13.201  71.542  1.00  0.00    -0.282 C  
HETATM   33  C   UNL     1     -12.719  15.553  71.167  1.00  0.00    -0.463 C  
HETATM   34  C   UNL     1     -14.345  13.973  72.117  1.00  0.00    -0.577 C  
BRANCH  33  35
HETATM   35  C   UNL     1     -11.509  16.100  71.951  1.00  0.00    -0.267 C  
HETATM   36  O   UNL     1     -11.921  16.964  73.014  1.00  0.00    -0.343 OA 
HETATM   37  H   UNL     1     -11.176  17.301  73.497  1.00  0.00     0.000 HD 
ENDBRANCH  33  35
ENDBRANCH  17  30
ENDBRANCH  11  13
ENDBRANCH  10  11
ENDBRANCH   7  10
ENDBRANCH   2   3
TORSDOF 9
ENDMDL
MODEL      146
REMARK 921   NORMALIZED FREE ENERGY PREDICTED BY IDOCK:   -5.32 KCAL/MOL
REMARK 922        TOTAL FREE ENERGY PREDICTED BY IDOCK:   -9.65 KCAL/MOL
REMARK 923 INTER-LIGAND FREE ENERGY PREDICTED BY IDOCK:   -8.14 KCAL/MOL
REMARK 924 INTRA-LIGAND FREE ENERGY PREDICTED BY IDOCK:   -1.51 KCAL/MOL
REMARK 927      BINDING AFFINITY PREDICTED BY RF-SCORE:    0.00 PKD
ROOT
HETATM    1  C   UNL     1      -6.054  14.074  70.059  1.00  0.00    -0.148 C  
HETATM    2  O   UNL     1      -5.992  13.711  68.687  1.00  0.00    -0.078 OA 
ENDROOT
BRANCH   2   3
HETATM    3  C   UNL     1      -6.904  12.791  68.244  1.00  0.00    -0.090 A  
HETATM    4  C   UNL     1      -8.244  13.202  68.164  1.00  0.00    -0.160 A  
HETATM    5 CL   UNL     1      -8.737  14.771  68.704  1.00  0.00    -0.174 Cl 
HETATM    6  C   UNL     1      -9.230  12.348  67.656  1.00  0.00    -0.185 A  
HETATM    7  C   UNL     1      -8.892  11.067  67.203  1.00  0.00    -0.140 A  
HETATM    8  C   UNL     1      -6.575  11.501  67.817  1.00  0.00    -0.068 A  
HETATM    9  C   UNL     1      -7.560  10.646  67.310  1.00  0.00    -0.100 A  
BRANCH   7  10
HETATM   10  C   UNL     1      -9.953  10.138  66.655  1.00  0.00    -0.216 C  
BRANCH  10  11
HETATM   11  N   UNL     1     -10.673   9.573  67.782  1.00  0.00    -0.375 NA 
HETATM   12  H   UNL     1     -11.471  10.046  68.208  1.00  0.00     0.000 HD 
BRANCH  11  13
HETATM   13  C   UNL     1     -10.202   8.332  68.253  1.00  0.00    -0.208 A  
HETATM   14  C   UNL     1     -10.344   8.009  69.593  1.00  0.00    -0.220 A  
HETATM   15  C   UNL     1      -9.894   6.760  69.951  1.00  0.00    -0.164 A  
HETATM   16  N   UNL     1      -9.669   7.454  67.366  1.00  0.00    -0.145 NA 
HETATM   17  C   UNL     1      -9.269   6.242  67.798  1.00  0.00    -0.115 A  
HETATM   18  N   UNL     1      -9.346   5.879  69.085  1.00  0.00    -0.120 NA 
BRANCH  14  19
HETATM   19  C   UNL     1     -10.896   8.887  70.649  1.00  0.00    -0.239 C  
HETATM   20  O   UNL     1     -10.141   9.368  71.486  1.00  0.00    -0.288 OA 
HETATM   21  N   UNL     1     -12.244   9.151  70.618  1.00  0.00    -0.486 N  
HETATM   22  H   UNL     1     -12.805   8.762  69.859  1.00  0.00     0.000 HD 
BRANCH  21  23
HETATM   23  C   UNL     1     -12.900   9.965  71.630  1.00  0.00    -0.436 C  
BRANCH  23  24
HETATM   24  C   UNL     1     -12.877  11.458  71.358  1.00  0.00    -0.397 A  
HETATM   25  N   UNL     1     -13.640  12.237  72.156  1.00  0.00    -0.396 NA 
HETATM   26  C   UNL     1     -13.585  13.565  71.943  1.00  0.00    -0.424 A  
HETATM   27  N   UNL     1     -12.099  11.932  70.357  1.00  0.00    -0.358 NA 
HETATM   28  C   UNL     1     -12.078  13.271  70.198  1.00  0.00    -0.333 A  
HETATM   29  C   UNL     1     -12.809  14.144  70.970  1.00  0.00    -0.421 A  
ENDBRANCH  23  24
ENDBRANCH  21  23
ENDBRANCH  14  19
BRANCH  17  30
HETATM   30  N   UNL     1      -8.758   5.343  66.903  1.00  0.00    -0.112 NA 
HETATM   31  C   UNL     1      -8.099   4.749  64.703  1.00  0.00    -0.107 C  
HETATM   32  C   UNL     1      -7.467   4.713  67.064  1.00  0.00    -0.086 C  
HETATM   33  C   UNL     1      -9.302   5.188  65.554  1.00  0.00    -0.113 C  
HETATM   34  C   UNL     1      -6.906   4.643  65.648  1.00  0.00    -0.061 C  
BRANCH  33  35
HETATM   35  C   UNL     1     -10.416   4.121  65.559  1.00  0.00    -0.066 C  
HETATM   36  O   UNL     1     -11.655   4.657  65.086  1.00  0.00    -1.107 OA 
HETATM   37  H   UNL     1     -12.341   4.000  65.088  1.00  0.00     0.000 HD 
ENDBRANCH  33  35
ENDBRANCH  17  30
ENDBRANCH  11  13
ENDBRANCH  10  11
ENDBRANCH   7  10
ENDBRANCH   2   3
TORSDOF 9
ENDMDL
MODEL      147
REMARK 921   NORMALIZED FREE ENERGY PREDICTED BY IDOCK:   -5.30 KCAL/MOL
REMARK 922        TOTAL FREE ENERGY PREDICTED BY IDOCK:   -9.62 KCAL/MOL
REMARK 923 INTER-LIGAND FREE ENERGY PREDICTED BY IDOCK:   -7.74 KCAL/MOL
REMARK 924 INTRA-LIGAND FREE ENERGY PREDICTED BY IDOCK:   -1.88 KCAL/MOL
REMARK 927      BINDING AFFINITY PREDICTED BY RF-SCORE:    0.00 PKD
ROOT
HETATM    1  C   UNL     1     -11.865   8.548  72.176  1.00  0.00    -0.379 C  
HETATM    2  O   UNL     1     -11.602   8.496  70.781  1.00  0.00    -0.274 OA 
ENDROOT
BRANCH   2   3
HETATM    3  C   UNL     1     -11.562   9.690  70.110  1.00  0.00    -0.141 A  
HETATM    4  C   UNL     1     -11.070   9.672  68.796  1.00  0.00    -0.049 A  
HETATM    5 CL   UNL     1     -10.438   8.222  68.092  1.00  0.00    -0.249 Cl 
HETATM    6  C   UNL     1     -11.060  10.833  68.015  1.00  0.00    -0.359 A  
HETATM    7  C   UNL     1     -11.558  12.037  68.530  1.00  0.00    -0.363 A  
HETATM    8  C   UNL     1     -12.032  10.899  70.631  1.00  0.00    -0.467 A  
HETATM    9  C   UNL     1     -12.022  12.062  69.851  1.00  0.00    -0.391 A  
BRANCH   7  10
HETATM   10  C   UNL     1     -11.548  13.296  67.692  1.00  0.00    -0.346 C  
BRANCH  10  11
HETATM   11  N   UNL     1     -10.342  13.282  66.883  1.00  0.00    -0.253 NA 
HETATM   12  H   UNL     1     -10.236  12.663  66.079  1.00  0.00     0.000 HD 
BRANCH  11  13
HETATM   13  C   UNL     1      -9.327  14.176  67.277  1.00  0.00    -0.225 A  
HETATM   14  C   UNL     1      -8.054  13.694  67.539  1.00  0.00    -0.190 A  
HETATM   15  C   UNL     1      -7.119  14.644  67.874  1.00  0.00    -0.158 A  
HETATM   16  N   UNL     1      -9.608  15.501  67.338  1.00  0.00    -0.212 NA 
HETATM   17  C   UNL     1      -8.627  16.369  67.658  1.00  0.00    -0.174 A  
HETATM   18  N   UNL     1      -7.384  15.967  67.955  1.00  0.00    -0.125 NA 
BRANCH  14  19
HETATM   19  C   UNL     1      -7.637  12.274  67.517  1.00  0.00    -0.155 C  
HETATM   20  O   UNL     1      -7.114  11.816  66.508  1.00  0.00    -0.039 OA 
HETATM   21  N   UNL     1      -7.828  11.536  68.661  1.00  0.00    -0.139 N  
HETATM   22  H   UNL     1      -8.217  11.996  69.485  1.00  0.00     0.000 HD 
BRANCH  21  23
HETATM   23  C   UNL     1      -7.494  10.122  68.739  1.00  0.00    -0.086 C  
BRANCH  23  24
HETATM   24  C   UNL     1      -7.083   9.640  70.119  1.00  0.00    -0.116 A  
HETATM   25  N   UNL     1      -5.902  10.092  70.597  1.00  0.00    -0.077 NA 
HETATM   26  C   UNL     1      -5.559   9.700  71.838  1.00  0.00    -0.012 A  
HETATM   27  N   UNL     1      -7.907   8.809  70.798  1.00  0.00    -0.095 NA 
HETATM   28  C   UNL     1      -7.514   8.459  72.039  1.00  0.00    -0.105 A  
HETATM   29  C   UNL     1      -6.337   8.879  72.615  1.00  0.00     0.030 A  
ENDBRANCH  23  24
ENDBRANCH  21  23
ENDBRANCH  14  19
BRANCH  17  30
HETATM   30  N   UNL     1      -8.897  17.709  67.690  1.00  0.00    -0.234 NA 
HETATM   31  C   UNL     1     -10.283  19.533  68.304  1.00  0.00    -0.552 C  
HETATM   32  C   UNL     1      -7.992  18.685  68.254  1.00  0.00    -0.312 C  
HETATM   33  C   UNL     1     -10.242  18.241  67.473  1.00  0.00    -0.369 C  
HETATM   34  C   UNL     1      -8.908  19.689  68.944  1.00  0.00    -0.240 C  
BRANCH  33  35
HETATM   35  C   UNL     1     -10.456  18.522  65.972  1.00  0.00    -0.400 C  
HETATM   36  O   UNL     1     -10.503  19.926  65.703  1.00  0.00    -0.477 OA 
HETATM   37  H   UNL     1     -10.635  20.100  64.779  1.00  0.00     0.000 HD 
ENDBRANCH  33  35
ENDBRANCH  17  30
ENDBRANCH  11  13
ENDBRANCH  10  11
ENDBRANCH   7  10
ENDBRANCH   2   3
TORSDOF 9
ENDMDL
MODEL      148
REMARK 921   NORMALIZED FREE ENERGY PREDICTED BY IDOCK:   -5.28 KCAL/MOL
REMARK 922        TOTAL FREE ENERGY PREDICTED BY IDOCK:   -9.59 KCAL/MOL
REMARK 923 INTER-LIGAND FREE ENERGY PREDICTED BY IDOCK:   -7.29 KCAL/MOL
REMARK 924 INTRA-LIGAND FREE ENERGY PREDICTED BY IDOCK:   -2.30 KCAL/MOL
REMARK 927      BINDING AFFINITY PREDICTED BY RF-SCORE:    0.00 PKD
ROOT
HETATM    1  C   UNL     1      -8.084   3.983  66.428  1.00  0.00    -0.098 C  
HETATM    2  O   UNL     1      -8.668   3.628  67.674  1.00  0.00    -0.096 OA 
ENDROOT
BRANCH   2   3
HETATM    3  C   UNL     1      -9.550   4.519  68.225  1.00  0.00    -0.143 A  
HETATM    4  C   UNL     1      -9.742   4.457  69.614  1.00  0.00    -0.219 A  
HETATM    5 CL   UNL     1      -8.978   3.236  70.574  1.00  0.00    -0.150 Cl 
HETATM    6  C   UNL     1     -10.572   5.375  70.268  1.00  0.00    -0.329 A  
HETATM    7  C   UNL     1     -11.217   6.387  69.545  1.00  0.00    -0.477 A  
HETATM    8  C   UNL     1     -10.218   5.512  67.502  1.00  0.00    -0.245 A  
HETATM    9  C   UNL     1     -11.049   6.430  68.155  1.00  0.00    -0.358 A  
BRANCH   7  10
HETATM   10  C   UNL     1     -12.117   7.381  70.244  1.00  0.00     0.138 C  
BRANCH  10  11
HETATM   11  N   UNL     1     -11.296   8.158  71.156  1.00  0.00    -0.264 NA 
HETATM   12  H   UNL     1     -11.396   8.088  72.169  1.00  0.00     0.000 HD 
BRANCH  11  13
HETATM   13  C   UNL     1     -10.353   9.014  70.555  1.00  0.00    -0.218 A  
HETATM   14  C   UNL     1      -9.007   8.868  70.853  1.00  0.00    -0.273 A  
HETATM   15  C   UNL     1      -8.158   9.719  70.186  1.00  0.00    -0.182 A  
HETATM   16  N   UNL     1     -10.781   9.930  69.650  1.00  0.00    -0.236 NA 
HETATM   17  C   UNL     1      -9.879  10.713  69.027  1.00  0.00    -0.205 A  
HETATM   18  N   UNL     1      -8.568  10.647  69.294  1.00  0.00    -0.127 NA 
BRANCH  14  19
HETATM   19  C   UNL     1      -8.428   7.917  71.828  1.00  0.00    -0.119 C  
HETATM   20  O   UNL     1      -7.387   7.332  71.552  1.00  0.00    -0.078 OA 
HETATM   21  N   UNL     1      -9.077   7.760  73.029  1.00  0.00    -0.186 N  
HETATM   22  H   UNL     1      -9.909   8.322  73.217  1.00  0.00     0.000 HD 
BRANCH  21  23
HETATM   23  C   UNL     1      -8.621   6.822  74.043  1.00  0.00    -0.144 C  
BRANCH  23  24
HETATM   24  C   UNL     1      -9.339   5.484  74.041  1.00  0.00    -0.134 A  
HETATM   25  N   UNL     1     -10.625   5.482  73.626  1.00  0.00    -0.264 NA 
HETATM   26  C   UNL     1     -11.248   4.290  73.582  1.00  0.00    -0.240 A  
HETATM   27  N   UNL     1      -8.669   4.377  74.434  1.00  0.00    -0.098 NA 
HETATM   28  C   UNL     1      -9.342   3.211  74.358  1.00  0.00    -0.085 A  
HETATM   29  C   UNL     1     -10.647   3.108  73.936  1.00  0.00    -0.269 A  
ENDBRANCH  23  24
ENDBRANCH  21  23
ENDBRANCH  14  19
BRANCH  17  30
HETATM   30  N   UNL     1     -10.302  11.617  68.093  1.00  0.00    -0.187 NA 
HETATM   31  C   UNL     1     -11.898  12.372  66.509  1.00  0.00    -0.407 C  
HETATM   32  C   UNL     1     -10.456  13.028  68.369  1.00  0.00    -0.252 C  
HETATM   33  C   UNL     1     -10.953  11.208  66.849  1.00  0.00    -0.273 C  
HETATM   34  C   UNL     1     -11.706  13.427  67.593  1.00  0.00    -0.397 C  
BRANCH  33  35
HETATM   35  C   UNL     1      -9.893  10.996  65.749  1.00  0.00    -0.235 C  
HETATM   36  O   UNL     1      -9.583  12.219  65.077  1.00  0.00    -0.445 OA 
HETATM   37  H   UNL     1      -8.929  12.089  64.400  1.00  0.00     0.000 HD 
ENDBRANCH  33  35
ENDBRANCH  17  30
ENDBRANCH  11  13
ENDBRANCH  10  11
ENDBRANCH   7  10
ENDBRANCH   2   3
TORSDOF 9
ENDMDL
MODEL      149
REMARK 921   NORMALIZED FREE ENERGY PREDICTED BY IDOCK:   -5.28 KCAL/MOL
REMARK 922        TOTAL FREE ENERGY PREDICTED BY IDOCK:   -9.58 KCAL/MOL
REMARK 923 INTER-LIGAND FREE ENERGY PREDICTED BY IDOCK:   -7.47 KCAL/MOL
REMARK 924 INTRA-LIGAND FREE ENERGY PREDICTED BY IDOCK:   -2.11 KCAL/MOL
REMARK 927      BINDING AFFINITY PREDICTED BY RF-SCORE:    0.00 PKD
ROOT
HETATM    1  C   UNL     1     -11.775   9.054  71.788  1.00  0.00    -0.369 C  
HETATM    2  O   UNL     1     -11.531   9.002  70.390  1.00  0.00    -0.251 OA 
ENDROOT
BRANCH   2   3
HETATM    3  C   UNL     1     -11.222  10.182  69.767  1.00  0.00    -0.272 A  
HETATM    4  C   UNL     1      -9.869  10.423  69.480  1.00  0.00    -0.184 A  
HETATM    5 CL   UNL     1      -8.633   9.324  69.989  1.00  0.00    -0.170 Cl 
HETATM    6  C   UNL     1      -9.475  11.571  68.784  1.00  0.00    -0.099 A  
HETATM    7  C   UNL     1     -10.430  12.497  68.346  1.00  0.00    -0.250 A  
HETATM    8  C   UNL     1     -12.171  11.122  69.354  1.00  0.00    -0.329 A  
HETATM    9  C   UNL     1     -11.776  12.272  68.658  1.00  0.00    -0.377 A  
BRANCH   7  10
HETATM   10  C   UNL     1     -10.009  13.741  67.595  1.00  0.00    -0.238 C  
BRANCH  10  11
HETATM   11  N   UNL     1      -8.741  13.460  66.945  1.00  0.00    -0.374 NA 
HETATM   12  H   UNL     1      -8.651  12.752  66.216  1.00  0.00     0.000 HD 
BRANCH  11  13
HETATM   13  C   UNL     1      -7.643  14.226  67.383  1.00  0.00    -0.163 A  
HETATM   14  C   UNL     1      -6.422  13.608  67.601  1.00  0.00    -0.164 A  
HETATM   15  C   UNL     1      -5.398  14.442  67.986  1.00  0.00    -0.107 A  
HETATM   16  N   UNL     1      -7.795  15.566  67.528  1.00  0.00    -0.152 NA 
HETATM   17  C   UNL     1      -6.733  16.314  67.891  1.00  0.00    -0.136 A  
HETATM   18  N   UNL     1      -5.534  15.777  68.150  1.00  0.00    -0.109 NA 
BRANCH  14  19
HETATM   19  C   UNL     1      -6.143  12.159  67.488  1.00  0.00    -0.124 C  
HETATM   20  O   UNL     1      -5.542  11.590  68.392  1.00  0.00    -0.046 OA 
HETATM   21  N   UNL     1      -6.611  11.505  66.374  1.00  0.00    -0.359 N  
HETATM   22  H   UNL     1      -7.154  12.029  65.687  1.00  0.00     0.000 HD 
BRANCH  21  23
HETATM   23  C   UNL     1      -6.358  10.091  66.138  1.00  0.00    -0.081 C  
BRANCH  23  24
HETATM   24  C   UNL     1      -7.564   9.189  66.333  1.00  0.00    -0.093 A  
HETATM   25  N   UNL     1      -8.767   9.692  65.978  1.00  0.00    -0.135 NA 
HETATM   26  C   UNL     1      -9.830   8.876  66.109  1.00  0.00    -0.256 A  
HETATM   27  N   UNL     1      -7.381   7.945  66.832  1.00  0.00    -0.088 NA 
HETATM   28  C   UNL     1      -8.481   7.172  66.931  1.00  0.00    -0.123 A  
HETATM   29  C   UNL     1      -9.743   7.590  66.582  1.00  0.00    -0.273 A  
ENDBRANCH  23  24
ENDBRANCH  21  23
ENDBRANCH  14  19
BRANCH  17  30
HETATM   30  N   UNL     1      -6.873  17.668  68.008  1.00  0.00    -0.188 NA 
HETATM   31  C   UNL     1      -8.090  19.577  68.718  1.00  0.00    -0.357 C  
HETATM   32  C   UNL     1      -5.892  18.512  68.653  1.00  0.00    -0.192 C  
HETATM   33  C   UNL     1      -8.154  18.343  67.803  1.00  0.00    -0.254 C  
HETATM   34  C   UNL     1      -6.723  19.554  69.393  1.00  0.00    -0.372 C  
BRANCH  33  35
HETATM   35  C   UNL     1      -8.303  18.742  66.320  1.00  0.00    -0.246 C  
HETATM   36  O   UNL     1      -7.334  18.082  65.501  1.00  0.00    -0.539 OA 
HETATM   37  H   UNL     1      -7.425  18.327  64.588  1.00  0.00     0.000 HD 
ENDBRANCH  33  35
ENDBRANCH  17  30
ENDBRANCH  11  13
ENDBRANCH  10  11
ENDBRANCH   7  10
ENDBRANCH   2   3
TORSDOF 9
ENDMDL
MODEL      150
REMARK 921   NORMALIZED FREE ENERGY PREDICTED BY IDOCK:   -5.24 KCAL/MOL
REMARK 922        TOTAL FREE ENERGY PREDICTED BY IDOCK:   -9.52 KCAL/MOL
REMARK 923 INTER-LIGAND FREE ENERGY PREDICTED BY IDOCK:   -7.88 KCAL/MOL
REMARK 924 INTRA-LIGAND FREE ENERGY PREDICTED BY IDOCK:   -1.64 KCAL/MOL
REMARK 927      BINDING AFFINITY PREDICTED BY RF-SCORE:    0.00 PKD
ROOT
HETATM    1  C   UNL     1     -14.273   7.312  71.601  1.00  0.00    -0.409 C  
HETATM    2  O   UNL     1     -13.136   8.138  71.809  1.00  0.00    -0.332 OA 
ENDROOT
BRANCH   2   3
HETATM    3  C   UNL     1     -11.972   7.762  71.191  1.00  0.00    -0.291 A  
HETATM    4  C   UNL     1     -11.143   8.786  70.707  1.00  0.00    -0.260 A  
HETATM    5 CL   UNL     1     -11.621  10.447  70.790  1.00  0.00    -0.436 Cl 
HETATM    6  C   UNL     1      -9.903   8.493  70.126  1.00  0.00    -0.184 A  
HETATM    7  C   UNL     1      -9.461   7.168  70.031  1.00  0.00    -0.164 A  
HETATM    8  C   UNL     1     -11.541   6.438  71.069  1.00  0.00    -0.386 A  
HETATM    9  C   UNL     1     -10.302   6.144  70.487  1.00  0.00    -0.270 A  
BRANCH   7  10
HETATM   10  C   UNL     1      -8.124   6.844  69.402  1.00  0.00    -0.127 C  
BRANCH  10  11
HETATM   11  N   UNL     1      -7.798   7.915  68.476  1.00  0.00    -0.117 NA 
HETATM   12  H   UNL     1      -7.455   8.821  68.794  1.00  0.00     0.000 HD 
BRANCH  11  13
HETATM   13  C   UNL     1      -7.986   7.624  67.111  1.00  0.00    -0.117 A  
HETATM   14  C   UNL     1      -8.076   8.661  66.196  1.00  0.00    -0.108 A  
HETATM   15  C   UNL     1      -8.214   8.280  64.882  1.00  0.00    -0.151 A  
HETATM   16  N   UNL     1      -8.018   6.327  66.715  1.00  0.00    -0.107 NA 
HETATM   17  C   UNL     1      -8.138   6.041  65.403  1.00  0.00    -0.132 A  
HETATM   18  N   UNL     1      -8.264   6.994  64.471  1.00  0.00    -0.055 NA 
BRANCH  14  19
HETATM   19  C   UNL     1      -8.066  10.107  66.512  1.00  0.00    -0.121 C  
HETATM   20  O   UNL     1      -7.063  10.609  67.006  1.00  0.00    -0.091 OA 
HETATM   21  N   UNL     1      -9.189  10.835  66.199  1.00  0.00    -0.174 N  
HETATM   22  H   UNL     1      -9.968  10.365  65.737  1.00  0.00     0.000 HD 
BRANCH  21  23
HETATM   23  C   UNL     1      -9.306  12.253  66.504  1.00  0.00    -0.230 C  
BRANCH  23  24
HETATM   24  C   UNL     1     -10.390  12.982  65.729  1.00  0.00    -0.286 A  
HETATM   25  N   UNL     1     -10.197  14.300  65.501  1.00  0.00    -0.340 NA 
HETATM   26  C   UNL     1     -11.137  14.936  64.776  1.00  0.00    -0.383 A  
HETATM   27  N   UNL     1     -11.472  12.290  65.302  1.00  0.00    -0.342 NA 
HETATM   28  C   UNL     1     -12.374  12.979  64.573  1.00  0.00    -0.398 A  
HETATM   29  C   UNL     1     -12.256  14.317  64.278  1.00  0.00    -0.451 A  
ENDBRANCH  23  24
ENDBRANCH  21  23
ENDBRANCH  14  19
BRANCH  17  30
HETATM   30  N   UNL     1      -8.140   4.736  64.996  1.00  0.00    -0.100 NA 
HETATM   31  C   UNL     1      -8.319   3.090  63.296  1.00  0.00    -0.085 C  
HETATM   32  C   UNL     1      -7.044   3.827  65.248  1.00  0.00    -0.066 C  
HETATM   33  C   UNL     1      -9.078   4.230  63.994  1.00  0.00    -0.146 C  
HETATM   34  C   UNL     1      -6.960   2.984  63.980  1.00  0.00    -0.044 C  
BRANCH  33  35
HETATM   35  C   UNL     1     -10.359   3.721  64.687  1.00  0.00    -0.163 C  
HETATM   36  O   UNL     1     -11.168   4.804  65.154  1.00  0.00    -0.808 OA 
HETATM   37  H   UNL     1     -11.956   4.491  65.581  1.00  0.00     0.000 HD 
ENDBRANCH  33  35
ENDBRANCH  17  30
ENDBRANCH  11  13
ENDBRANCH  10  11
ENDBRANCH   7  10
ENDBRANCH   2   3
TORSDOF 9
ENDMDL
MODEL      151
REMARK 921   NORMALIZED FREE ENERGY PREDICTED BY IDOCK:   -5.23 KCAL/MOL
REMARK 922        TOTAL FREE ENERGY PREDICTED BY IDOCK:   -9.51 KCAL/MOL
REMARK 923 INTER-LIGAND FREE ENERGY PREDICTED BY IDOCK:   -7.71 KCAL/MOL
REMARK 924 INTRA-LIGAND FREE ENERGY PREDICTED BY IDOCK:   -1.80 KCAL/MOL
REMARK 927      BINDING AFFINITY PREDICTED BY RF-SCORE:    0.00 PKD
ROOT
HETATM    1  C   UNL     1     -14.036   8.760  72.571  1.00  0.00    -0.349 C  
HETATM    2  O   UNL     1     -12.695   9.120  72.272  1.00  0.00    -0.383 OA 
ENDROOT
BRANCH   2   3
HETATM    3  C   UNL     1     -12.507  10.227  71.487  1.00  0.00    -0.422 A  
HETATM    4  C   UNL     1     -11.773  10.057  70.303  1.00  0.00    -0.251 A  
HETATM    5 CL   UNL     1     -11.045   8.538  69.905  1.00  0.00    -0.173 Cl 
HETATM    6  C   UNL     1     -11.593  11.119  69.409  1.00  0.00    -0.388 A  
HETATM    7  C   UNL     1     -12.159  12.372  69.675  1.00  0.00    -0.271 A  
HETATM    8  C   UNL     1     -13.046  11.487  71.765  1.00  0.00    -0.503 A  
HETATM    9  C   UNL     1     -12.866  12.550  70.871  1.00  0.00    -0.177 A  
BRANCH   7  10
HETATM   10  C   UNL     1     -11.967  13.525  68.714  1.00  0.00    -0.339 C  
BRANCH  10  11
HETATM   11  N   UNL     1     -11.224  13.029  67.569  1.00  0.00    -0.271 NA 
HETATM   12  H   UNL     1     -11.681  12.557  66.789  1.00  0.00     0.000 HD 
BRANCH  11  13
HETATM   13  C   UNL     1      -9.831  13.240  67.603  1.00  0.00    -0.230 A  
HETATM   14  C   UNL     1      -8.991  12.370  66.927  1.00  0.00    -0.212 A  
HETATM   15  C   UNL     1      -7.652  12.680  66.980  1.00  0.00     0.013 A  
HETATM   16  N   UNL     1      -9.348  14.328  68.253  1.00  0.00    -0.203 NA 
HETATM   17  C   UNL     1      -8.022  14.569  68.240  1.00  0.00    -0.137 A  
HETATM   18  N   UNL     1      -7.151  13.751  67.635  1.00  0.00    -0.168 NA 
BRANCH  14  19
HETATM   19  C   UNL     1      -9.401  11.148  66.198  1.00  0.00    -0.206 C  
HETATM   20  O   UNL     1     -10.199  11.240  65.272  1.00  0.00    -0.249 OA 
HETATM   21  N   UNL     1      -8.832   9.957  66.579  1.00  0.00    -0.138 N  
HETATM   22  H   UNL     1      -8.132   9.961  67.322  1.00  0.00     0.000 HD 
BRANCH  21  23
HETATM   23  C   UNL     1      -9.193   8.690  65.962  1.00  0.00    -0.216 C  
BRANCH  23  24
HETATM   24  C   UNL     1      -9.329   7.528  66.929  1.00  0.00    -0.157 A  
HETATM   25  N   UNL     1     -10.415   6.737  66.786  1.00  0.00    -0.246 NA 
HETATM   26  C   UNL     1     -10.513   5.681  67.615  1.00  0.00    -0.219 A  
HETATM   27  N   UNL     1      -8.369   7.333  67.863  1.00  0.00    -0.119 NA 
HETATM   28  C   UNL     1      -8.516   6.254  68.657  1.00  0.00    -0.122 A  
HETATM   29  C   UNL     1      -9.579   5.385  68.577  1.00  0.00    -0.169 A  
ENDBRANCH  23  24
ENDBRANCH  21  23
ENDBRANCH  14  19
BRANCH  17  30
HETATM   30  N   UNL     1      -7.534  15.681  68.868  1.00  0.00    -0.148 NA 
HETATM   31  C   UNL     1      -5.887  17.370  69.118  1.00  0.00    -0.200 C  
HETATM   32  C   UNL     1      -8.284  16.910  68.998  1.00  0.00    -0.153 C  
HETATM   33  C   UNL     1      -6.112  15.850  69.166  1.00  0.00    -0.129 C  
HETATM   34  C   UNL     1      -7.240  18.007  68.818  1.00  0.00    -0.283 C  
BRANCH  33  35
HETATM   35  C   UNL     1      -5.798  15.271  70.560  1.00  0.00    -0.083 C  
HETATM   36  O   UNL     1      -6.625  14.143  70.857  1.00  0.00    -0.412 OA 
HETATM   37  H   UNL     1      -6.432  13.786  71.716  1.00  0.00     0.000 HD 
ENDBRANCH  33  35
ENDBRANCH  17  30
ENDBRANCH  11  13
ENDBRANCH  10  11
ENDBRANCH   7  10
ENDBRANCH   2   3
TORSDOF 9
ENDMDL
MODEL      152
REMARK 921   NORMALIZED FREE ENERGY PREDICTED BY IDOCK:   -5.17 KCAL/MOL
REMARK 922        TOTAL FREE ENERGY PREDICTED BY IDOCK:   -9.42 KCAL/MOL
REMARK 923 INTER-LIGAND FREE ENERGY PREDICTED BY IDOCK:   -7.86 KCAL/MOL
REMARK 924 INTRA-LIGAND FREE ENERGY PREDICTED BY IDOCK:   -1.56 KCAL/MOL
REMARK 927      BINDING AFFINITY PREDICTED BY RF-SCORE:    0.00 PKD
ROOT
HETATM    1  C   UNL     1     -14.297   7.510  71.687  1.00  0.00    -0.477 C  
HETATM    2  O   UNL     1     -13.387   8.251  72.489  1.00  0.00    -0.185 OA 
ENDROOT
BRANCH   2   3
HETATM    3  C   UNL     1     -12.145   8.491  71.963  1.00  0.00    -0.364 A  
HETATM    4  C   UNL     1     -11.962   9.699  71.273  1.00  0.00    -0.380 A  
HETATM    5 CL   UNL     1     -13.279  10.791  71.006  1.00  0.00    -0.310 Cl 
HETATM    6  C   UNL     1     -10.708  10.055  70.764  1.00  0.00    -0.272 A  
HETATM    7  C   UNL     1      -9.604   9.213  70.949  1.00  0.00    -0.347 A  
HETATM    8  C   UNL     1     -11.049   7.638  72.120  1.00  0.00    -0.314 A  
HETATM    9  C   UNL     1      -9.793   7.993  71.611  1.00  0.00    -0.223 A  
BRANCH   7  10
HETATM   10  C   UNL     1      -8.246   9.590  70.400  1.00  0.00    -0.190 C  
BRANCH  10  11
HETATM   11  N   UNL     1      -8.456  10.421  69.228  1.00  0.00    -0.193 NA 
HETATM   12  H   UNL     1      -8.276  11.425  69.236  1.00  0.00     0.000 HD 
BRANCH  11  13
HETATM   13  C   UNL     1      -8.926   9.755  68.078  1.00  0.00    -0.118 A  
HETATM   14  C   UNL     1      -9.587  10.473  67.094  1.00  0.00    -0.194 A  
HETATM   15  C   UNL     1      -9.970   9.748  65.990  1.00  0.00    -0.272 A  
HETATM   16  N   UNL     1      -8.668   8.431  67.937  1.00  0.00    -0.137 NA 
HETATM   17  C   UNL     1      -9.062   7.800  66.813  1.00  0.00    -0.154 A  
HETATM   18  N   UNL     1      -9.735   8.425  65.838  1.00  0.00    -0.079 NA 
BRANCH  14  19
HETATM   19  C   UNL     1      -9.934  11.911  67.146  1.00  0.00    -0.194 C  
HETATM   20  O   UNL     1      -9.045  12.748  67.041  1.00  0.00    -0.207 OA 
HETATM   21  N   UNL     1     -11.261  12.242  67.276  1.00  0.00    -0.281 N  
HETATM   22  H   UNL     1     -11.955  11.494  67.301  1.00  0.00     0.000 HD 
BRANCH  21  23
HETATM   23  C   UNL     1     -11.712  13.622  67.380  1.00  0.00    -0.381 C  
BRANCH  23  24
HETATM   24  C   UNL     1     -11.669  14.200  68.783  1.00  0.00    -0.345 A  
HETATM   25  N   UNL     1     -10.816  15.226  68.996  1.00  0.00    -0.233 NA 
HETATM   26  C   UNL     1     -10.810  15.767  70.229  1.00  0.00    -0.351 A  
HETATM   27  N   UNL     1     -12.481  13.681  69.734  1.00  0.00    -0.213 NA 
HETATM   28  C   UNL     1     -12.438  14.271  70.945  1.00  0.00    -0.354 A  
HETATM   29  C   UNL     1     -11.612  15.328  71.252  1.00  0.00    -0.430 A  
ENDBRANCH  23  24
ENDBRANCH  21  23
ENDBRANCH  14  19
BRANCH  17  30
HETATM   30  N   UNL     1      -8.779   6.472  66.652  1.00  0.00    -0.124 NA 
HETATM   31  C   UNL     1      -8.388   4.309  67.544  1.00  0.00    -0.099 C  
HETATM   32  C   UNL     1      -9.575   5.587  65.832  1.00  0.00    -0.063 C  
HETATM   33  C   UNL     1      -7.864   5.754  67.540  1.00  0.00    -0.101 C  
HETATM   34  C   UNL     1      -9.589   4.273  66.605  1.00  0.00    -0.218 C  
BRANCH  33  35
HETATM   35  C   UNL     1      -6.427   5.838  66.988  1.00  0.00    -0.047 C  
HETATM   36  O   UNL     1      -5.630   4.737  67.433  1.00  0.00    -0.012 OA 
HETATM   37  H   UNL     1      -4.744   4.788  67.093  1.00  0.00     0.000 HD 
ENDBRANCH  33  35
ENDBRANCH  17  30
ENDBRANCH  11  13
ENDBRANCH  10  11
ENDBRANCH   7  10
ENDBRANCH   2   3
TORSDOF 9
ENDMDL
MODEL      153
REMARK 921   NORMALIZED FREE ENERGY PREDICTED BY IDOCK:   -5.16 KCAL/MOL
REMARK 922        TOTAL FREE ENERGY PREDICTED BY IDOCK:   -9.40 KCAL/MOL
REMARK 923 INTER-LIGAND FREE ENERGY PREDICTED BY IDOCK:   -7.46 KCAL/MOL
REMARK 924 INTRA-LIGAND FREE ENERGY PREDICTED BY IDOCK:   -1.94 KCAL/MOL
REMARK 927      BINDING AFFINITY PREDICTED BY RF-SCORE:    0.00 PKD
ROOT
HETATM    1  C   UNL     1      -6.069   9.106  72.731  1.00  0.00     0.116 C  
HETATM    2  O   UNL     1      -7.002   8.248  73.372  1.00  0.00    -0.121 OA 
ENDROOT
BRANCH   2   3
HETATM    3  C   UNL     1      -8.025   7.757  72.605  1.00  0.00    -0.112 A  
HETATM    4  C   UNL     1      -7.785   6.566  71.901  1.00  0.00    -0.098 A  
HETATM    5 CL   UNL     1      -6.228   5.810  71.916  1.00  0.00    -0.042 Cl 
HETATM    6  C   UNL     1      -8.798   5.959  71.150  1.00  0.00    -0.138 A  
HETATM    7  C   UNL     1     -10.079   6.523  71.099  1.00  0.00    -0.206 A  
HETATM    8  C   UNL     1      -9.296   8.334  72.530  1.00  0.00    -0.350 A  
HETATM    9  C   UNL     1     -10.309   7.727  71.778  1.00  0.00    -0.243 A  
BRANCH   7  10
HETATM   10  C   UNL     1     -11.176   5.873  70.287  1.00  0.00    -0.247 C  
BRANCH  10  11
HETATM   11  N   UNL     1     -11.504   6.765  69.189  1.00  0.00    -0.593 NA 
HETATM   12  H   UNL     1     -12.365   7.311  69.173  1.00  0.00     0.000 HD 
BRANCH  11  13
HETATM   13  C   UNL     1     -10.558   6.828  68.146  1.00  0.00    -0.230 A  
HETATM   14  C   UNL     1      -9.939   8.033  67.857  1.00  0.00    -0.223 A  
HETATM   15  C   UNL     1      -9.000   7.989  66.853  1.00  0.00    -0.138 A  
HETATM   16  N   UNL     1     -10.234   5.689  67.485  1.00  0.00    -0.182 NA 
HETATM   17  C   UNL     1      -9.288   5.730  66.526  1.00  0.00    -0.152 A  
HETATM   18  N   UNL     1      -8.675   6.868  66.173  1.00  0.00    -0.142 NA 
BRANCH  14  19
HETATM   19  C   UNL     1     -10.221   9.337  68.500  1.00  0.00    -0.201 C  
HETATM   20  O   UNL     1      -9.344   9.883  69.160  1.00  0.00    -0.171 OA 
HETATM   21  N   UNL     1     -11.459   9.895  68.293  1.00  0.00    -0.520 N  
HETATM   22  H   UNL     1     -12.122   9.413  67.685  1.00  0.00     0.000 HD 
BRANCH  21  23
HETATM   23  C   UNL     1     -11.859  11.151  68.910  1.00  0.00    -0.337 C  
BRANCH  23  24
HETATM   24  C   UNL     1     -11.869  12.345  67.973  1.00  0.00    -0.316 A  
HETATM   25  N   UNL     1     -12.004  12.085  66.654  1.00  0.00    -0.603 NA 
HETATM   26  C   UNL     1     -12.057  13.147  65.827  1.00  0.00    -0.447 A  
HETATM   27  N   UNL     1     -11.757  13.590  68.492  1.00  0.00    -0.336 NA 
HETATM   28  C   UNL     1     -11.826  14.612  67.616  1.00  0.00    -0.337 A  
HETATM   29  C   UNL     1     -11.977  14.447  66.259  1.00  0.00    -0.391 A  
ENDBRANCH  23  24
ENDBRANCH  21  23
ENDBRANCH  14  19
BRANCH  17  30
HETATM   30  N   UNL     1      -8.936   4.579  65.878  1.00  0.00    -0.121 NA 
HETATM   31  C   UNL     1      -8.827   2.212  65.759  1.00  0.00    -0.121 C  
HETATM   32  C   UNL     1      -9.380   4.257  64.540  1.00  0.00    -0.160 C  
HETATM   33  C   UNL     1      -8.367   3.429  66.579  1.00  0.00    -0.102 C  
HETATM   34  C   UNL     1      -9.630   2.753  64.581  1.00  0.00    -0.112 C  
BRANCH  33  35
HETATM   35  C   UNL     1      -6.830   3.545  66.613  1.00  0.00    -0.054 C  
HETATM   36  O   UNL     1      -6.366   3.987  67.892  1.00  0.00    -0.035 OA 
HETATM   37  H   UNL     1      -5.419   4.059  67.913  1.00  0.00     0.000 HD 
ENDBRANCH  33  35
ENDBRANCH  17  30
ENDBRANCH  11  13
ENDBRANCH  10  11
ENDBRANCH   7  10
ENDBRANCH   2   3
TORSDOF 9
ENDMDL
MODEL      154
REMARK 921   NORMALIZED FREE ENERGY PREDICTED BY IDOCK:   -5.15 KCAL/MOL
REMARK 922        TOTAL FREE ENERGY PREDICTED BY IDOCK:   -9.39 KCAL/MOL
REMARK 923 INTER-LIGAND FREE ENERGY PREDICTED BY IDOCK:   -7.76 KCAL/MOL
REMARK 924 INTRA-LIGAND FREE ENERGY PREDICTED BY IDOCK:   -1.63 KCAL/MOL
REMARK 927      BINDING AFFINITY PREDICTED BY RF-SCORE:    0.00 PKD
ROOT
HETATM    1  C   UNL     1      -5.166   6.118  68.095  1.00  0.00    -0.004 C  
HETATM    2  O   UNL     1      -6.512   5.983  67.661  1.00  0.00    -0.043 OA 
ENDROOT
BRANCH   2   3
HETATM    3  C   UNL     1      -7.246   7.134  67.541  1.00  0.00    -0.090 A  
HETATM    4  C   UNL     1      -8.545   7.015  67.021  1.00  0.00    -0.122 A  
HETATM    5 CL   UNL     1      -9.152   5.496  66.455  1.00  0.00    -0.134 Cl 
HETATM    6  C   UNL     1      -9.387   8.129  66.929  1.00  0.00    -0.219 A  
HETATM    7  C   UNL     1      -8.952   9.385  67.371  1.00  0.00    -0.134 A  
HETATM    8  C   UNL     1      -6.804   8.393  67.954  1.00  0.00    -0.067 A  
HETATM    9  C   UNL     1      -7.646   9.509  67.862  1.00  0.00    -0.087 A  
BRANCH   7  10
HETATM   10  C   UNL     1      -9.856  10.593  67.273  1.00  0.00    -0.176 C  
BRANCH  10  11
HETATM   11  N   UNL     1      -9.517  11.491  68.363  1.00  0.00    -0.192 NA 
HETATM   12  H   UNL     1      -8.798  11.263  69.050  1.00  0.00     0.000 HD 
BRANCH  11  13
HETATM   13  C   UNL     1     -10.241  12.699  68.412  1.00  0.00    -0.232 A  
HETATM   14  C   UNL     1     -11.322  12.814  69.272  1.00  0.00    -0.307 A  
HETATM   15  C   UNL     1     -11.940  14.042  69.283  1.00  0.00    -0.353 A  
HETATM   16  N   UNL     1      -9.826  13.744  67.653  1.00  0.00    -0.229 NA 
HETATM   17  C   UNL     1     -10.479  14.920  67.738  1.00  0.00    -0.255 A  
HETATM   18  N   UNL     1     -11.551  15.089  68.523  1.00  0.00    -0.316 NA 
BRANCH  14  19
HETATM   19  C   UNL     1     -11.870  11.742  70.134  1.00  0.00    -0.324 C  
HETATM   20  O   UNL     1     -13.018  11.835  70.551  1.00  0.00    -0.004 OA 
HETATM   21  N   UNL     1     -11.063  10.662  70.399  1.00  0.00    -0.440 N  
HETATM   22  H   UNL     1     -10.136  10.623  69.973  1.00  0.00     0.000 HD 
BRANCH  21  23
HETATM   23  C   UNL     1     -11.482   9.573  71.268  1.00  0.00    -0.377 C  
BRANCH  23  24
HETATM   24  C   UNL     1     -10.806   8.242  70.991  1.00  0.00    -0.233 A  
HETATM   25  N   UNL     1      -9.458   8.252  70.890  1.00  0.00    -0.158 NA 
HETATM   26  C   UNL     1      -8.855   7.065  70.688  1.00  0.00    -0.150 A  
HETATM   27  N   UNL     1     -11.566   7.129  70.874  1.00  0.00    -0.298 NA 
HETATM   28  C   UNL     1     -10.905   5.970  70.683  1.00  0.00    -0.297 A  
HETATM   29  C   UNL     1      -9.536   5.878  70.580  1.00  0.00    -0.208 A  
ENDBRANCH  23  24
ENDBRANCH  21  23
ENDBRANCH  14  19
BRANCH  17  30
HETATM   30  N   UNL     1     -10.047  15.985  66.998  1.00  0.00    -0.265 NA 
HETATM   31  C   UNL     1     -10.349  18.173  66.134  1.00  0.00    -0.394 C  
HETATM   32  C   UNL     1      -8.785  16.650  67.232  1.00  0.00    -0.191 C  
HETATM   33  C   UNL     1     -10.944  16.756  66.138  1.00  0.00     0.132 C  
HETATM   34  C   UNL     1      -9.089  18.125  66.992  1.00  0.00    -0.263 C  
BRANCH  33  35
HETATM   35  C   UNL     1     -10.966  16.143  64.723  1.00  0.00    -0.313 C  
HETATM   36  O   UNL     1     -12.131  16.544  63.996  1.00  0.00    -1.021 OA 
HETATM   37  H   UNL     1     -12.145  16.166  63.125  1.00  0.00     0.000 HD 
ENDBRANCH  33  35
ENDBRANCH  17  30
ENDBRANCH  11  13
ENDBRANCH  10  11
ENDBRANCH   7  10
ENDBRANCH   2   3
TORSDOF 9
ENDMDL
MODEL      155
REMARK 921   NORMALIZED FREE ENERGY PREDICTED BY IDOCK:   -5.15 KCAL/MOL
REMARK 922        TOTAL FREE ENERGY PREDICTED BY IDOCK:   -9.39 KCAL/MOL
REMARK 923 INTER-LIGAND FREE ENERGY PREDICTED BY IDOCK:   -7.67 KCAL/MOL
REMARK 924 INTRA-LIGAND FREE ENERGY PREDICTED BY IDOCK:   -1.72 KCAL/MOL
REMARK 927      BINDING AFFINITY PREDICTED BY RF-SCORE:    0.00 PKD
ROOT
HETATM    1  C   UNL     1      -8.996   2.963  63.889  1.00  0.00    -0.098 C  
HETATM    2  O   UNL     1      -9.705   3.229  65.091  1.00  0.00    -0.143 OA 
ENDROOT
BRANCH   2   3
HETATM    3  C   UNL     1      -9.167   4.162  65.938  1.00  0.00    -0.148 A  
HETATM    4  C   UNL     1      -8.978   3.781  67.275  1.00  0.00    -0.140 A  
HETATM    5 CL   UNL     1      -9.501   2.236  67.854  1.00  0.00    -0.228 Cl 
HETATM    6  C   UNL     1      -8.371   4.648  68.191  1.00  0.00    -0.094 A  
HETATM    7  C   UNL     1      -7.925   5.912  67.782  1.00  0.00    -0.098 A  
HETATM    8  C   UNL     1      -8.748   5.435  65.539  1.00  0.00    -0.154 A  
HETATM    9  C   UNL     1      -8.141   6.303  66.455  1.00  0.00    -0.112 A  
BRANCH   7  10
HETATM   10  C   UNL     1      -7.270   6.855  68.767  1.00  0.00    -0.091 C  
BRANCH  10  11
HETATM   11  N   UNL     1      -7.750   8.196  68.484  1.00  0.00    -0.110 NA 
HETATM   12  H   UNL     1      -7.247   8.832  67.866  1.00  0.00     0.000 HD 
BRANCH  11  13
HETATM   13  C   UNL     1      -8.954   8.564  69.117  1.00  0.00    -0.146 A  
HETATM   14  C   UNL     1      -9.750   9.548  68.552  1.00  0.00    -0.162 A  
HETATM   15  C   UNL     1     -10.926   9.809  69.216  1.00  0.00    -0.193 A  
HETATM   16  N   UNL     1      -9.333   7.904  70.239  1.00  0.00    -0.159 NA 
HETATM   17  C   UNL     1     -10.512   8.210  70.817  1.00  0.00    -0.202 A  
HETATM   18  N   UNL     1     -11.313   9.173  70.343  1.00  0.00    -0.248 NA 
BRANCH  14  19
HETATM   19  C   UNL     1      -9.434  10.341  67.343  1.00  0.00    -0.153 C  
HETATM   20  O   UNL     1      -8.440  11.058  67.338  1.00  0.00    -0.129 OA 
HETATM   21  N   UNL     1     -10.264  10.206  66.257  1.00  0.00    -0.236 N  
HETATM   22  H   UNL     1     -11.042   9.548  66.310  1.00  0.00     0.000 HD 
BRANCH  21  23
HETATM   23  C   UNL     1     -10.073  10.969  65.033  1.00  0.00    -0.296 C  
BRANCH  23  24
HETATM   24  C   UNL     1     -10.802  12.300  64.993  1.00  0.00    -0.298 A  
HETATM   25  N   UNL     1     -12.114  12.289  65.319  1.00  0.00    -0.481 NA 
HETATM   26  C   UNL     1     -12.749  13.476  65.327  1.00  0.00    -0.427 A  
HETATM   27  N   UNL     1     -10.116  13.416  64.654  1.00  0.00    -0.295 NA 
HETATM   28  C   UNL     1     -10.803  14.576  64.689  1.00  0.00    -0.332 A  
HETATM   29  C   UNL     1     -12.135  14.665  65.021  1.00  0.00    -0.349 A  
ENDBRANCH  23  24
ENDBRANCH  21  23
ENDBRANCH  14  19
BRANCH  17  30
HETATM   30  N   UNL     1     -10.913   7.526  71.931  1.00  0.00    -0.230 NA 
HETATM   31  C   UNL     1     -11.383   5.496  73.065  1.00  0.00    -0.323 C  
HETATM   32  C   UNL     1     -10.273   7.668  73.219  1.00  0.00    -0.339 C  
HETATM   33  C   UNL     1     -11.790   6.358  71.858  1.00  0.00    -0.329 C  
HETATM   34  C   UNL     1     -10.286   6.258  73.800  1.00  0.00    -0.285 C  
BRANCH  33  35
HETATM   35  C   UNL     1     -13.263   6.804  71.947  1.00  0.00    -0.099 C  
HETATM   36  O   UNL     1     -13.379   8.128  72.474  1.00  0.00    -0.546 OA 
HETATM   37  H   UNL     1     -14.286   8.404  72.529  1.00  0.00     0.000 HD 
ENDBRANCH  33  35
ENDBRANCH  17  30
ENDBRANCH  11  13
ENDBRANCH  10  11
ENDBRANCH   7  10
ENDBRANCH   2   3
TORSDOF 9
ENDMDL
MODEL      156
REMARK 921   NORMALIZED FREE ENERGY PREDICTED BY IDOCK:   -5.15 KCAL/MOL
REMARK 922        TOTAL FREE ENERGY PREDICTED BY IDOCK:   -9.39 KCAL/MOL
REMARK 923 INTER-LIGAND FREE ENERGY PREDICTED BY IDOCK:   -7.56 KCAL/MOL
REMARK 924 INTRA-LIGAND FREE ENERGY PREDICTED BY IDOCK:   -1.83 KCAL/MOL
REMARK 927      BINDING AFFINITY PREDICTED BY RF-SCORE:    0.00 PKD
ROOT
HETATM    1  C   UNL     1      -6.123   7.602  72.872  1.00  0.00    -0.055 C  
HETATM    2  O   UNL     1      -7.393   7.027  72.595  1.00  0.00    -0.080 OA 
ENDROOT
BRANCH   2   3
HETATM    3  C   UNL     1      -8.222   7.723  71.755  1.00  0.00    -0.111 A  
HETATM    4  C   UNL     1      -8.115   7.457  70.381  1.00  0.00    -0.108 A  
HETATM    5 CL   UNL     1      -6.913   6.375  69.765  1.00  0.00    -0.065 Cl 
HETATM    6  C   UNL     1      -8.972   8.072  69.461  1.00  0.00    -0.148 A  
HETATM    7  C   UNL     1      -9.966   8.957  69.899  1.00  0.00    -0.197 A  
HETATM    8  C   UNL     1      -9.195   8.628  72.187  1.00  0.00    -0.326 A  
HETATM    9  C   UNL     1     -10.052   9.245  71.267  1.00  0.00    -0.361 A  
BRANCH   7  10
HETATM   10  C   UNL     1     -10.893   9.626  68.909  1.00  0.00    -0.174 C  
BRANCH  10  11
HETATM   11  N   UNL     1     -10.303  10.901  68.541  1.00  0.00    -0.178 NA 
HETATM   12  H   UNL     1     -10.109  11.628  69.229  1.00  0.00     0.000 HD 
BRANCH  11  13
HETATM   13  C   UNL     1     -10.015  11.072  67.172  1.00  0.00    -0.187 A  
HETATM   14  C   UNL     1     -10.460  12.208  66.516  1.00  0.00    -0.254 A  
HETATM   15  C   UNL     1     -10.095  12.309  65.194  1.00  0.00    -0.261 A  
HETATM   16  N   UNL     1      -9.256  10.141  66.541  1.00  0.00    -0.151 NA 
HETATM   17  C   UNL     1      -8.928  10.327  65.247  1.00  0.00    -0.186 A  
HETATM   18  N   UNL     1      -9.353  11.385  64.544  1.00  0.00    -0.137 NA 
BRANCH  14  19
HETATM   19  C   UNL     1     -11.302  13.279  67.096  1.00  0.00    -0.317 C  
HETATM   20  O   UNL     1     -12.342  13.598  66.533  1.00  0.00    -0.412 OA 
HETATM   21  N   UNL     1     -10.884  13.848  68.276  1.00  0.00    -0.242 N  
HETATM   22  H   UNL     1     -10.037  13.495  68.721  1.00  0.00     0.000 HD 
BRANCH  21  23
HETATM   23  C   UNL     1     -11.610  14.937  68.912  1.00  0.00    -0.315 C  
BRANCH  23  24
HETATM   24  C   UNL     1     -12.327  14.558  70.196  1.00  0.00    -0.342 A  
HETATM   25  N   UNL     1     -12.274  13.259  70.565  1.00  0.00    -0.364 NA 
HETATM   26  C   UNL     1     -12.873  12.931  71.725  1.00  0.00    -0.235 A  
HETATM   27  N   UNL     1     -12.962  15.521  70.904  1.00  0.00    -0.484 NA 
HETATM   28  C   UNL     1     -13.534  15.134  72.061  1.00  0.00    -0.421 A  
HETATM   29  C   UNL     1     -13.521  13.839  72.526  1.00  0.00    -0.682 A  
ENDBRANCH  23  24
ENDBRANCH  21  23
ENDBRANCH  14  19
BRANCH  17  30
HETATM   30  N   UNL     1      -8.138   9.407  64.614  1.00  0.00    -0.125 NA 
HETATM   31  C   UNL     1      -7.813   7.734  62.964  1.00  0.00    -0.136 C  
HETATM   32  C   UNL     1      -6.875   9.741  63.996  1.00  0.00    -0.120 C  
HETATM   33  C   UNL     1      -8.638   8.093  64.211  1.00  0.00     0.170 C  
HETATM   34  C   UNL     1      -6.837   8.883  62.736  1.00  0.00    -0.093 C  
BRANCH  33  35
HETATM   35  C   UNL     1      -8.417   7.078  65.351  1.00  0.00    -0.086 C  
HETATM   36  O   UNL     1      -9.596   6.920  66.147  1.00  0.00    -0.374 OA 
HETATM   37  H   UNL     1      -9.461   6.296  66.849  1.00  0.00     0.000 HD 
ENDBRANCH  33  35
ENDBRANCH  17  30
ENDBRANCH  11  13
ENDBRANCH  10  11
ENDBRANCH   7  10
ENDBRANCH   2   3
TORSDOF 9
ENDMDL
MODEL      157
REMARK 921   NORMALIZED FREE ENERGY PREDICTED BY IDOCK:   -5.14 KCAL/MOL
REMARK 922        TOTAL FREE ENERGY PREDICTED BY IDOCK:   -9.37 KCAL/MOL
REMARK 923 INTER-LIGAND FREE ENERGY PREDICTED BY IDOCK:   -7.34 KCAL/MOL
REMARK 924 INTRA-LIGAND FREE ENERGY PREDICTED BY IDOCK:   -2.03 KCAL/MOL
REMARK 927      BINDING AFFINITY PREDICTED BY RF-SCORE:    0.00 PKD
ROOT
HETATM    1  C   UNL     1     -12.994  14.320  65.253  1.00  0.00    -0.173 C  
HETATM    2  O   UNL     1     -11.720  14.048  65.819  1.00  0.00    -0.340 OA 
ENDROOT
BRANCH   2   3
HETATM    3  C   UNL     1     -11.665  13.092  66.799  1.00  0.00    -0.382 A  
HETATM    4  C   UNL     1     -11.331  11.787  66.403  1.00  0.00    -0.297 A  
HETATM    5 CL   UNL     1     -11.104  11.382  64.736  1.00  0.00    -0.306 Cl 
HETATM    6  C   UNL     1     -11.184  10.764  67.348  1.00  0.00    -0.315 A  
HETATM    7  C   UNL     1     -11.355  11.031  68.712  1.00  0.00    -0.349 A  
HETATM    8  C   UNL     1     -11.863  13.348  68.158  1.00  0.00    -0.396 A  
HETATM    9  C   UNL     1     -11.718  12.326  69.104  1.00  0.00    -0.377 A  
BRANCH   7  10
HETATM   10  C   UNL     1     -11.200   9.930  69.738  1.00  0.00    -0.235 C  
BRANCH  10  11
HETATM   11  N   UNL     1     -10.899   8.700  69.027  1.00  0.00    -0.429 NA 
HETATM   12  H   UNL     1     -11.449   8.387  68.227  1.00  0.00     0.000 HD 
BRANCH  11  13
HETATM   13  C   UNL     1      -9.798   7.965  69.510  1.00  0.00    -0.176 A  
HETATM   14  C   UNL     1      -8.524   8.260  69.051  1.00  0.00    -0.131 A  
HETATM   15  C   UNL     1      -7.508   7.521  69.610  1.00  0.00    -0.092 A  
HETATM   16  N   UNL     1     -10.006   7.021  70.461  1.00  0.00    -0.183 NA 
HETATM   17  C   UNL     1      -8.952   6.354  70.970  1.00  0.00    -0.146 A  
HETATM   18  N   UNL     1      -7.698   6.565  70.547  1.00  0.00    -0.102 NA 
BRANCH  14  19
HETATM   19  C   UNL     1      -8.179   9.256  68.011  1.00  0.00    -0.115 C  
HETATM   20  O   UNL     1      -8.344   8.974  66.830  1.00  0.00    -0.117 OA 
HETATM   21  N   UNL     1      -7.714  10.479  68.431  1.00  0.00    -0.099 N  
HETATM   22  H   UNL     1      -7.654  10.667  69.432  1.00  0.00     0.000 HD 
BRANCH  21  23
HETATM   23  C   UNL     1      -7.304  11.517  67.496  1.00  0.00    -0.112 C  
BRANCH  23  24
HETATM   24  C   UNL     1      -7.427  12.934  68.027  1.00  0.00    -0.125 A  
HETATM   25  N   UNL     1      -6.554  13.304  68.989  1.00  0.00    -0.101 NA 
HETATM   26  C   UNL     1      -6.634  14.575  69.428  1.00  0.00    -0.138 A  
HETATM   27  N   UNL     1      -8.378  13.748  67.514  1.00  0.00    -0.180 NA 
HETATM   28  C   UNL     1      -8.404  15.011  67.986  1.00  0.00    -0.148 A  
HETATM   29  C   UNL     1      -7.547  15.483  68.953  1.00  0.00    -0.166 A  
ENDBRANCH  23  24
ENDBRANCH  21  23
ENDBRANCH  14  19
BRANCH  17  30
HETATM   30  N   UNL     1      -9.153   5.422  71.950  1.00  0.00    -0.138 NA 
HETATM   31  C   UNL     1     -10.478   3.746  72.981  1.00  0.00    -0.255 C  
HETATM   32  C   UNL     1      -8.236   4.335  72.209  1.00  0.00    -0.103 C  
HETATM   33  C   UNL     1     -10.452   5.234  72.595  1.00  0.00    -0.218 C  
HETATM   34  C   UNL     1      -9.140   3.156  72.551  1.00  0.00    -0.128 C  
BRANCH  33  35
HETATM   35  C   UNL     1     -10.557   6.146  73.834  1.00  0.00    -0.213 C  
HETATM   36  O   UNL     1     -11.039   7.447  73.488  1.00  0.00    -0.558 OA 
HETATM   37  H   UNL     1     -11.103   8.009  74.251  1.00  0.00     0.000 HD 
ENDBRANCH  33  35
ENDBRANCH  17  30
ENDBRANCH  11  13
ENDBRANCH  10  11
ENDBRANCH   7  10
ENDBRANCH   2   3
TORSDOF 9
ENDMDL
MODEL      158
REMARK 921   NORMALIZED FREE ENERGY PREDICTED BY IDOCK:   -5.14 KCAL/MOL
REMARK 922        TOTAL FREE ENERGY PREDICTED BY IDOCK:   -9.37 KCAL/MOL
REMARK 923 INTER-LIGAND FREE ENERGY PREDICTED BY IDOCK:   -7.98 KCAL/MOL
REMARK 924 INTRA-LIGAND FREE ENERGY PREDICTED BY IDOCK:   -1.39 KCAL/MOL
REMARK 927      BINDING AFFINITY PREDICTED BY RF-SCORE:    0.00 PKD
ROOT
HETATM    1  C   UNL     1      -5.713   8.050  71.000  1.00  0.00    -0.033 C  
HETATM    2  O   UNL     1      -5.145   8.062  69.697  1.00  0.00    -0.022 OA 
ENDROOT
BRANCH   2   3
HETATM    3  C   UNL     1      -5.957   8.459  68.668  1.00  0.00    -0.044 A  
HETATM    4  C   UNL     1      -6.476   7.456  67.835  1.00  0.00    -0.049 A  
HETATM    5 CL   UNL     1      -6.022   5.797  68.034  1.00  0.00    -0.016 Cl 
HETATM    6  C   UNL     1      -7.368   7.767  66.803  1.00  0.00    -0.089 A  
HETATM    7  C   UNL     1      -7.774   9.092  66.592  1.00  0.00    -0.096 A  
HETATM    8  C   UNL     1      -6.340   9.784  68.437  1.00  0.00    -0.054 A  
HETATM    9  C   UNL     1      -7.233  10.097  67.404  1.00  0.00    -0.088 A  
BRANCH   7  10
HETATM   10  C   UNL     1      -8.736   9.435  65.477  1.00  0.00    -0.163 C  
BRANCH  10  11
HETATM   11  N   UNL     1     -10.079   9.136  65.942  1.00  0.00    -0.387 NA 
HETATM   12  H   UNL     1     -10.546   8.256  65.720  1.00  0.00     0.000 HD 
BRANCH  11  13
HETATM   13  C   UNL     1     -10.697  10.135  66.719  1.00  0.00    -0.121 A  
HETATM   14  C   UNL     1     -10.996   9.882  68.048  1.00  0.00    -0.269 A  
HETATM   15  C   UNL     1     -11.558  10.930  68.738  1.00  0.00    -0.309 A  
HETATM   16  N   UNL     1     -10.936  11.347  66.159  1.00  0.00    -0.270 NA 
HETATM   17  C   UNL     1     -11.473  12.327  66.912  1.00  0.00    -0.356 A  
HETATM   18  N   UNL     1     -11.817  12.139  68.193  1.00  0.00    -0.436 NA 
BRANCH  14  19
HETATM   19  C   UNL     1     -10.793   8.599  68.760  1.00  0.00     0.030 C  
HETATM   20  O   UNL     1      -9.905   7.840  68.391  1.00  0.00    -0.160 OA 
HETATM   21  N   UNL     1     -11.603   8.335  69.839  1.00  0.00    -0.414 N  
HETATM   22  H   UNL     1     -12.285   9.037  70.127  1.00  0.00     0.000 HD 
BRANCH  21  23
HETATM   23  C   UNL     1     -11.521   7.088  70.585  1.00  0.00    -0.324 C  
BRANCH  23  24
HETATM   24  C   UNL     1     -10.676   7.156  71.844  1.00  0.00    -0.216 A  
HETATM   25  N   UNL     1      -9.630   8.011  71.833  1.00  0.00    -0.169 NA 
HETATM   26  C   UNL     1      -8.907   8.103  72.966  1.00  0.00    -0.248 A  
HETATM   27  N   UNL     1     -11.009   6.381  72.902  1.00  0.00    -0.253 NA 
HETATM   28  C   UNL     1     -10.255   6.524  74.011  1.00  0.00    -0.353 A  
HETATM   29  C   UNL     1      -9.181   7.378  74.099  1.00  0.00    -0.250 A  
ENDBRANCH  23  24
ENDBRANCH  21  23
ENDBRANCH  14  19
BRANCH  17  30
HETATM   30  N   UNL     1     -11.688  13.560  66.361  1.00  0.00    -0.351 NA 
HETATM   31  C   UNL     1     -10.940  15.438  65.120  1.00  0.00    -0.430 C  
HETATM   32  C   UNL     1     -12.758  13.834  65.428  1.00  0.00    -0.472 C  
HETATM   33  C   UNL     1     -10.678  14.617  66.393  1.00  0.00    -0.309 C  
HETATM   34  C   UNL     1     -12.141  14.804  64.426  1.00  0.00    -0.457 C  
BRANCH  33  35
HETATM   35  C   UNL     1     -10.854  15.469  67.666  1.00  0.00    -0.306 C  
HETATM   36  O   UNL     1     -11.945  15.000  68.464  1.00  0.00    -0.492 OA 
HETATM   37  H   UNL     1     -12.054  15.525  69.248  1.00  0.00     0.000 HD 
ENDBRANCH  33  35
ENDBRANCH  17  30
ENDBRANCH  11  13
ENDBRANCH  10  11
ENDBRANCH   7  10
ENDBRANCH   2   3
TORSDOF 9
ENDMDL
MODEL      159
REMARK 921   NORMALIZED FREE ENERGY PREDICTED BY IDOCK:   -5.12 KCAL/MOL
REMARK 922        TOTAL FREE ENERGY PREDICTED BY IDOCK:   -9.34 KCAL/MOL
REMARK 923 INTER-LIGAND FREE ENERGY PREDICTED BY IDOCK:   -7.49 KCAL/MOL
REMARK 924 INTRA-LIGAND FREE ENERGY PREDICTED BY IDOCK:   -1.85 KCAL/MOL
REMARK 927      BINDING AFFINITY PREDICTED BY RF-SCORE:    0.00 PKD
ROOT
HETATM    1  C   UNL     1      -6.446  20.515  68.353  1.00  0.00    -0.289 C  
HETATM    2  O   UNL     1      -5.427  19.530  68.252  1.00  0.00    -0.195 OA 
ENDROOT
BRANCH   2   3
HETATM    3  C   UNL     1      -5.828  18.222  68.189  1.00  0.00    -0.173 A  
HETATM    4  C   UNL     1      -5.796  17.482  69.382  1.00  0.00    -0.226 A  
HETATM    5 CL   UNL     1      -5.173  18.163  70.846  1.00  0.00    -0.276 Cl 
HETATM    6  C   UNL     1      -6.255  16.160  69.421  1.00  0.00    -0.171 A  
HETATM    7  C   UNL     1      -6.770  15.555  68.268  1.00  0.00    -0.122 A  
HETATM    8  C   UNL     1      -6.316  17.606  67.033  1.00  0.00    -0.192 A  
HETATM    9  C   UNL     1      -6.775  16.283  67.072  1.00  0.00    -0.217 A  
BRANCH   7  10
HETATM   10  C   UNL     1      -7.265  14.126  68.303  1.00  0.00    -0.116 C  
BRANCH  10  11
HETATM   11  N   UNL     1      -7.751  13.792  66.976  1.00  0.00    -0.351 NA 
HETATM   12  H   UNL     1      -7.588  14.397  66.171  1.00  0.00     0.000 HD 
BRANCH  11  13
HETATM   13  C   UNL     1      -8.461  12.580  66.869  1.00  0.00    -0.130 A  
HETATM   14  C   UNL     1      -9.643  12.541  66.146  1.00  0.00    -0.230 A  
HETATM   15  C   UNL     1     -10.242  11.306  66.060  1.00  0.00    -0.247 A  
HETATM   16  N   UNL     1      -7.938  11.462  67.431  1.00  0.00    -0.132 NA 
HETATM   17  C   UNL     1      -8.581  10.286  67.283  1.00  0.00    -0.125 A  
HETATM   18  N   UNL     1      -9.745  10.185  66.627  1.00  0.00    -0.183 NA 
BRANCH  14  19
HETATM   19  C   UNL     1     -10.312  13.694  65.503  1.00  0.00    -0.309 C  
HETATM   20  O   UNL     1     -10.569  13.648  64.306  1.00  0.00    -0.394 OA 
HETATM   21  N   UNL     1     -10.648  14.761  66.300  1.00  0.00    -0.297 N  
HETATM   22  H   UNL     1     -10.455  14.709  67.301  1.00  0.00     0.000 HD 
BRANCH  21  23
HETATM   23  C   UNL     1     -11.269  15.964  65.767  1.00  0.00     0.037 C  
BRANCH  23  24
HETATM   24  C   UNL     1     -10.773  17.262  66.381  1.00  0.00    -0.072 A  
HETATM   25  N   UNL     1     -10.583  17.271  67.719  1.00  0.00    -0.372 NA 
HETATM   26  C   UNL     1     -10.100  18.408  68.256  1.00  0.00    -0.383 A  
HETATM   27  N   UNL     1     -10.536  18.322  65.575  1.00  0.00    -0.580 NA 
HETATM   28  C   UNL     1     -10.045  19.428  66.169  1.00  0.00    -0.452 A  
HETATM   29  C   UNL     1      -9.806  19.528  67.520  1.00  0.00    -0.470 A  
ENDBRANCH  23  24
ENDBRANCH  21  23
ENDBRANCH  14  19
BRANCH  17  30
HETATM   30  N   UNL     1      -8.043   9.151  67.822  1.00  0.00    -0.104 NA 
HETATM   31  C   UNL     1      -7.882   6.788  67.952  1.00  0.00    -0.113 C  
HETATM   32  C   UNL     1      -6.623   8.880  67.839  1.00  0.00    -0.061 C  
HETATM   33  C   UNL     1      -8.851   7.970  68.124  1.00  0.00    -0.132 C  
HETATM   34  C   UNL     1      -6.526   7.380  67.582  1.00  0.00    -0.056 C  
BRANCH  33  35
HETATM   35  C   UNL     1      -9.390   8.059  69.566  1.00  0.00    -0.156 C  
HETATM   36  O   UNL     1     -10.356   7.038  69.829  1.00  0.00    -0.200 OA 
HETATM   37  H   UNL     1     -10.688   7.093  70.717  1.00  0.00     0.000 HD 
ENDBRANCH  33  35
ENDBRANCH  17  30
ENDBRANCH  11  13
ENDBRANCH  10  11
ENDBRANCH   7  10
ENDBRANCH   2   3
TORSDOF 9
ENDMDL
MODEL      160
REMARK 921   NORMALIZED FREE ENERGY PREDICTED BY IDOCK:   -5.12 KCAL/MOL
REMARK 922        TOTAL FREE ENERGY PREDICTED BY IDOCK:   -9.34 KCAL/MOL
REMARK 923 INTER-LIGAND FREE ENERGY PREDICTED BY IDOCK:   -7.64 KCAL/MOL
REMARK 924 INTRA-LIGAND FREE ENERGY PREDICTED BY IDOCK:   -1.70 KCAL/MOL
REMARK 927      BINDING AFFINITY PREDICTED BY RF-SCORE:    0.00 PKD
ROOT
HETATM    1  C   UNL     1     -14.361   8.839  72.493  1.00  0.00    -0.255 C  
HETATM    2  O   UNL     1     -13.322   9.701  72.048  1.00  0.00    -0.409 OA 
ENDROOT
BRANCH   2   3
HETATM    3  C   UNL     1     -12.120   9.120  71.740  1.00  0.00    -0.376 A  
HETATM    4  C   UNL     1     -11.227   9.869  70.957  1.00  0.00    -0.364 A  
HETATM    5 CL   UNL     1     -11.669  11.416  70.319  1.00  0.00    -0.412 Cl 
HETATM    6  C   UNL     1      -9.951   9.379  70.655  1.00  0.00    -0.349 A  
HETATM    7  C   UNL     1      -9.536   8.134  71.144  1.00  0.00    -0.192 A  
HETATM    8  C   UNL     1     -11.714   7.865  72.202  1.00  0.00    -0.385 A  
HETATM    9  C   UNL     1     -10.438   7.374  71.899  1.00  0.00    -0.229 A  
BRANCH   7  10
HETATM   10  C   UNL     1      -8.159   7.599  70.819  1.00  0.00    -0.103 C  
BRANCH  10  11
HETATM   11  N   UNL     1      -7.784   8.103  69.510  1.00  0.00    -0.100 NA 
HETATM   12  H   UNL     1      -7.254   8.967  69.393  1.00  0.00     0.000 HD 
BRANCH  11  13
HETATM   13  C   UNL     1      -8.198   7.325  68.410  1.00  0.00    -0.125 A  
HETATM   14  C   UNL     1      -8.632   7.953  67.253  1.00  0.00    -0.128 A  
HETATM   15  C   UNL     1      -8.975   7.114  66.219  1.00  0.00    -0.155 A  
HETATM   16  N   UNL     1      -8.108   5.974  68.491  1.00  0.00    -0.106 NA 
HETATM   17  C   UNL     1      -8.447   5.226  67.423  1.00  0.00    -0.106 A  
HETATM   18  N   UNL     1      -8.906   5.766  66.287  1.00  0.00    -0.135 NA 
BRANCH  14  19
HETATM   19  C   UNL     1      -8.784   9.412  67.055  1.00  0.00    -0.127 C  
HETATM   20  O   UNL     1      -7.799  10.086  66.779  1.00  0.00    -0.108 OA 
HETATM   21  N   UNL     1     -10.048   9.941  67.158  1.00  0.00    -0.203 N  
HETATM   22  H   UNL     1     -10.833   9.312  67.335  1.00  0.00     0.000 HD 
BRANCH  21  23
HETATM   23  C   UNL     1     -10.308  11.366  67.025  1.00  0.00    -0.223 C  
BRANCH  23  24
HETATM   24  C   UNL     1     -11.026  11.765  65.748  1.00  0.00    -0.301 A  
HETATM   25  N   UNL     1     -10.457  11.384  64.582  1.00  0.00    -0.296 NA 
HETATM   26  C   UNL     1     -11.117  11.699  63.452  1.00  0.00    -0.337 A  
HETATM   27  N   UNL     1     -12.185  12.457  65.833  1.00  0.00    -0.632 NA 
HETATM   28  C   UNL     1     -12.805  12.735  64.669  1.00  0.00    -0.274 A  
HETATM   29  C   UNL     1     -12.310  12.377  63.436  1.00  0.00    -0.603 A  
ENDBRANCH  23  24
ENDBRANCH  21  23
ENDBRANCH  14  19
BRANCH  17  30
HETATM   30  N   UNL     1      -8.329   3.865  67.490  1.00  0.00    -0.094 NA 
HETATM   31  C   UNL     1      -7.168   1.912  68.174  1.00  0.00    -0.043 C  
HETATM   32  C   UNL     1      -9.349   3.009  68.053  1.00  0.00    -0.201 C  
HETATM   33  C   UNL     1      -7.048   3.182  67.315  1.00  0.00    -0.057 C  
HETATM   34  C   UNL     1      -8.566   1.925  68.785  1.00  0.00    -0.097 C  
BRANCH  33  35
HETATM   35  C   UNL     1      -6.835   2.844  65.825  1.00  0.00    -0.048 C  
HETATM   36  O   UNL     1      -7.280   3.907  64.978  1.00  0.00    -0.065 OA 
HETATM   37  H   UNL     1      -7.150   3.699  64.061  1.00  0.00     0.000 HD 
ENDBRANCH  33  35
ENDBRANCH  17  30
ENDBRANCH  11  13
ENDBRANCH  10  11
ENDBRANCH   7  10
ENDBRANCH   2   3
TORSDOF 9
ENDMDL
MODEL      161
REMARK 921   NORMALIZED FREE ENERGY PREDICTED BY IDOCK:   -5.06 KCAL/MOL
REMARK 922        TOTAL FREE ENERGY PREDICTED BY IDOCK:   -9.25 KCAL/MOL
REMARK 923 INTER-LIGAND FREE ENERGY PREDICTED BY IDOCK:   -7.82 KCAL/MOL
REMARK 924 INTRA-LIGAND FREE ENERGY PREDICTED BY IDOCK:   -1.42 KCAL/MOL
REMARK 927      BINDING AFFINITY PREDICTED BY RF-SCORE:    0.00 PKD
ROOT
HETATM    1  C   UNL     1      -6.598  10.334  63.173  1.00  0.00    -0.120 C  
HETATM    2  O   UNL     1      -6.207   9.328  64.097  1.00  0.00    -0.081 OA 
ENDROOT
BRANCH   2   3
HETATM    3  C   UNL     1      -7.026   9.121  65.176  1.00  0.00    -0.087 A  
HETATM    4  C   UNL     1      -8.070   8.195  65.022  1.00  0.00    -0.155 A  
HETATM    5 CL   UNL     1      -8.375   7.428  63.500  1.00  0.00     0.088 Cl 
HETATM    6  C   UNL     1      -8.910   7.873  66.094  1.00  0.00    -0.197 A  
HETATM    7  C   UNL     1      -8.712   8.460  67.350  1.00  0.00    -0.136 A  
HETATM    8  C   UNL     1      -6.849   9.728  66.423  1.00  0.00    -0.088 A  
HETATM    9  C   UNL     1      -7.689   9.406  67.496  1.00  0.00    -0.091 A  
BRANCH   7  10
HETATM   10  C   UNL     1      -9.617   8.118  68.512  1.00  0.00    -0.148 C  
BRANCH  10  11
HETATM   11  N   UNL     1     -10.973   8.483  68.142  1.00  0.00    -0.457 NA 
HETATM   12  H   UNL     1     -11.659   7.790  67.841  1.00  0.00     0.000 HD 
BRANCH  11  13
HETATM   13  C   UNL     1     -11.283   9.855  68.223  1.00  0.00    -0.074 A  
HETATM   14  C   UNL     1     -11.576  10.419  69.455  1.00  0.00    -0.272 A  
HETATM   15  C   UNL     1     -11.823  11.772  69.442  1.00  0.00    -0.334 A  
HETATM   16  N   UNL     1     -11.233  10.607  67.095  1.00  0.00    -0.319 NA 
HETATM   17  C   UNL     1     -11.471  11.931  67.173  1.00  0.00    -0.319 A  
HETATM   18  N   UNL     1     -11.793  12.533  68.326  1.00  0.00    -0.333 NA 
BRANCH  14  19
HETATM   19  C   UNL     1     -11.672   9.699  70.744  1.00  0.00    -0.314 C  
HETATM   20  O   UNL     1     -12.774   9.503  71.243  1.00  0.00    -0.318 OA 
HETATM   21  N   UNL     1     -10.504   9.248  71.311  1.00  0.00    -0.325 N  
HETATM   22  H   UNL     1      -9.625   9.396  70.813  1.00  0.00     0.000 HD 
BRANCH  21  23
HETATM   23  C   UNL     1     -10.476   8.567  72.596  1.00  0.00    -0.155 C  
BRANCH  23  24
HETATM   24  C   UNL     1      -9.189   7.816  72.890  1.00  0.00    -0.208 A  
HETATM   25  N   UNL     1      -8.529   8.153  74.020  1.00  0.00    -0.259 NA 
HETATM   26  C   UNL     1      -7.412   7.457  74.302  1.00  0.00    -0.122 A  
HETATM   27  N   UNL     1      -8.777   6.855  72.031  1.00  0.00    -0.125 NA 
HETATM   28  C   UNL     1      -7.658   6.186  72.372  1.00  0.00    -0.099 A  
HETATM   29  C   UNL     1      -6.927   6.449  73.507  1.00  0.00    -0.082 A  
ENDBRANCH  23  24
ENDBRANCH  21  23
ENDBRANCH  14  19
BRANCH  17  30
HETATM   30  N   UNL     1     -11.392  12.698  66.044  1.00  0.00    -0.310 NA 
HETATM   31  C   UNL     1     -12.156  13.288  63.877  1.00  0.00    -0.531 C  
HETATM   32  C   UNL     1     -11.468  14.141  66.062  1.00  0.00    -0.342 C  
HETATM   33  C   UNL     1     -11.561  12.137  64.704  1.00  0.00    -0.328 C  
HETATM   34  C   UNL     1     -12.267  14.489  64.811  1.00  0.00    -0.441 C  
BRANCH  33  35
HETATM   35  C   UNL     1     -10.195  11.684  64.151  1.00  0.00    -0.326 C  
HETATM   36  O   UNL     1      -9.139  11.955  65.077  1.00  0.00    -0.415 OA 
HETATM   37  H   UNL     1      -8.297  11.677  64.737  1.00  0.00     0.000 HD 
ENDBRANCH  33  35
ENDBRANCH  17  30
ENDBRANCH  11  13
ENDBRANCH  10  11
ENDBRANCH   7  10
ENDBRANCH   2   3
TORSDOF 9
ENDMDL
MODEL      162
REMARK 921   NORMALIZED FREE ENERGY PREDICTED BY IDOCK:   -5.04 KCAL/MOL
REMARK 922        TOTAL FREE ENERGY PREDICTED BY IDOCK:   -9.23 KCAL/MOL
REMARK 923 INTER-LIGAND FREE ENERGY PREDICTED BY IDOCK:   -8.21 KCAL/MOL
REMARK 924 INTRA-LIGAND FREE ENERGY PREDICTED BY IDOCK:   -1.02 KCAL/MOL
REMARK 927      BINDING AFFINITY PREDICTED BY RF-SCORE:    0.00 PKD
ROOT
HETATM    1  C   UNL     1      -5.945   5.790  66.051  1.00  0.00    -0.025 C  
HETATM    2  O   UNL     1      -7.148   6.498  65.792  1.00  0.00    -0.059 OA 
ENDROOT
BRANCH   2   3
HETATM    3  C   UNL     1      -7.170   7.829  66.114  1.00  0.00    -0.074 A  
HETATM    4  C   UNL     1      -7.659   8.717  65.143  1.00  0.00    -0.093 A  
HETATM    5 CL   UNL     1      -8.115   8.165  63.567  1.00  0.00    -0.143 Cl 
HETATM    6  C   UNL     1      -7.781  10.084  65.414  1.00  0.00    -0.137 A  
HETATM    7  C   UNL     1      -7.429  10.591  66.672  1.00  0.00    -0.120 A  
HETATM    8  C   UNL     1      -6.792   8.341  67.358  1.00  0.00    -0.070 A  
HETATM    9  C   UNL     1      -6.913   9.710  67.630  1.00  0.00    -0.087 A  
BRANCH   7  10
HETATM   10  C   UNL     1      -7.556  12.068  66.971  1.00  0.00    -0.111 C  
BRANCH  10  11
HETATM   11  N   UNL     1      -8.148  12.204  68.291  1.00  0.00    -0.160 NA 
HETATM   12  H   UNL     1      -7.628  12.585  69.081  1.00  0.00     0.000 HD 
BRANCH  11  13
HETATM   13  C   UNL     1      -9.485  11.777  68.411  1.00  0.00    -0.188 A  
HETATM   14  C   UNL     1     -10.438  12.254  67.526  1.00  0.00    -0.230 A  
HETATM   15  C   UNL     1     -11.706  11.748  67.694  1.00  0.00    -0.250 A  
HETATM   16  N   UNL     1      -9.797  10.860  69.361  1.00  0.00    -0.099 NA 
HETATM   17  C   UNL     1     -11.062  10.402  69.445  1.00  0.00    -0.254 A  
HETATM   18  N   UNL     1     -12.039  10.847  68.644  1.00  0.00    -0.516 NA 
BRANCH  14  19
HETATM   19  C   UNL     1     -10.217  13.260  66.464  1.00  0.00    -0.283 C  
HETATM   20  O   UNL     1     -10.330  12.929  65.289  1.00  0.00    -0.291 OA 
HETATM   21  N   UNL     1      -9.926  14.546  66.854  1.00  0.00    -0.254 N  
HETATM   22  H   UNL     1      -9.904  14.765  67.850  1.00  0.00     0.000 HD 
BRANCH  21  23
HETATM   23  C   UNL     1      -9.649  15.605  65.895  1.00  0.00    -0.350 C  
BRANCH  23  24
HETATM   24  C   UNL     1     -10.079  16.992  66.338  1.00  0.00    -0.317 A  
HETATM   25  N   UNL     1     -10.041  17.249  67.665  1.00  0.00    -0.300 NA 
HETATM   26  C   UNL     1     -10.380  18.492  68.054  1.00  0.00    -0.383 A  
HETATM   27  N   UNL     1     -10.460  17.893  65.404  1.00  0.00    -0.585 NA 
HETATM   28  C   UNL     1     -10.779  19.123  65.853  1.00  0.00    -0.351 A  
HETATM   29  C   UNL     1     -10.757  19.482  67.180  1.00  0.00    -0.599 A  
ENDBRANCH  23  24
ENDBRANCH  21  23
ENDBRANCH  14  19
BRANCH  17  30
HETATM   30  N   UNL     1     -11.375   9.456  70.381  1.00  0.00    -0.254 NA 
HETATM   31  C   UNL     1     -12.895   7.909  71.343  1.00  0.00    -0.305 C  
HETATM   32  C   UNL     1     -10.599   8.253  70.579  1.00  0.00    -0.219 C  
HETATM   33  C   UNL     1     -12.685   9.400  71.028  1.00  0.00    -0.201 C  
HETATM   34  C   UNL     1     -11.641   7.179  70.872  1.00  0.00    -0.350 C  
BRANCH  33  35
HETATM   35  C   UNL     1     -12.672  10.256  72.311  1.00  0.00    -0.012 C  
HETATM   36  O   UNL     1     -13.592  11.348  72.221  1.00  0.00    -0.537 OA 
HETATM   37  H   UNL     1     -13.584  11.875  73.011  1.00  0.00     0.000 HD 
ENDBRANCH  33  35
ENDBRANCH  17  30
ENDBRANCH  11  13
ENDBRANCH  10  11
ENDBRANCH   7  10
ENDBRANCH   2   3
TORSDOF 9
ENDMDL
MODEL      163
REMARK 921   NORMALIZED FREE ENERGY PREDICTED BY IDOCK:   -5.03 KCAL/MOL
REMARK 922        TOTAL FREE ENERGY PREDICTED BY IDOCK:   -9.21 KCAL/MOL
REMARK 923 INTER-LIGAND FREE ENERGY PREDICTED BY IDOCK:   -8.20 KCAL/MOL
REMARK 924 INTRA-LIGAND FREE ENERGY PREDICTED BY IDOCK:   -1.02 KCAL/MOL
REMARK 927      BINDING AFFINITY PREDICTED BY RF-SCORE:    0.00 PKD
ROOT
HETATM    1  C   UNL     1     -12.699   7.941  71.404  1.00  0.00    -0.292 C  
HETATM    2  O   UNL     1     -11.667   8.914  71.341  1.00  0.00    -0.277 OA 
ENDROOT
BRANCH   2   3
HETATM    3  C   UNL     1     -11.628   9.711  70.228  1.00  0.00    -0.198 A  
HETATM    4  C   UNL     1     -12.152  11.008  70.347  1.00  0.00    -0.373 A  
HETATM    5 CL   UNL     1     -12.911  11.540  71.809  1.00  0.00    -0.544 Cl 
HETATM    6  C   UNL     1     -12.089  11.910  69.280  1.00  0.00    -0.270 A  
HETATM    7  C   UNL     1     -11.485  11.538  68.072  1.00  0.00    -0.381 A  
HETATM    8  C   UNL     1     -11.052   9.332  69.012  1.00  0.00     0.023 A  
HETATM    9  C   UNL     1     -10.990  10.234  67.942  1.00  0.00    -0.350 A  
BRANCH   7  10
HETATM   10  C   UNL     1     -11.416  12.508  66.913  1.00  0.00    -0.353 C  
BRANCH  10  11
HETATM   11  N   UNL     1     -10.185  12.247  66.189  1.00  0.00    -0.234 NA 
HETATM   12  H   UNL     1     -10.180  11.817  65.264  1.00  0.00     0.000 HD 
BRANCH  11  13
HETATM   13  C   UNL     1      -8.995  12.624  66.843  1.00  0.00    -0.213 A  
HETATM   14  C   UNL     1      -8.779  13.957  67.154  1.00  0.00    -0.233 A  
HETATM   15  C   UNL     1      -7.612  14.224  67.831  1.00  0.00    -0.153 A  
HETATM   16  N   UNL     1      -8.112  11.660  67.205  1.00  0.00    -0.159 NA 
HETATM   17  C   UNL     1      -6.999  12.006  67.883  1.00  0.00    -0.095 A  
HETATM   18  N   UNL     1      -6.712  13.279  68.185  1.00  0.00    -0.099 NA 
BRANCH  14  19
HETATM   19  C   UNL     1      -9.662  15.091  66.801  1.00  0.00    -0.241 C  
HETATM   20  O   UNL     1      -9.720  15.467  65.636  1.00  0.00    -0.336 OA 
HETATM   21  N   UNL     1     -10.410  15.653  67.806  1.00  0.00    -0.260 N  
HETATM   22  H   UNL     1     -10.356  15.254  68.744  1.00  0.00     0.000 HD 
BRANCH  21  23
HETATM   23  C   UNL     1     -11.279  16.799  67.581  1.00  0.00     0.026 C  
BRANCH  23  24
HETATM   24  C   UNL     1     -10.557  18.129  67.456  1.00  0.00    -0.401 A  
HETATM   25  N   UNL     1      -9.856  18.548  68.533  1.00  0.00    -0.364 NA 
HETATM   26  C   UNL     1      -9.180  19.706  68.406  1.00  0.00    -0.339 A  
HETATM   27  N   UNL     1     -10.635  18.813  66.291  1.00  0.00    -0.412 NA 
HETATM   28  C   UNL     1      -9.929  19.959  66.221  1.00  0.00    -0.486 A  
HETATM   29  C   UNL     1      -9.177  20.459  67.258  1.00  0.00    -0.525 A  
ENDBRANCH  23  24
ENDBRANCH  21  23
ENDBRANCH  14  19
BRANCH  17  30
HETATM   30  N   UNL     1      -6.121  11.036  68.276  1.00  0.00    -0.049 NA 
HETATM   31  C   UNL     1      -5.641   8.995  69.387  1.00  0.00    -0.035 C  
HETATM   32  C   UNL     1      -5.290  10.299  67.350  1.00  0.00    -0.041 C  
HETATM   33  C   UNL     1      -6.177  10.421  69.601  1.00  0.00    -0.058 C  
HETATM   34  C   UNL     1      -5.268   8.882  67.913  1.00  0.00    -0.035 C  
BRANCH  33  35
HETATM   35  C   UNL     1      -5.296  11.218  70.585  1.00  0.00    -0.124 C  
HETATM   36  O   UNL     1      -5.609  10.900  71.944  1.00  0.00    -0.316 OA 
HETATM   37  H   UNL     1      -5.067  11.391  72.550  1.00  0.00     0.000 HD 
ENDBRANCH  33  35
ENDBRANCH  17  30
ENDBRANCH  11  13
ENDBRANCH  10  11
ENDBRANCH   7  10
ENDBRANCH   2   3
TORSDOF 9
ENDMDL
MODEL      164
REMARK 921   NORMALIZED FREE ENERGY PREDICTED BY IDOCK:   -5.01 KCAL/MOL
REMARK 922        TOTAL FREE ENERGY PREDICTED BY IDOCK:   -9.17 KCAL/MOL
REMARK 923 INTER-LIGAND FREE ENERGY PREDICTED BY IDOCK:   -7.76 KCAL/MOL
REMARK 924 INTRA-LIGAND FREE ENERGY PREDICTED BY IDOCK:   -1.41 KCAL/MOL
REMARK 927      BINDING AFFINITY PREDICTED BY RF-SCORE:    0.00 PKD
ROOT
HETATM    1  C   UNL     1     -10.371   3.853  74.295  1.00  0.00    -0.206 C  
HETATM    2  O   UNL     1     -10.638   3.988  72.906  1.00  0.00    -0.169 OA 
ENDROOT
BRANCH   2   3
HETATM    3  C   UNL     1     -10.585   5.253  72.381  1.00  0.00    -0.225 A  
HETATM    4  C   UNL     1     -10.284   5.369  71.015  1.00  0.00    -0.229 A  
HETATM    5 CL   UNL     1      -9.892   3.980  70.059  1.00  0.00    -0.262 Cl 
HETATM    6  C   UNL     1     -10.278   6.618  70.384  1.00  0.00    -0.215 A  
HETATM    7  C   UNL     1     -10.589   7.778  71.104  1.00  0.00    -0.235 A  
HETATM    8  C   UNL     1     -10.866   6.415  73.105  1.00  0.00    -0.282 A  
HETATM    9  C   UNL     1     -10.859   7.665  72.474  1.00  0.00    -0.367 A  
BRANCH   7  10
HETATM   10  C   UNL     1     -10.582   9.131  70.429  1.00  0.00    -0.230 C  
BRANCH  10  11
HETATM   11  N   UNL     1     -11.113   8.960  69.088  1.00  0.00    -0.429 NA 
HETATM   12  H   UNL     1     -12.025   8.537  68.916  1.00  0.00     0.000 HD 
BRANCH  11  13
HETATM   13  C   UNL     1     -10.289   9.414  68.038  1.00  0.00    -0.220 A  
HETATM   14  C   UNL     1     -10.432  10.709  67.568  1.00  0.00    -0.272 A  
HETATM   15  C   UNL     1      -9.556  11.077  66.573  1.00  0.00    -0.195 A  
HETATM   16  N   UNL     1      -9.333   8.585  67.550  1.00  0.00    -0.142 NA 
HETATM   17  C   UNL     1      -8.503   9.031  66.586  1.00  0.00    -0.122 A  
HETATM   18  N   UNL     1      -8.608  10.260  66.063  1.00  0.00    -0.141 NA 
BRANCH  14  19
HETATM   19  C   UNL     1     -11.443  11.694  68.014  1.00  0.00    -0.315 C  
HETATM   20  O   UNL     1     -12.510  11.297  68.468  1.00  0.00    -0.434 OA 
HETATM   21  N   UNL     1     -11.117  13.026  67.927  1.00  0.00    -0.245 N  
HETATM   22  H   UNL     1     -10.188  13.285  67.592  1.00  0.00     0.000 HD 
BRANCH  21  23
HETATM   23  C   UNL     1     -12.049  14.081  68.297  1.00  0.00    -0.277 C  
BRANCH  23  24
HETATM   24  C   UNL     1     -12.007  14.482  69.760  1.00  0.00    -0.332 A  
HETATM   25  N   UNL     1     -11.535  15.717  70.042  1.00  0.00    -0.313 NA 
HETATM   26  C   UNL     1     -11.539  16.089  71.336  1.00  0.00    -0.455 A  
HETATM   27  N   UNL     1     -12.445  13.608  70.695  1.00  0.00    -0.354 NA 
HETATM   28  C   UNL     1     -12.434  14.041  71.972  1.00  0.00    -0.160 A  
HETATM   29  C   UNL     1     -11.986  15.284  72.354  1.00  0.00    -0.514 A  
ENDBRANCH  23  24
ENDBRANCH  21  23
ENDBRANCH  14  19
BRANCH  17  30
HETATM   30  N   UNL     1      -7.519   8.210  66.112  1.00  0.00    -0.077 NA 
HETATM   31  C   UNL     1      -6.786   6.114  65.277  1.00  0.00    -0.047 C  
HETATM   32  C   UNL     1      -6.701   8.536  64.965  1.00  0.00    -0.064 C  
HETATM   33  C   UNL     1      -7.422   6.802  66.496  1.00  0.00    -0.078 C  
HETATM   34  C   UNL     1      -6.517   7.204  64.245  1.00  0.00    -0.040 C  
BRANCH  33  35
HETATM   35  C   UNL     1      -6.540   6.662  67.753  1.00  0.00    -0.058 C  
HETATM   36  O   UNL     1      -6.938   5.543  68.550  1.00  0.00    -0.060 OA 
HETATM   37  H   UNL     1      -6.395   5.457  69.325  1.00  0.00     0.000 HD 
ENDBRANCH  33  35
ENDBRANCH  17  30
ENDBRANCH  11  13
ENDBRANCH  10  11
ENDBRANCH   7  10
ENDBRANCH   2   3
TORSDOF 9
ENDMDL
MODEL      165
REMARK 921   NORMALIZED FREE ENERGY PREDICTED BY IDOCK:   -4.99 KCAL/MOL
REMARK 922        TOTAL FREE ENERGY PREDICTED BY IDOCK:   -9.15 KCAL/MOL
REMARK 923 INTER-LIGAND FREE ENERGY PREDICTED BY IDOCK:   -7.62 KCAL/MOL
REMARK 924 INTRA-LIGAND FREE ENERGY PREDICTED BY IDOCK:   -1.53 KCAL/MOL
REMARK 927      BINDING AFFINITY PREDICTED BY RF-SCORE:    0.00 PKD
ROOT
HETATM    1  C   UNL     1     -12.021  15.666  64.205  1.00  0.00    -0.115 C  
HETATM    2  O   UNL     1     -12.881  14.575  64.503  1.00  0.00    -0.613 OA 
ENDROOT
BRANCH   2   3
HETATM    3  C   UNL     1     -12.460  13.693  65.464  1.00  0.00    -0.503 A  
HETATM    4  C   UNL     1     -12.041  12.425  65.032  1.00  0.00    -0.407 A  
HETATM    5 CL   UNL     1     -12.155  11.958  63.369  1.00  0.00    -0.592 Cl 
HETATM    6  C   UNL     1     -11.531  11.489  65.938  1.00  0.00    -0.086 A  
HETATM    7  C   UNL     1     -11.414  11.809  67.297  1.00  0.00    -0.373 A  
HETATM    8  C   UNL     1     -12.369  14.000  66.824  1.00  0.00    -0.368 A  
HETATM    9  C   UNL     1     -11.859  13.064  67.732  1.00  0.00    -0.395 A  
BRANCH   7  10
HETATM   10  C   UNL     1     -10.865  10.801  68.282  1.00  0.00    -0.229 C  
BRANCH  10  11
HETATM   11  N   UNL     1      -9.416  10.825  68.181  1.00  0.00    -0.153 NA 
HETATM   12  H   UNL     1      -8.935  11.253  67.390  1.00  0.00     0.000 HD 
BRANCH  11  13
HETATM   13  C   UNL     1      -8.716  10.220  69.243  1.00  0.00    -0.174 A  
HETATM   14  C   UNL     1      -7.434  10.648  69.550  1.00  0.00    -0.132 A  
HETATM   15  C   UNL     1      -6.847  10.030  70.629  1.00  0.00    -0.047 A  
HETATM   16  N   UNL     1      -9.339   9.267  69.980  1.00  0.00    -0.192 NA 
HETATM   17  C   UNL     1      -8.698   8.724  71.034  1.00  0.00    -0.202 A  
HETATM   18  N   UNL     1      -7.446   9.068  71.365  1.00  0.00    -0.277 NA 
BRANCH  14  19
HETATM   19  C   UNL     1      -6.654  11.666  68.812  1.00  0.00    -0.072 C  
HETATM   20  O   UNL     1      -5.730  11.309  68.090  1.00  0.00    -0.046 OA 
HETATM   21  N   UNL     1      -7.032  12.981  68.948  1.00  0.00    -0.117 N  
HETATM   22  H   UNL     1      -7.847  13.202  69.521  1.00  0.00     0.000 HD 
BRANCH  21  23
HETATM   23  C   UNL     1      -6.310  14.068  68.303  1.00  0.00    -0.114 C  
BRANCH  23  24
HETATM   24  C   UNL     1      -6.864  15.453  68.585  1.00  0.00    -0.106 A  
HETATM   25  N   UNL     1      -6.006  16.361  69.100  1.00  0.00    -0.140 NA 
HETATM   26  C   UNL     1      -6.486  17.602  69.308  1.00  0.00    -0.240 A  
HETATM   27  N   UNL     1      -8.161  15.713  68.301  1.00  0.00    -0.132 NA 
HETATM   28  C   UNL     1      -8.581  16.975  68.521  1.00  0.00    -0.257 A  
HETATM   29  C   UNL     1      -7.779  17.970  69.029  1.00  0.00    -0.121 A  
ENDBRANCH  23  24
ENDBRANCH  21  23
ENDBRANCH  14  19
BRANCH  17  30
HETATM   30  N   UNL     1      -9.332   7.785  71.798  1.00  0.00    -0.137 NA 
HETATM   31  C   UNL     1      -9.284   6.003  73.363  1.00  0.00    -0.131 C  
HETATM   32  C   UNL     1     -10.362   8.111  72.759  1.00  0.00    -0.313 C  
HETATM   33  C   UNL     1      -8.810   6.429  71.964  1.00  0.00    -0.134 C  
HETATM   34  C   UNL     1     -10.102   7.161  73.923  1.00  0.00    -0.359 C  
BRANCH  33  35
HETATM   35  C   UNL     1      -9.382   5.511  70.865  1.00  0.00    -0.156 C  
HETATM   36  O   UNL     1     -10.122   4.422  71.424  1.00  0.00    -0.186 OA 
HETATM   37  H   UNL     1     -10.474   3.856  70.748  1.00  0.00     0.000 HD 
ENDBRANCH  33  35
ENDBRANCH  17  30
ENDBRANCH  11  13
ENDBRANCH  10  11
ENDBRANCH   7  10
ENDBRANCH   2   3
TORSDOF 9
ENDMDL
MODEL      166
REMARK 921   NORMALIZED FREE ENERGY PREDICTED BY IDOCK:   -4.99 KCAL/MOL
REMARK 922        TOTAL FREE ENERGY PREDICTED BY IDOCK:   -9.14 KCAL/MOL
REMARK 923 INTER-LIGAND FREE ENERGY PREDICTED BY IDOCK:   -7.77 KCAL/MOL
REMARK 924 INTRA-LIGAND FREE ENERGY PREDICTED BY IDOCK:   -1.37 KCAL/MOL
REMARK 927      BINDING AFFINITY PREDICTED BY RF-SCORE:    0.00 PKD
ROOT
HETATM    1  C   UNL     1      -6.063  21.225  67.090  1.00  0.00    -0.343 C  
HETATM    2  O   UNL     1      -7.182  20.666  67.764  1.00  0.00    -0.301 OA 
ENDROOT
BRANCH   2   3
HETATM    3  C   UNL     1      -7.276  19.299  67.788  1.00  0.00    -0.245 A  
HETATM    4  C   UNL     1      -6.715  18.637  68.891  1.00  0.00    -0.272 A  
HETATM    5 CL   UNL     1      -5.848  19.501  70.115  1.00  0.00    -0.286 Cl 
HETATM    6  C   UNL     1      -6.828  17.249  69.030  1.00  0.00    -0.245 A  
HETATM    7  C   UNL     1      -7.518  16.494  68.073  1.00  0.00    -0.162 A  
HETATM    8  C   UNL     1      -7.939  18.541  66.819  1.00  0.00    -0.265 A  
HETATM    9  C   UNL     1      -8.052  17.152  66.957  1.00  0.00    -0.228 A  
BRANCH   7  10
HETATM   10  C   UNL     1      -7.642  14.994  68.215  1.00  0.00    -0.111 C  
BRANCH  10  11
HETATM   11  N   UNL     1      -8.860  14.583  67.541  1.00  0.00    -0.178 NA 
HETATM   12  H   UNL     1      -9.493  15.255  67.107  1.00  0.00     0.000 HD 
BRANCH  11  13
HETATM   13  C   UNL     1      -9.114  13.197  67.522  1.00  0.00    -0.205 A  
HETATM   14  C   UNL     1     -10.348  12.722  67.939  1.00  0.00    -0.228 A  
HETATM   15  C   UNL     1     -10.519  11.361  67.844  1.00  0.00    -0.184 A  
HETATM   16  N   UNL     1      -8.160  12.362  67.041  1.00  0.00    -0.157 NA 
HETATM   17  C   UNL     1      -8.417  11.041  66.966  1.00  0.00    -0.141 A  
HETATM   18  N   UNL     1      -9.575  10.512  67.383  1.00  0.00    -0.157 NA 
BRANCH  14  19
HETATM   19  C   UNL     1     -11.455  13.534  68.492  1.00  0.00    -0.310 C  
HETATM   20  O   UNL     1     -12.606  13.122  68.400  1.00  0.00     0.255 OA 
HETATM   21  N   UNL     1     -11.130  14.711  69.121  1.00  0.00    -0.257 N  
HETATM   22  H   UNL     1     -10.145  14.966  69.211  1.00  0.00     0.000 HD 
BRANCH  21  23
HETATM   23  C   UNL     1     -12.139  15.608  69.663  1.00  0.00    -0.308 C  
BRANCH  23  24
HETATM   24  C   UNL     1     -12.402  15.445  71.149  1.00  0.00    -0.385 A  
HETATM   25  N   UNL     1     -11.808  16.334  71.976  1.00  0.00    -0.524 NA 
HETATM   26  C   UNL     1     -12.077  16.216  73.290  1.00  0.00    -0.501 A  
HETATM   27  N   UNL     1     -13.213  14.446  71.568  1.00  0.00    -0.330 NA 
HETATM   28  C   UNL     1     -13.452  14.384  72.893  1.00  0.00    -0.416 A  
HETATM   29  C   UNL     1     -12.904  15.252  73.810  1.00  0.00    -0.618 A  
ENDBRANCH  23  24
ENDBRANCH  21  23
ENDBRANCH  14  19
BRANCH  17  30
HETATM   30  N   UNL     1      -7.470  10.199  66.454  1.00  0.00    -0.104 NA 
HETATM   31  C   UNL     1      -5.700   9.737  64.943  1.00  0.00    -0.079 C  
HETATM   32  C   UNL     1      -6.451   9.569  67.263  1.00  0.00    -0.070 C  
HETATM   33  C   UNL     1      -7.187  10.118  65.021  1.00  0.00    -0.139 C  
HETATM   34  C   UNL     1      -5.209   9.584  66.379  1.00  0.00    -0.043 C  
BRANCH  33  35
HETATM   35  C   UNL     1      -8.085   9.046  64.370  1.00  0.00    -0.146 C  
HETATM   36  O   UNL     1      -7.493   7.747  64.454  1.00  0.00    -0.085 OA 
HETATM   37  H   UNL     1      -8.046   7.086  64.053  1.00  0.00     0.000 HD 
ENDBRANCH  33  35
ENDBRANCH  17  30
ENDBRANCH  11  13
ENDBRANCH  10  11
ENDBRANCH   7  10
ENDBRANCH   2   3
TORSDOF 9
ENDMDL
MODEL      167
REMARK 921   NORMALIZED FREE ENERGY PREDICTED BY IDOCK:   -4.98 KCAL/MOL
REMARK 922        TOTAL FREE ENERGY PREDICTED BY IDOCK:   -9.13 KCAL/MOL
REMARK 923 INTER-LIGAND FREE ENERGY PREDICTED BY IDOCK:   -7.73 KCAL/MOL
REMARK 924 INTRA-LIGAND FREE ENERGY PREDICTED BY IDOCK:   -1.41 KCAL/MOL
REMARK 927      BINDING AFFINITY PREDICTED BY RF-SCORE:    0.00 PKD
ROOT
HETATM    1  C   UNL     1     -11.758   7.178  72.936  1.00  0.00     0.027 C  
HETATM    2  O   UNL     1     -12.369   7.456  71.684  1.00  0.00    -0.310 OA 
ENDROOT
BRANCH   2   3
HETATM    3  C   UNL     1     -11.590   8.055  70.730  1.00  0.00    -0.242 A  
HETATM    4  C   UNL     1     -10.870   7.212  69.868  1.00  0.00    -0.254 A  
HETATM    5 CL   UNL     1     -10.883   5.493  70.072  1.00  0.00    -0.364 Cl 
HETATM    6  C   UNL     1     -10.104   7.738  68.821  1.00  0.00    -0.205 A  
HETATM    7  C   UNL     1     -10.055   9.121  68.605  1.00  0.00    -0.212 A  
HETATM    8  C   UNL     1     -11.515   9.436  70.530  1.00  0.00    -0.317 A  
HETATM    9  C   UNL     1     -10.749   9.963  69.483  1.00  0.00    -0.265 A  
BRANCH   7  10
HETATM   10  C   UNL     1      -9.228   9.696  67.477  1.00  0.00    -0.133 C  
BRANCH  10  11
HETATM   11  N   UNL     1      -9.914   9.405  66.231  1.00  0.00    -0.280 NA 
HETATM   12  H   UNL     1     -10.379   8.513  66.063  1.00  0.00     0.000 HD 
BRANCH  11  13
HETATM   13  C   UNL     1      -9.897  10.432  65.266  1.00  0.00    -0.297 A  
HETATM   14  C   UNL     1      -9.371  10.181  64.009  1.00  0.00    -0.339 A  
HETATM   15  C   UNL     1      -9.437  11.229  63.120  1.00  0.00    -0.353 A  
HETATM   16  N   UNL     1     -10.449  11.632  65.575  1.00  0.00    -0.264 NA 
HETATM   17  C   UNL     1     -10.489  12.600  64.639  1.00  0.00    -0.337 A  
HETATM   18  N   UNL     1      -9.969  12.435  63.416  1.00  0.00    -0.361 NA 
BRANCH  14  19
HETATM   19  C   UNL     1      -8.734   8.921  63.564  1.00  0.00    -0.015 C  
HETATM   20  O   UNL     1      -8.617   8.697  62.365  1.00  0.00    -0.209 OA 
HETATM   21  N   UNL     1      -8.267   8.067  64.534  1.00  0.00    -0.282 N  
HETATM   22  H   UNL     1      -8.346   8.342  65.513  1.00  0.00     0.000 HD 
BRANCH  21  23
HETATM   23  C   UNL     1      -7.662   6.782  64.212  1.00  0.00    -0.109 C  
BRANCH  23  24
HETATM   24  C   UNL     1      -8.418   5.575  64.737  1.00  0.00    -0.125 A  
HETATM   25  N   UNL     1      -8.546   4.523  63.899  1.00  0.00    -0.121 NA 
HETATM   26  C   UNL     1      -9.178   3.435  64.380  1.00  0.00    -0.133 A  
HETATM   27  N   UNL     1      -8.909   5.602  65.998  1.00  0.00    -0.143 NA 
HETATM   28  C   UNL     1      -9.523   4.482  66.426  1.00  0.00    -0.172 A  
HETATM   29  C   UNL     1      -9.689   3.357  65.652  1.00  0.00    -0.019 A  
ENDBRANCH  23  24
ENDBRANCH  21  23
ENDBRANCH  14  19
BRANCH  17  30
HETATM   30  N   UNL     1     -11.072  13.800  64.936  1.00  0.00    -0.344 NA 
HETATM   31  C   UNL     1     -11.152  16.166  64.777  1.00  0.00    -0.345 C  
HETATM   32  C   UNL     1     -12.455  14.103  64.643  1.00  0.00    -0.350 C  
HETATM   33  C   UNL     1     -10.288  14.991  65.262  1.00  0.00    -0.395 C  
HETATM   34  C   UNL     1     -12.435  15.565  64.212  1.00  0.00     0.113 C  
BRANCH  33  35
HETATM   35  C   UNL     1     -10.043  15.055  66.783  1.00  0.00    -0.254 C  
HETATM   36  O   UNL     1     -11.107  15.731  67.458  1.00  0.00    -0.317 OA 
HETATM   37  H   UNL     1     -10.957  15.771  68.395  1.00  0.00     0.000 HD 
ENDBRANCH  33  35
ENDBRANCH  17  30
ENDBRANCH  11  13
ENDBRANCH  10  11
ENDBRANCH   7  10
ENDBRANCH   2   3
TORSDOF 9
ENDMDL
MODEL      168
REMARK 921   NORMALIZED FREE ENERGY PREDICTED BY IDOCK:   -4.95 KCAL/MOL
REMARK 922        TOTAL FREE ENERGY PREDICTED BY IDOCK:   -9.08 KCAL/MOL
REMARK 923 INTER-LIGAND FREE ENERGY PREDICTED BY IDOCK:   -8.22 KCAL/MOL
REMARK 924 INTRA-LIGAND FREE ENERGY PREDICTED BY IDOCK:   -0.86 KCAL/MOL
REMARK 927      BINDING AFFINITY PREDICTED BY RF-SCORE:    0.00 PKD
ROOT
HETATM    1  C   UNL     1     -10.695   3.722  74.451  1.00  0.00    -0.114 C  
HETATM    2  O   UNL     1     -10.445   3.612  73.057  1.00  0.00    -0.159 OA 
ENDROOT
BRANCH   2   3
HETATM    3  C   UNL     1     -10.444   4.773  72.330  1.00  0.00    -0.195 A  
HETATM    4  C   UNL     1      -9.710   4.781  71.134  1.00  0.00    -0.181 A  
HETATM    5 CL   UNL     1      -8.759   3.417  70.652  1.00  0.00    -0.116 Cl 
HETATM    6  C   UNL     1      -9.712   5.902  70.296  1.00  0.00    -0.212 A  
HETATM    7  C   UNL     1     -10.463   7.036  70.632  1.00  0.00    -0.229 A  
HETATM    8  C   UNL     1     -11.169   5.916  72.677  1.00  0.00    -0.335 A  
HETATM    9  C   UNL     1     -11.171   7.039  71.840  1.00  0.00    -0.282 A  
BRANCH   7  10
HETATM   10  C   UNL     1     -10.467   8.252  69.732  1.00  0.00    -0.220 C  
BRANCH  10  11
HETATM   11  N   UNL     1     -11.081   7.869  68.473  1.00  0.00    -0.357 NA 
HETATM   12  H   UNL     1     -12.088   7.920  68.323  1.00  0.00     0.000 HD 
BRANCH  11  13
HETATM   13  C   UNL     1     -10.197   7.424  67.470  1.00  0.00    -0.224 A  
HETATM   14  C   UNL     1      -9.315   8.320  66.887  1.00  0.00    -0.222 A  
HETATM   15  C   UNL     1      -8.463   7.786  65.950  1.00  0.00    -0.142 A  
HETATM   16  N   UNL     1     -10.193   6.109  67.137  1.00  0.00    -0.173 NA 
HETATM   17  C   UNL     1      -9.311   5.664  66.220  1.00  0.00    -0.157 A  
HETATM   18  N   UNL     1      -8.454   6.482  65.594  1.00  0.00    -0.147 NA 
BRANCH  14  19
HETATM   19  C   UNL     1      -9.238   9.773  67.161  1.00  0.00    -0.138 C  
HETATM   20  O   UNL     1      -8.142  10.299  67.310  1.00  0.00    -0.118 OA 
HETATM   21  N   UNL     1     -10.418  10.477  67.200  1.00  0.00    -0.235 N  
HETATM   22  H   UNL     1     -11.292   9.985  67.010  1.00  0.00     0.000 HD 
BRANCH  21  23
HETATM   23  C   UNL     1     -10.464  11.900  67.502  1.00  0.00    -0.209 C  
BRANCH  23  24
HETATM   24  C   UNL     1     -11.048  12.765  66.400  1.00  0.00    -0.285 A  
HETATM   25  N   UNL     1     -12.379  12.995  66.444  1.00  0.00    -0.430 NA 
HETATM   26  C   UNL     1     -12.890  13.798  65.492  1.00  0.00    -0.419 A  
HETATM   27  N   UNL     1     -10.225  13.267  65.451  1.00  0.00    -0.303 NA 
HETATM   28  C   UNL     1     -10.792  14.072  64.530  1.00  0.00    -0.347 A  
HETATM   29  C   UNL     1     -12.133  14.374  64.502  1.00  0.00    -0.498 A  
ENDBRANCH  23  24
ENDBRANCH  21  23
ENDBRANCH  14  19
BRANCH  17  30
HETATM   30  N   UNL     1      -9.282   4.334  65.903  1.00  0.00    -0.136 NA 
HETATM   31  C   UNL     1      -8.424   2.519  64.640  1.00  0.00    -0.089 C  
HETATM   32  C   UNL     1      -9.032   3.294  66.876  1.00  0.00    -0.158 C  
HETATM   33  C   UNL     1      -9.164   3.861  64.524  1.00  0.00    -0.147 C  
HETATM   34  C   UNL     1      -8.181   2.276  66.125  1.00  0.00    -0.089 C  
BRANCH  33  35
HETATM   35  C   UNL     1     -10.568   3.687  63.910  1.00  0.00    -0.277 C  
HETATM   36  O   UNL     1     -11.537   4.498  64.580  1.00  0.00    -0.877 OA 
HETATM   37  H   UNL     1     -12.402   4.391  64.203  1.00  0.00     0.000 HD 
ENDBRANCH  33  35
ENDBRANCH  17  30
ENDBRANCH  11  13
ENDBRANCH  10  11
ENDBRANCH   7  10
ENDBRANCH   2   3
TORSDOF 9
ENDMDL
MODEL      169
REMARK 921   NORMALIZED FREE ENERGY PREDICTED BY IDOCK:   -4.94 KCAL/MOL
REMARK 922        TOTAL FREE ENERGY PREDICTED BY IDOCK:   -9.08 KCAL/MOL
REMARK 923 INTER-LIGAND FREE ENERGY PREDICTED BY IDOCK:   -7.11 KCAL/MOL
REMARK 924 INTRA-LIGAND FREE ENERGY PREDICTED BY IDOCK:   -1.96 KCAL/MOL
REMARK 927      BINDING AFFINITY PREDICTED BY RF-SCORE:    0.00 PKD
ROOT
HETATM    1  C   UNL     1      -9.295   7.136  66.769  1.00  0.00    -0.161 C  
HETATM    2  O   UNL     1     -10.463   7.882  67.083  1.00  0.00    -0.297 OA 
ENDROOT
BRANCH   2   3
HETATM    3  C   UNL     1     -10.304   9.225  67.302  1.00  0.00    -0.265 A  
HETATM    4  C   UNL     1     -10.502   9.689  68.612  1.00  0.00    -0.210 A  
HETATM    5 CL   UNL     1     -11.029   8.628  69.873  1.00  0.00    -0.210 Cl 
HETATM    6  C   UNL     1     -10.292  11.034  68.937  1.00  0.00    -0.223 A  
HETATM    7  C   UNL     1      -9.864  11.941  67.960  1.00  0.00    -0.190 A  
HETATM    8  C   UNL     1      -9.905  10.138  66.322  1.00  0.00    -0.288 A  
HETATM    9  C   UNL     1      -9.696  11.484  66.647  1.00  0.00    -0.221 A  
BRANCH   7  10
HETATM   10  C   UNL     1      -9.638  13.396  68.304  1.00  0.00    -0.220 C  
BRANCH  10  11
HETATM   11  N   UNL     1      -8.275  13.733  67.935  1.00  0.00    -0.151 NA 
HETATM   12  H   UNL     1      -7.678  13.087  67.418  1.00  0.00     0.000 HD 
BRANCH  11  13
HETATM   13  C   UNL     1      -7.827  15.008  68.334  1.00  0.00    -0.125 A  
HETATM   14  C   UNL     1      -6.843  15.114  69.304  1.00  0.00    -0.153 A  
HETATM   15  C   UNL     1      -6.439  16.396  69.598  1.00  0.00    -0.201 A  
HETATM   16  N   UNL     1      -8.333  16.104  67.716  1.00  0.00    -0.153 NA 
HETATM   17  C   UNL     1      -7.868  17.324  68.052  1.00  0.00    -0.205 A  
HETATM   18  N   UNL     1      -6.942  17.500  69.004  1.00  0.00    -0.244 NA 
BRANCH  14  19
HETATM   19  C   UNL     1      -6.229  13.994  70.052  1.00  0.00    -0.142 C  
HETATM   20  O   UNL     1      -6.123  14.072  71.271  1.00  0.00    -0.198 OA 
HETATM   21  N   UNL     1      -5.833  12.891  69.336  1.00  0.00    -0.089 N  
HETATM   22  H   UNL     1      -6.002  12.869  68.330  1.00  0.00     0.000 HD 
BRANCH  21  23
HETATM   23  C   UNL     1      -5.179  11.751  69.962  1.00  0.00    -0.081 C  
BRANCH  23  24
HETATM   24  C   UNL     1      -6.023  10.490  70.025  1.00  0.00    -0.080 A  
HETATM   25  N   UNL     1      -6.242   9.843  68.859  1.00  0.00    -0.041 NA 
HETATM   26  C   UNL     1      -6.953   8.701  68.922  1.00  0.00    -0.062 A  
HETATM   27  N   UNL     1      -6.497  10.075  71.222  1.00  0.00    -0.321 NA 
HETATM   28  C   UNL     1      -7.194   8.921  71.223  1.00  0.00    -0.097 A  
HETATM   29  C   UNL     1      -7.455   8.185  70.090  1.00  0.00    -0.061 A  
ENDBRANCH  23  24
ENDBRANCH  21  23
ENDBRANCH  14  19
BRANCH  17  30
HETATM   30  N   UNL     1      -8.353  18.429  67.411  1.00  0.00    -0.250 NA 
HETATM   31  C   UNL     1      -9.495  20.508  67.432  1.00  0.00    -0.551 C  
HETATM   32  C   UNL     1      -7.524  19.313  66.620  1.00  0.00    -0.233 C  
HETATM   33  C   UNL     1      -9.657  19.009  67.729  1.00  0.00    -0.311 C  
HETATM   34  C   UNL     1      -8.074  20.704  66.915  1.00  0.00    -0.225 C  
BRANCH  33  35
HETATM   35  C   UNL     1     -10.744  18.367  66.842  1.00  0.00    -0.266 C  
HETATM   36  O   UNL     1     -10.185  17.808  65.650  1.00  0.00    -0.590 OA 
HETATM   37  H   UNL     1     -10.854  17.412  65.104  1.00  0.00     0.000 HD 
ENDBRANCH  33  35
ENDBRANCH  17  30
ENDBRANCH  11  13
ENDBRANCH  10  11
ENDBRANCH   7  10
ENDBRANCH   2   3
TORSDOF 9
ENDMDL
MODEL      170
REMARK 921   NORMALIZED FREE ENERGY PREDICTED BY IDOCK:   -4.94 KCAL/MOL
REMARK 922        TOTAL FREE ENERGY PREDICTED BY IDOCK:   -9.06 KCAL/MOL
REMARK 923 INTER-LIGAND FREE ENERGY PREDICTED BY IDOCK:   -7.38 KCAL/MOL
REMARK 924 INTRA-LIGAND FREE ENERGY PREDICTED BY IDOCK:   -1.68 KCAL/MOL
REMARK 927      BINDING AFFINITY PREDICTED BY RF-SCORE:    0.00 PKD
ROOT
HETATM    1  C   UNL     1     -10.462   4.872  73.831  1.00  0.00    -0.267 C  
HETATM    2  O   UNL     1     -11.428   5.184  72.837  1.00  0.00    -0.299 OA 
ENDROOT
BRANCH   2   3
HETATM    3  C   UNL     1     -11.360   6.430  72.271  1.00  0.00    -0.290 A  
HETATM    4  C   UNL     1     -10.984   6.501  70.920  1.00  0.00    -0.274 A  
HETATM    5 CL   UNL     1     -10.521   5.086  70.039  1.00  0.00    -0.311 Cl 
HETATM    6  C   UNL     1     -10.957   7.727  70.246  1.00  0.00    -0.252 A  
HETATM    7  C   UNL     1     -11.321   8.908  70.906  1.00  0.00    -0.336 A  
HETATM    8  C   UNL     1     -11.696   7.613  72.935  1.00  0.00    -0.204 A  
HETATM    9  C   UNL     1     -11.668   8.840  72.261  1.00  0.00    -0.398 A  
BRANCH   7  10
HETATM   10  C   UNL     1     -11.292  10.236  70.183  1.00  0.00    -0.316 C  
BRANCH  10  11
HETATM   11  N   UNL     1      -9.903  10.640  70.053  1.00  0.00    -0.327 NA 
HETATM   12  H   UNL     1      -9.233  10.528  70.814  1.00  0.00     0.000 HD 
BRANCH  11  13
HETATM   13  C   UNL     1      -9.539  11.197  68.812  1.00  0.00    -0.172 A  
HETATM   14  C   UNL     1      -8.309  10.883  68.256  1.00  0.00    -0.129 A  
HETATM   15  C   UNL     1      -8.059  11.439  67.023  1.00  0.00    -0.157 A  
HETATM   16  N   UNL     1     -10.429  11.987  68.161  1.00  0.00    -0.196 NA 
HETATM   17  C   UNL     1     -10.111  12.477  66.946  1.00  0.00    -0.225 A  
HETATM   18  N   UNL     1      -8.927  12.240  66.366  1.00  0.00    -0.164 NA 
BRANCH  14  19
HETATM   19  C   UNL     1      -7.257  10.047  68.876  1.00  0.00    -0.077 C  
HETATM   20  O   UNL     1      -7.278   9.855  70.087  1.00  0.00    -0.123 OA 
HETATM   21  N   UNL     1      -6.313   9.491  68.047  1.00  0.00    -0.057 N  
HETATM   22  H   UNL     1      -6.388   9.646  67.041  1.00  0.00     0.000 HD 
BRANCH  21  23
HETATM   23  C   UNL     1      -5.210   8.687  68.553  1.00  0.00    -0.033 C  
BRANCH  23  24
HETATM   24  C   UNL     1      -5.433   7.187  68.484  1.00  0.00    -0.021 A  
HETATM   25  N   UNL     1      -5.222   6.485  69.619  1.00  0.00    -0.013 NA 
HETATM   26  C   UNL     1      -5.461   5.161  69.569  1.00  0.00    -0.011 A  
HETATM   27  N   UNL     1      -5.836   6.635  67.316  1.00  0.00    -0.013 NA 
HETATM   28  C   UNL     1      -6.069   5.307  67.330  1.00  0.00    -0.030 A  
HETATM   29  C   UNL     1      -5.896   4.513  68.439  1.00  0.00    -0.025 A  
ENDBRANCH  23  24
ENDBRANCH  21  23
ENDBRANCH  14  19
BRANCH  17  30
HETATM   30  N   UNL     1     -11.016  13.248  66.273  1.00  0.00    -0.283 NA 
HETATM   31  C   UNL     1     -11.534  14.963  64.717  1.00  0.00    -0.410 C  
HETATM   32  C   UNL     1     -12.073  12.696  65.454  1.00  0.00    -0.462 C  
HETATM   33  C   UNL     1     -10.808  14.677  66.042  1.00  0.00    -0.318 C  
HETATM   34  C   UNL     1     -12.163  13.649  64.267  1.00  0.00    -0.445 C  
BRANCH  33  35
HETATM   35  C   UNL     1     -11.409  15.488  67.208  1.00  0.00    -0.167 C  
HETATM   36  O   UNL     1     -12.164  14.654  68.091  1.00  0.00    -0.578 OA 
HETATM   37  H   UNL     1     -12.535  15.153  68.810  1.00  0.00     0.000 HD 
ENDBRANCH  33  35
ENDBRANCH  17  30
ENDBRANCH  11  13
ENDBRANCH  10  11
ENDBRANCH   7  10
ENDBRANCH   2   3
TORSDOF 9
ENDMDL
MODEL      171
REMARK 921   NORMALIZED FREE ENERGY PREDICTED BY IDOCK:   -4.93 KCAL/MOL
REMARK 922        TOTAL FREE ENERGY PREDICTED BY IDOCK:   -9.05 KCAL/MOL
REMARK 923 INTER-LIGAND FREE ENERGY PREDICTED BY IDOCK:   -7.71 KCAL/MOL
REMARK 924 INTRA-LIGAND FREE ENERGY PREDICTED BY IDOCK:   -1.34 KCAL/MOL
REMARK 927      BINDING AFFINITY PREDICTED BY RF-SCORE:    0.00 PKD
ROOT
HETATM    1  C   UNL     1      -6.994   3.656  63.309  1.00  0.00    -0.044 C  
HETATM    2  O   UNL     1      -6.196   4.829  63.242  1.00  0.00    -0.021 OA 
ENDROOT
BRANCH   2   3
HETATM    3  C   UNL     1      -6.769   5.998  63.669  1.00  0.00    -0.037 A  
HETATM    4  C   UNL     1      -6.366   6.490  64.921  1.00  0.00    -0.041 A  
HETATM    5 CL   UNL     1      -5.272   5.604  65.927  1.00  0.00    -0.009 Cl 
HETATM    6  C   UNL     1      -6.849   7.712  65.402  1.00  0.00    -0.045 A  
HETATM    7  C   UNL     1      -7.736   8.476  64.633  1.00  0.00    -0.116 A  
HETATM    8  C   UNL     1      -7.677   6.748  62.917  1.00  0.00    -0.102 A  
HETATM    9  C   UNL     1      -8.162   7.970  63.398  1.00  0.00    -0.039 A  
BRANCH   7  10
HETATM   10  C   UNL     1      -8.264   9.796  65.149  1.00  0.00    -0.140 C  
BRANCH  10  11
HETATM   11  N   UNL     1      -9.701   9.811  64.942  1.00  0.00    -0.415 NA 
HETATM   12  H   UNL     1     -10.147   9.278  64.195  1.00  0.00     0.000 HD 
BRANCH  11  13
HETATM   13  C   UNL     1     -10.443  10.608  65.836  1.00  0.00    -0.174 A  
HETATM   14  C   UNL     1     -10.901  10.059  67.023  1.00  0.00    -0.196 A  
HETATM   15  C   UNL     1     -11.577  10.923  67.852  1.00  0.00    -0.188 A  
HETATM   16  N   UNL     1     -10.642  11.916  65.539  1.00  0.00    -0.260 NA 
HETATM   17  C   UNL     1     -11.300  12.699  66.417  1.00  0.00    -0.331 A  
HETATM   18  N   UNL     1     -11.799  12.225  67.565  1.00  0.00    -0.519 NA 
BRANCH  14  19
HETATM   19  C   UNL     1     -10.755   8.648  67.446  1.00  0.00    -0.142 C  
HETATM   20  O   UNL     1     -10.661   7.771  66.595  1.00  0.00    -0.276 OA 
HETATM   21  N   UNL     1     -10.697   8.390  68.795  1.00  0.00    -0.413 N  
HETATM   22  H   UNL     1     -10.724   9.174  69.448  1.00  0.00     0.000 HD 
BRANCH  21  23
HETATM   23  C   UNL     1     -10.597   7.038  69.324  1.00  0.00    -0.224 C  
BRANCH  23  24
HETATM   24  C   UNL     1     -10.566   6.950  70.840  1.00  0.00    -0.218 A  
HETATM   25  N   UNL     1     -10.159   8.052  71.508  1.00  0.00    -0.175 NA 
HETATM   26  C   UNL     1     -10.173   7.988  72.853  1.00  0.00    -0.314 A  
HETATM   27  N   UNL     1     -10.951   5.800  71.440  1.00  0.00    -0.260 NA 
HETATM   28  C   UNL     1     -10.954   5.800  72.788  1.00  0.00    -0.272 A  
HETATM   29  C   UNL     1     -10.570   6.877  73.554  1.00  0.00    -0.378 A  
ENDBRANCH  23  24
ENDBRANCH  21  23
ENDBRANCH  14  19
BRANCH  17  30
HETATM   30  N   UNL     1     -11.477  14.025  66.135  1.00  0.00    -0.335 NA 
HETATM   31  C   UNL     1     -10.610  16.189  65.695  1.00  0.00    -0.377 C  
HETATM   32  C   UNL     1     -12.229  14.498  64.994  1.00  0.00    -0.373 C  
HETATM   33  C   UNL     1     -10.661  15.072  66.749  1.00  0.00    -0.301 C  
HETATM   34  C   UNL     1     -11.452  15.719  64.513  1.00  0.00    -0.292 C  
BRANCH  33  35
HETATM   35  C   UNL     1     -11.323  15.552  68.056  1.00  0.00    -0.330 C  
HETATM   36  O   UNL     1     -11.084  16.943  68.285  1.00  0.00    -0.349 OA 
HETATM   37  H   UNL     1     -11.492  17.239  69.090  1.00  0.00     0.000 HD 
ENDBRANCH  33  35
ENDBRANCH  17  30
ENDBRANCH  11  13
ENDBRANCH  10  11
ENDBRANCH   7  10
ENDBRANCH   2   3
TORSDOF 9
ENDMDL
MODEL      172
REMARK 921   NORMALIZED FREE ENERGY PREDICTED BY IDOCK:   -4.86 KCAL/MOL
REMARK 922        TOTAL FREE ENERGY PREDICTED BY IDOCK:   -8.94 KCAL/MOL
REMARK 923 INTER-LIGAND FREE ENERGY PREDICTED BY IDOCK:   -7.21 KCAL/MOL
REMARK 924 INTRA-LIGAND FREE ENERGY PREDICTED BY IDOCK:   -1.74 KCAL/MOL
REMARK 927      BINDING AFFINITY PREDICTED BY RF-SCORE:    0.00 PKD
ROOT
HETATM    1  C   UNL     1     -11.240   7.330  72.598  1.00  0.00    -0.313 C  
HETATM    2  O   UNL     1     -11.635   7.599  71.260  1.00  0.00    -0.267 OA 
ENDROOT
BRANCH   2   3
HETATM    3  C   UNL     1     -10.701   8.173  70.439  1.00  0.00    -0.232 A  
HETATM    4  C   UNL     1     -10.466   7.552  69.202  1.00  0.00    -0.215 A  
HETATM    5 CL   UNL     1     -11.243   6.064  68.780  1.00  0.00    -0.338 Cl 
HETATM    6  C   UNL     1      -9.580   8.111  68.274  1.00  0.00    -0.154 A  
HETATM    7  C   UNL     1      -8.921   9.314  68.558  1.00  0.00    -0.129 A  
HETATM    8  C   UNL     1     -10.021   9.358  70.732  1.00  0.00    -0.358 A  
HETATM    9  C   UNL     1      -9.134   9.918  69.804  1.00  0.00    -0.249 A  
BRANCH   7  10
HETATM   10  C   UNL     1      -7.961   9.922  67.560  1.00  0.00    -0.106 C  
BRANCH  10  11
HETATM   11  N   UNL     1      -8.149   9.240  66.292  1.00  0.00    -0.107 NA 
HETATM   12  H   UNL     1      -7.927   8.252  66.169  1.00  0.00     0.000 HD 
BRANCH  11  13
HETATM   13  C   UNL     1      -8.658  10.029  65.240  1.00  0.00    -0.154 A  
HETATM   14  C   UNL     1      -8.484   9.615  63.929  1.00  0.00    -0.190 A  
HETATM   15  C   UNL     1      -9.052  10.425  62.974  1.00  0.00    -0.269 A  
HETATM   16  N   UNL     1      -9.358  11.150  65.542  1.00  0.00    -0.219 NA 
HETATM   17  C   UNL     1      -9.898  11.879  64.544  1.00  0.00    -0.178 A  
HETATM   18  N   UNL     1      -9.739  11.554  63.254  1.00  0.00    -0.373 NA 
BRANCH  14  19
HETATM   19  C   UNL     1      -7.731   8.421  63.482  1.00  0.00    -0.144 C  
HETATM   20  O   UNL     1      -8.156   7.760  62.542  1.00  0.00    -0.146 OA 
HETATM   21  N   UNL     1      -6.555   8.130  64.131  1.00  0.00    -0.066 N  
HETATM   22  H   UNL     1      -6.231   8.756  64.869  1.00  0.00     0.000 HD 
BRANCH  21  23
HETATM   23  C   UNL     1      -5.757   6.958  63.804  1.00  0.00    -0.032 C  
BRANCH  23  24
HETATM   24  C   UNL     1      -5.851   5.824  64.809  1.00  0.00    -0.024 A  
HETATM   25  N   UNL     1      -6.327   6.132  66.036  1.00  0.00    -0.037 NA 
HETATM   26  C   UNL     1      -6.452   5.117  66.912  1.00  0.00    -0.041 A  
HETATM   27  N   UNL     1      -5.474   4.579  64.434  1.00  0.00    -0.013 NA 
HETATM   28  C   UNL     1      -5.632   3.604  65.351  1.00  0.00    -0.017 A  
HETATM   29  C   UNL     1      -6.120   3.818  66.618  1.00  0.00    -0.024 A  
ENDBRANCH  23  24
ENDBRANCH  21  23
ENDBRANCH  14  19
BRANCH  17  30
HETATM   30  N   UNL     1     -10.630  12.993  64.844  1.00  0.00    -0.320 NA 
HETATM   31  C   UNL     1     -12.137  14.174  66.245  1.00  0.00    -0.463 C  
HETATM   32  C   UNL     1     -10.045  14.308  64.988  1.00  0.00    -0.291 C  
HETATM   33  C   UNL     1     -11.991  12.916  65.372  1.00  0.00    -0.426 C  
HETATM   34  C   UNL     1     -10.822  14.938  66.139  1.00  0.00    -0.327 C  
BRANCH  33  35
HETATM   35  C   UNL     1     -13.003  12.911  64.209  1.00  0.00     0.036 C  
HETATM   36  O   UNL     1     -12.505  13.630  63.077  1.00  0.00    -1.020 OA 
HETATM   37  H   UNL     1     -13.128  13.627  62.360  1.00  0.00     0.000 HD 
ENDBRANCH  33  35
ENDBRANCH  17  30
ENDBRANCH  11  13
ENDBRANCH  10  11
ENDBRANCH   7  10
ENDBRANCH   2   3
TORSDOF 9
ENDMDL
MODEL      173
REMARK 921   NORMALIZED FREE ENERGY PREDICTED BY IDOCK:   -4.85 KCAL/MOL
REMARK 922        TOTAL FREE ENERGY PREDICTED BY IDOCK:   -8.93 KCAL/MOL
REMARK 923 INTER-LIGAND FREE ENERGY PREDICTED BY IDOCK:   -7.48 KCAL/MOL
REMARK 924 INTRA-LIGAND FREE ENERGY PREDICTED BY IDOCK:   -1.45 KCAL/MOL
REMARK 927      BINDING AFFINITY PREDICTED BY RF-SCORE:    0.00 PKD
ROOT
HETATM    1  C   UNL     1     -10.424   5.000  74.495  1.00  0.00    -0.234 C  
HETATM    2  O   UNL     1     -10.994   4.952  73.194  1.00  0.00    -0.254 OA 
ENDROOT
BRANCH   2   3
HETATM    3  C   UNL     1     -11.049   6.129  72.494  1.00  0.00    -0.274 A  
HETATM    4  C   UNL     1     -10.714   6.082  71.132  1.00  0.00    -0.264 A  
HETATM    5 CL   UNL     1     -10.152   4.620  70.393  1.00  0.00    -0.302 Cl 
HETATM    6  C   UNL     1     -10.810   7.223  70.328  1.00  0.00    -0.264 A  
HETATM    7  C   UNL     1     -11.259   8.435  70.868  1.00  0.00    -0.294 A  
HETATM    8  C   UNL     1     -11.468   7.346  73.038  1.00  0.00    -0.210 A  
HETATM    9  C   UNL     1     -11.564   8.489  72.234  1.00  0.00    -0.444 A  
BRANCH   7  10
HETATM   10  C   UNL     1     -11.363   9.672  70.005  1.00  0.00    -0.195 C  
BRANCH  10  11
HETATM   11  N   UNL     1     -10.024  10.208  69.833  1.00  0.00    -0.357 NA 
HETATM   12  H   UNL     1      -9.366  10.280  70.609  1.00  0.00     0.000 HD 
BRANCH  11  13
HETATM   13  C   UNL     1      -9.691  10.622  68.529  1.00  0.00    -0.174 A  
HETATM   14  C   UNL     1      -8.652   9.997  67.857  1.00  0.00    -0.121 A  
HETATM   15  C   UNL     1      -8.427  10.438  66.574  1.00  0.00    -0.132 A  
HETATM   16  N   UNL     1     -10.435  11.589  67.937  1.00  0.00    -0.179 NA 
HETATM   17  C   UNL     1     -10.159  11.950  66.668  1.00  0.00    -0.200 A  
HETATM   18  N   UNL     1      -9.148  11.411  65.974  1.00  0.00    -0.209 NA 
BRANCH  14  19
HETATM   19  C   UNL     1      -7.767   8.944  68.404  1.00  0.00    -0.099 C  
HETATM   20  O   UNL     1      -6.859   8.501  67.709  1.00  0.00    -0.065 OA 
HETATM   21  N   UNL     1      -7.988   8.533  69.696  1.00  0.00    -0.099 N  
HETATM   22  H   UNL     1      -8.726   8.985  70.238  1.00  0.00     0.000 HD 
BRANCH  21  23
HETATM   23  C   UNL     1      -7.207   7.475  70.320  1.00  0.00    -0.064 C  
BRANCH  23  24
HETATM   24  C   UNL     1      -7.256   7.460  71.838  1.00  0.00    -0.067 A  
HETATM   25  N   UNL     1      -7.307   6.249  72.435  1.00  0.00    -0.091 NA 
HETATM   26  C   UNL     1      -7.305   6.235  73.782  1.00  0.00    -0.087 A  
HETATM   27  N   UNL     1      -7.233   8.635  72.508  1.00  0.00    -0.307 NA 
HETATM   28  C   UNL     1      -7.224   8.556  73.854  1.00  0.00    -0.046 A  
HETATM   29  C   UNL     1      -7.259   7.371  74.551  1.00  0.00    -0.137 A  
ENDBRANCH  23  24
ENDBRANCH  21  23
ENDBRANCH  14  19
BRANCH  17  30
HETATM   30  N   UNL     1     -10.926  12.903  66.057  1.00  0.00    -0.273 NA 
HETATM   31  C   UNL     1     -11.202  14.639  64.464  1.00  0.00    -0.290 C  
HETATM   32  C   UNL     1     -12.184  12.610  65.408  1.00  0.00    -0.459 C  
HETATM   33  C   UNL     1     -10.402  14.224  65.710  1.00  0.00    -0.327 C  
HETATM   34  C   UNL     1     -12.190  13.513  64.179  1.00  0.00    -0.449 C  
BRANCH  33  35
HETATM   35  C   UNL     1     -10.626  15.200  66.882  1.00  0.00    -0.297 C  
HETATM   36  O   UNL     1      -9.467  16.002  67.125  1.00  0.00    -0.213 OA 
HETATM   37  H   UNL     1      -9.604  16.604  67.847  1.00  0.00     0.000 HD 
ENDBRANCH  33  35
ENDBRANCH  17  30
ENDBRANCH  11  13
ENDBRANCH  10  11
ENDBRANCH   7  10
ENDBRANCH   2   3
TORSDOF 9
ENDMDL
MODEL      174
REMARK 921   NORMALIZED FREE ENERGY PREDICTED BY IDOCK:   -4.81 KCAL/MOL
REMARK 922        TOTAL FREE ENERGY PREDICTED BY IDOCK:   -8.88 KCAL/MOL
REMARK 923 INTER-LIGAND FREE ENERGY PREDICTED BY IDOCK:   -7.94 KCAL/MOL
REMARK 924 INTRA-LIGAND FREE ENERGY PREDICTED BY IDOCK:   -0.94 KCAL/MOL
REMARK 927      BINDING AFFINITY PREDICTED BY RF-SCORE:    0.00 PKD
ROOT
HETATM    1  C   UNL     1      -7.614   5.670  69.133  1.00  0.00    -0.088 C  
HETATM    2  O   UNL     1      -8.158   6.390  70.230  1.00  0.00    -0.116 OA 
ENDROOT
BRANCH   2   3
HETATM    3  C   UNL     1      -8.872   7.523  69.939  1.00  0.00    -0.141 A  
HETATM    4  C   UNL     1     -10.260   7.385  69.786  1.00  0.00    -0.209 A  
HETATM    5 CL   UNL     1     -11.023   5.833  69.856  1.00  0.00    -0.420 Cl 
HETATM    6  C   UNL     1     -11.073   8.501  69.558  1.00  0.00     0.039 A  
HETATM    7  C   UNL     1     -10.514   9.783  69.492  1.00  0.00    -0.250 A  
HETATM    8  C   UNL     1      -8.312   8.800  69.844  1.00  0.00    -0.125 A  
HETATM    9  C   UNL     1      -9.125   9.917  69.614  1.00  0.00    -0.245 A  
BRANCH   7  10
HETATM   10  C   UNL     1     -11.386  10.993  69.243  1.00  0.00    -0.282 C  
BRANCH  10  11
HETATM   11  N   UNL     1     -11.889  10.906  67.883  1.00  0.00    -0.735 NA 
HETATM   12  H   UNL     1     -12.880  10.778  67.678  1.00  0.00     0.000 HD 
BRANCH  11  13
HETATM   13  C   UNL     1     -10.922  11.008  66.863  1.00  0.00    -0.249 A  
HETATM   14  C   UNL     1     -10.545  12.259  66.400  1.00  0.00    -0.272 A  
HETATM   15  C   UNL     1      -9.565  12.261  65.436  1.00  0.00    -0.063 A  
HETATM   16  N   UNL     1     -10.339   9.876  66.397  1.00  0.00    -0.208 NA 
HETATM   17  C   UNL     1      -9.371   9.969  65.463  1.00  0.00    -0.216 A  
HETATM   18  N   UNL     1      -8.984  11.143  64.948  1.00  0.00    -0.104 NA 
BRANCH  14  19
HETATM   19  C   UNL     1     -11.119  13.556  66.824  1.00  0.00    -0.299 C  
HETATM   20  O   UNL     1     -11.520  14.342  65.974  1.00  0.00    -0.337 OA 
HETATM   21  N   UNL     1     -11.205  13.804  68.172  1.00  0.00    -0.259 N  
HETATM   22  H   UNL     1     -10.904  13.081  68.827  1.00  0.00     0.000 HD 
BRANCH  21  23
HETATM   23  C   UNL     1     -11.712  15.062  68.700  1.00  0.00    -0.337 C  
BRANCH  23  24
HETATM   24  C   UNL     1     -12.116  15.020  70.163  1.00  0.00    -0.331 A  
HETATM   25  N   UNL     1     -13.002  14.066  70.525  1.00  0.00    -0.218 NA 
HETATM   26  C   UNL     1     -13.327  14.001  71.830  1.00  0.00    -0.406 A  
HETATM   27  N   UNL     1     -11.573  15.914  71.022  1.00  0.00    -0.394 NA 
HETATM   28  C   UNL     1     -11.930  15.793  72.317  1.00  0.00    -0.493 A  
HETATM   29  C   UNL     1     -12.812  14.846  72.781  1.00  0.00    -0.515 A  
ENDBRANCH  23  24
ENDBRANCH  21  23
ENDBRANCH  14  19
BRANCH  17  30
HETATM   30  N   UNL     1      -8.759   8.833  65.011  1.00  0.00    -0.177 NA 
HETATM   31  C   UNL     1      -6.805   7.602  64.467  1.00  0.00    -0.055 C  
HETATM   32  C   UNL     1      -8.965   7.533  65.608  1.00  0.00     0.031 C  
HETATM   33  C   UNL     1      -7.602   8.870  64.118  1.00  0.00    -0.120 C  
HETATM   34  C   UNL     1      -7.592   6.873  65.551  1.00  0.00    -0.091 C  
BRANCH  33  35
HETATM   35  C   UNL     1      -8.074   8.860  62.650  1.00  0.00    -0.164 C  
HETATM   36  O   UNL     1      -9.202   7.999  62.468  1.00  0.00    -0.095 OA 
HETATM   37  H   UNL     1      -9.493   7.992  61.564  1.00  0.00     0.000 HD 
ENDBRANCH  33  35
ENDBRANCH  17  30
ENDBRANCH  11  13
ENDBRANCH  10  11
ENDBRANCH   7  10
ENDBRANCH   2   3
TORSDOF 9
ENDMDL
MODEL      175
REMARK 921   NORMALIZED FREE ENERGY PREDICTED BY IDOCK:   -4.71 KCAL/MOL
REMARK 922        TOTAL FREE ENERGY PREDICTED BY IDOCK:   -8.71 KCAL/MOL
REMARK 923 INTER-LIGAND FREE ENERGY PREDICTED BY IDOCK:   -7.20 KCAL/MOL
REMARK 924 INTRA-LIGAND FREE ENERGY PREDICTED BY IDOCK:   -1.51 KCAL/MOL
REMARK 927      BINDING AFFINITY PREDICTED BY RF-SCORE:    0.00 PKD
ROOT
HETATM    1  C   UNL     1      -6.596  20.990  63.901  1.00  0.00    -0.106 C  
HETATM    2  O   UNL     1      -6.664  20.804  65.308  1.00  0.00    -0.208 OA 
ENDROOT
BRANCH   2   3
HETATM    3  C   UNL     1      -6.984  19.549  65.756  1.00  0.00    -0.286 A  
HETATM    4  C   UNL     1      -8.321  19.316  66.111  1.00  0.00    -0.273 A  
HETATM    5 CL   UNL     1      -9.494  20.588  66.087  1.00  0.00    -0.225 Cl 
HETATM    6  C   UNL     1      -8.748  18.044  66.512  1.00  0.00    -0.279 A  
HETATM    7  C   UNL     1      -7.845  16.974  66.551  1.00  0.00    -0.331 A  
HETATM    8  C   UNL     1      -6.078  18.486  65.824  1.00  0.00    -0.259 A  
HETATM    9  C   UNL     1      -6.504  17.214  66.225  1.00  0.00    -0.166 A  
BRANCH   7  10
HETATM   10  C   UNL     1      -8.299  15.598  66.986  1.00  0.00    -0.228 C  
BRANCH  10  11
HETATM   11  N   UNL     1      -7.434  15.168  68.071  1.00  0.00    -0.111 NA 
HETATM   12  H   UNL     1      -6.889  15.828  68.624  1.00  0.00     0.000 HD 
BRANCH  11  13
HETATM   13  C   UNL     1      -7.396  13.780  68.312  1.00  0.00    -0.118 A  
HETATM   14  C   UNL     1      -6.697  13.295  69.405  1.00  0.00    -0.032 A  
HETATM   15  C   UNL     1      -6.751  11.933  69.584  1.00  0.00    -0.009 A  
HETATM   16  N   UNL     1      -8.095  12.953  67.495  1.00  0.00    -0.169 NA 
HETATM   17  C   UNL     1      -8.111  11.630  67.753  1.00  0.00    -0.139 A  
HETATM   18  N   UNL     1      -7.429  11.091  68.773  1.00  0.00    -0.107 NA 
BRANCH  14  19
HETATM   19  C   UNL     1      -5.891  14.097  70.353  1.00  0.00    -0.158 C  
HETATM   20  O   UNL     1      -5.253  13.528  71.231  1.00  0.00    -0.143 OA 
HETATM   21  N   UNL     1      -5.871  15.460  70.177  1.00  0.00    -0.140 N  
HETATM   22  H   UNL     1      -6.380  15.863  69.390  1.00  0.00     0.000 HD 
BRANCH  21  23
HETATM   23  C   UNL     1      -5.148  16.349  71.075  1.00  0.00    -0.160 C  
BRANCH  23  24
HETATM   24  C   UNL     1      -5.354  17.829  70.806  1.00  0.00    -0.240 A  
HETATM   25  N   UNL     1      -5.165  18.671  71.845  1.00  0.00    -0.720 NA 
HETATM   26  C   UNL     1      -5.304  19.987  71.595  1.00  0.00    -0.402 A  
HETATM   27  N   UNL     1      -5.699  18.229  69.560  1.00  0.00    -0.225 NA 
HETATM   28  C   UNL     1      -5.815  19.559  69.369  1.00  0.00    -0.244 A  
HETATM   29  C   UNL     1      -5.628  20.493  70.361  1.00  0.00    -0.334 A  
ENDBRANCH  23  24
ENDBRANCH  21  23
ENDBRANCH  14  19
BRANCH  17  30
HETATM   30  N   UNL     1      -8.838  10.796  66.951  1.00  0.00    -0.138 NA 
HETATM   31  C   UNL     1      -9.260   8.655  66.021  1.00  0.00    -0.276 C  
HETATM   32  C   UNL     1     -10.265  10.609  67.091  1.00  0.00    -0.216 C  
HETATM   33  C   UNL     1      -8.212   9.776  66.111  1.00  0.00    -0.120 C  
HETATM   34  C   UNL     1     -10.476   9.125  66.812  1.00  0.00    -0.266 C  
BRANCH  33  35
HETATM   35  C   UNL     1      -7.889  10.367  64.723  1.00  0.00    -0.086 C  
HETATM   36  O   UNL     1      -6.607  10.999  64.709  1.00  0.00    -0.291 OA 
HETATM   37  H   UNL     1      -6.407  11.364  63.854  1.00  0.00     0.000 HD 
ENDBRANCH  33  35
ENDBRANCH  17  30
ENDBRANCH  11  13
ENDBRANCH  10  11
ENDBRANCH   7  10
ENDBRANCH   2   3
TORSDOF 9
ENDMDL
MODEL      176
REMARK 921   NORMALIZED FREE ENERGY PREDICTED BY IDOCK:   -4.70 KCAL/MOL
REMARK 922        TOTAL FREE ENERGY PREDICTED BY IDOCK:   -8.70 KCAL/MOL
REMARK 923 INTER-LIGAND FREE ENERGY PREDICTED BY IDOCK:   -9.03 KCAL/MOL
REMARK 924 INTRA-LIGAND FREE ENERGY PREDICTED BY IDOCK:    0.33 KCAL/MOL
REMARK 927      BINDING AFFINITY PREDICTED BY RF-SCORE:    0.00 PKD
ROOT
HETATM    1  C   UNL     1      -9.029  16.747  66.328  1.00  0.00    -0.290 C  
HETATM    2  O   UNL     1      -9.652  15.719  65.570  1.00  0.00    -0.331 OA 
ENDROOT
BRANCH   2   3
HETATM    3  C   UNL     1     -10.273  14.718  66.270  1.00  0.00    -0.298 A  
HETATM    4  C   UNL     1      -9.473  13.937  67.119  1.00  0.00    -0.246 A  
HETATM    5 CL   UNL     1      -7.758  14.160  67.196  1.00  0.00    -0.113 Cl 
HETATM    6  C   UNL     1     -10.038  12.940  67.922  1.00  0.00    -0.232 A  
HETATM    7  C   UNL     1     -11.420  12.713  67.904  1.00  0.00    -0.360 A  
HETATM    8  C   UNL     1     -11.648  14.471  66.232  1.00  0.00    -0.364 A  
HETATM    9  C   UNL     1     -12.214  13.472  67.035  1.00  0.00    -0.351 A  
BRANCH   7  10
HETATM   10  C   UNL     1     -12.036  11.635  68.768  1.00  0.00    -0.264 C  
BRANCH  10  11
HETATM   11  N   UNL     1     -11.665  10.349  68.205  1.00  0.00    -0.741 NA 
HETATM   12  H   UNL     1     -11.936  10.072  67.262  1.00  0.00     0.000 HD 
BRANCH  11  13
HETATM   13  C   UNL     1     -10.907   9.507  69.043  1.00  0.00    -0.160 A  
HETATM   14  C   UNL     1     -11.284   9.339  70.366  1.00  0.00    -0.290 A  
HETATM   15  C   UNL     1     -10.511   8.466  71.094  1.00  0.00    -0.212 A  
HETATM   16  N   UNL     1      -9.853   8.835  68.517  1.00  0.00    -0.164 NA 
HETATM   17  C   UNL     1      -9.159   7.983  69.297  1.00  0.00    -0.148 A  
HETATM   18  N   UNL     1      -9.449   7.799  70.592  1.00  0.00    -0.162 NA 
BRANCH  14  19
HETATM   19  C   UNL     1     -12.403  10.027  71.050  1.00  0.00    -0.360 C  
HETATM   20  O   UNL     1     -13.428   9.404  71.301  1.00  0.00    -0.350 OA 
HETATM   21  N   UNL     1     -12.220  11.342  71.405  1.00  0.00    -0.174 N  
HETATM   22  H   UNL     1     -11.319  11.783  71.216  1.00  0.00     0.000 HD 
BRANCH  21  23
HETATM   23  C   UNL     1     -13.266  12.127  72.042  1.00  0.00    -0.391 C  
BRANCH  23  24
HETATM   24  C   UNL     1     -12.942  13.602  72.206  1.00  0.00    -0.320 A  
HETATM   25  N   UNL     1     -13.183  14.149  73.419  1.00  0.00    -0.392 NA 
HETATM   26  C   UNL     1     -12.855  15.445  73.577  1.00  0.00    -0.552 A  
HETATM   27  N   UNL     1     -12.428  14.283  71.157  1.00  0.00    -0.340 NA 
HETATM   28  C   UNL     1     -12.111  15.575  71.379  1.00  0.00    -0.393 A  
HETATM   29  C   UNL     1     -12.305  16.214  72.581  1.00  0.00    -0.574 A  
ENDBRANCH  23  24
ENDBRANCH  21  23
ENDBRANCH  14  19
BRANCH  17  30
HETATM   30  N   UNL     1      -8.115   7.280  68.763  1.00  0.00    -0.123 NA 
HETATM   31  C   UNL     1      -6.009   6.208  68.974  1.00  0.00    -0.024 C  
HETATM   32  C   UNL     1      -8.278   6.012  68.088  1.00  0.00    -0.113 C  
HETATM   33  C   UNL     1      -6.723   7.563  69.110  1.00  0.00    -0.048 C  
HETATM   34  C   UNL     1      -7.058   5.202  68.513  1.00  0.00    -0.062 C  
BRANCH  33  35
HETATM   35  C   UNL     1      -6.144   8.611  68.138  1.00  0.00    -0.051 C  
HETATM   36  O   UNL     1      -5.563   7.993  66.986  1.00  0.00    -0.035 OA 
HETATM   37  H   UNL     1      -5.207   8.638  66.387  1.00  0.00     0.000 HD 
ENDBRANCH  33  35
ENDBRANCH  17  30
ENDBRANCH  11  13
ENDBRANCH  10  11
ENDBRANCH   7  10
ENDBRANCH   2   3
TORSDOF 9
ENDMDL
MODEL      177
REMARK 921   NORMALIZED FREE ENERGY PREDICTED BY IDOCK:   -4.68 KCAL/MOL
REMARK 922        TOTAL FREE ENERGY PREDICTED BY IDOCK:   -8.67 KCAL/MOL
REMARK 923 INTER-LIGAND FREE ENERGY PREDICTED BY IDOCK:   -6.58 KCAL/MOL
REMARK 924 INTRA-LIGAND FREE ENERGY PREDICTED BY IDOCK:   -2.09 KCAL/MOL
REMARK 927      BINDING AFFINITY PREDICTED BY RF-SCORE:    0.00 PKD
ROOT
HETATM    1  C   UNL     1      -6.152  12.446  69.104  1.00  0.00    -0.087 C  
HETATM    2  O   UNL     1      -7.139  11.674  69.772  1.00  0.00     0.026 OA 
ENDROOT
BRANCH   2   3
HETATM    3  C   UNL     1      -7.966  10.909  68.991  1.00  0.00    -0.131 A  
HETATM    4  C   UNL     1      -7.532   9.612  68.676  1.00  0.00    -0.075 A  
HETATM    5 CL   UNL     1      -5.972   9.042  69.162  1.00  0.00    -0.042 Cl 
HETATM    6  C   UNL     1      -8.345   8.740  67.942  1.00  0.00    -0.118 A  
HETATM    7  C   UNL     1      -9.618   9.144  67.521  1.00  0.00    -0.186 A  
HETATM    8  C   UNL     1      -9.225  11.320  68.545  1.00  0.00    -0.181 A  
HETATM    9  C   UNL     1     -10.038  10.449  67.810  1.00  0.00    -0.212 A  
BRANCH   7  10
HETATM   10  C   UNL     1     -10.501   8.208  66.726  1.00  0.00    -0.246 C  
BRANCH  10  11
HETATM   11  N   UNL     1     -11.048   7.226  67.646  1.00  0.00    -0.543 NA 
HETATM   12  H   UNL     1     -11.868   7.419  68.220  1.00  0.00     0.000 HD 
BRANCH  11  13
HETATM   13  C   UNL     1     -10.375   5.989  67.696  1.00  0.00    -0.206 A  
HETATM   14  C   UNL     1     -10.157   5.378  68.920  1.00  0.00    -0.265 A  
HETATM   15  C   UNL     1      -9.532   4.154  68.867  1.00  0.00    -0.169 A  
HETATM   16  N   UNL     1     -10.004   5.397  66.534  1.00  0.00    -0.178 NA 
HETATM   17  C   UNL     1      -9.411   4.187  66.570  1.00  0.00    -0.189 A  
HETATM   18  N   UNL     1      -9.141   3.556  67.720  1.00  0.00    -0.142 NA 
BRANCH  14  19
HETATM   19  C   UNL     1     -10.505   5.933  70.248  1.00  0.00    -0.261 C  
HETATM   20  O   UNL     1     -11.200   5.273  71.012  1.00  0.00     0.029 OA 
HETATM   21  N   UNL     1      -9.995   7.165  70.577  1.00  0.00    -0.187 N  
HETATM   22  H   UNL     1      -9.376   7.635  69.915  1.00  0.00     0.000 HD 
BRANCH  21  23
HETATM   23  C   UNL     1     -10.306   7.825  71.836  1.00  0.00    -0.207 C  
BRANCH  23  24
HETATM   24  C   UNL     1     -11.503   8.758  71.786  1.00  0.00    -0.342 A  
HETATM   25  N   UNL     1     -12.618   8.358  72.437  1.00  0.00    -0.345 NA 
HETATM   26  C   UNL     1     -13.664   9.205  72.430  1.00  0.00    -0.480 A  
HETATM   27  N   UNL     1     -11.396   9.929  71.117  1.00  0.00    -0.376 NA 
HETATM   28  C   UNL     1     -12.473  10.740  71.153  1.00  0.00    -0.414 A  
HETATM   29  C   UNL     1     -13.645  10.425  71.800  1.00  0.00    -0.246 A  
ENDBRANCH  23  24
ENDBRANCH  21  23
ENDBRANCH  14  19
BRANCH  17  30
HETATM   30  N   UNL     1      -9.063   3.572  65.400  1.00  0.00    -0.139 NA 
HETATM   31  C   UNL     1      -7.428   2.851  63.840  1.00  0.00    -0.066 C  
HETATM   32  C   UNL     1      -9.436   2.213  65.078  1.00  0.00     0.001 C  
HETATM   33  C   UNL     1      -8.016   4.096  64.523  1.00  0.00    -0.086 C  
HETATM   34  C   UNL     1      -8.216   1.652  64.356  1.00  0.00    -0.070 C  
BRANCH  33  35
HETATM   35  C   UNL     1      -8.631   5.071  63.498  1.00  0.00    -0.108 C  
HETATM   36  O   UNL     1      -8.661   6.409  64.001  1.00  0.00    -0.335 OA 
HETATM   37  H   UNL     1      -9.040   7.010  63.370  1.00  0.00     0.000 HD 
ENDBRANCH  33  35
ENDBRANCH  17  30
ENDBRANCH  11  13
ENDBRANCH  10  11
ENDBRANCH   7  10
ENDBRANCH   2   3
TORSDOF 9
ENDMDL
MODEL      178
REMARK 921   NORMALIZED FREE ENERGY PREDICTED BY IDOCK:   -4.66 KCAL/MOL
REMARK 922        TOTAL FREE ENERGY PREDICTED BY IDOCK:   -8.64 KCAL/MOL
REMARK 923 INTER-LIGAND FREE ENERGY PREDICTED BY IDOCK:   -7.37 KCAL/MOL
REMARK 924 INTRA-LIGAND FREE ENERGY PREDICTED BY IDOCK:   -1.28 KCAL/MOL
REMARK 927      BINDING AFFINITY PREDICTED BY RF-SCORE:    0.00 PKD
ROOT
HETATM    1  C   UNL     1     -11.357   4.978  73.290  1.00  0.00    -0.317 C  
HETATM    2  O   UNL     1     -11.704   5.843  72.218  1.00  0.00    -0.307 OA 
ENDROOT
BRANCH   2   3
HETATM    3  C   UNL     1     -10.714   6.650  71.723  1.00  0.00    -0.227 A  
HETATM    4  C   UNL     1     -10.928   8.036  71.779  1.00  0.00    -0.251 A  
HETATM    5 CL   UNL     1     -12.423   8.694  72.351  1.00  0.00    -0.450 Cl 
HETATM    6  C   UNL     1      -9.939   8.933  71.359  1.00  0.00    -0.378 A  
HETATM    7  C   UNL     1      -8.708   8.462  70.887  1.00  0.00    -0.178 A  
HETATM    8  C   UNL     1      -9.495   6.181  71.224  1.00  0.00    -0.177 A  
HETATM    9  C   UNL     1      -8.506   7.078  70.803  1.00  0.00    -0.135 A  
BRANCH   7  10
HETATM   10  C   UNL     1      -7.636   9.426  70.430  1.00  0.00    -0.145 C  
BRANCH  10  11
HETATM   11  N   UNL     1      -8.141  10.130  69.264  1.00  0.00    -0.136 NA 
HETATM   12  H   UNL     1      -8.191  11.148  69.225  1.00  0.00     0.000 HD 
BRANCH  11  13
HETATM   13  C   UNL     1      -8.557   9.319  68.189  1.00  0.00    -0.125 A  
HETATM   14  C   UNL     1      -9.670   9.683  67.448  1.00  0.00    -0.198 A  
HETATM   15  C   UNL     1      -9.974   8.855  66.393  1.00  0.00    -0.284 A  
HETATM   16  N   UNL     1      -7.821   8.225  67.870  1.00  0.00    -0.113 NA 
HETATM   17  C   UNL     1      -8.179   7.477  66.808  1.00  0.00    -0.124 A  
HETATM   18  N   UNL     1      -9.262   7.753  66.069  1.00  0.00    -0.130 NA 
BRANCH  14  19
HETATM   19  C   UNL     1     -10.553  10.842  67.710  1.00  0.00    -0.217 C  
HETATM   20  O   UNL     1     -11.762  10.668  67.800  1.00  0.00    -0.503 OA 
HETATM   21  N   UNL     1      -9.959  12.071  67.876  1.00  0.00    -0.192 N  
HETATM   22  H   UNL     1      -8.941  12.135  67.844  1.00  0.00     0.000 HD 
BRANCH  21  23
HETATM   23  C   UNL     1     -10.732  13.284  68.095  1.00  0.00    -0.249 C  
BRANCH  23  24
HETATM   24  C   UNL     1     -11.007  14.097  66.842  1.00  0.00    -0.300 A  
HETATM   25  N   UNL     1     -10.310  15.245  66.693  1.00  0.00    -0.273 NA 
HETATM   26  C   UNL     1     -10.522  15.943  65.561  1.00  0.00    -0.404 A  
HETATM   27  N   UNL     1     -11.910  13.638  65.945  1.00  0.00    -0.359 NA 
HETATM   28  C   UNL     1     -12.072  14.374  64.828  1.00  0.00    -0.452 A  
HETATM   29  C   UNL     1     -11.398  15.548  64.581  1.00  0.00    -0.363 A  
ENDBRANCH  23  24
ENDBRANCH  21  23
ENDBRANCH  14  19
BRANCH  17  30
HETATM   30  N   UNL     1      -7.423   6.391  66.464  1.00  0.00    -0.084 NA 
HETATM   31  C   UNL     1      -7.141   4.047  66.230  1.00  0.00    -0.064 C  
HETATM   32  C   UNL     1      -6.834   6.220  65.155  1.00  0.00    -0.047 C  
HETATM   33  C   UNL     1      -7.417   5.160  67.254  1.00  0.00    -0.083 C  
HETATM   34  C   UNL     1      -6.968   4.727  64.876  1.00  0.00    -0.061 C  
BRANCH  33  35
HETATM   35  C   UNL     1      -6.312   5.234  68.327  1.00  0.00    -0.035 C  
HETATM   36  O   UNL     1      -5.142   4.517  67.924  1.00  0.00    -0.006 OA 
HETATM   37  H   UNL     1      -4.461   4.562  68.585  1.00  0.00     0.000 HD 
ENDBRANCH  33  35
ENDBRANCH  17  30
ENDBRANCH  11  13
ENDBRANCH  10  11
ENDBRANCH   7  10
ENDBRANCH   2   3
TORSDOF 9
ENDMDL
MODEL      179
REMARK 921   NORMALIZED FREE ENERGY PREDICTED BY IDOCK:   -4.61 KCAL/MOL
REMARK 922        TOTAL FREE ENERGY PREDICTED BY IDOCK:   -8.57 KCAL/MOL
REMARK 923 INTER-LIGAND FREE ENERGY PREDICTED BY IDOCK:   -8.18 KCAL/MOL
REMARK 924 INTRA-LIGAND FREE ENERGY PREDICTED BY IDOCK:   -0.39 KCAL/MOL
REMARK 927      BINDING AFFINITY PREDICTED BY RF-SCORE:    0.00 PKD
ROOT
HETATM    1  C   UNL     1      -9.775  19.148  67.443  1.00  0.00    -0.320 C  
HETATM    2  O   UNL     1      -9.538  18.550  68.709  1.00  0.00    -0.345 OA 
ENDROOT
BRANCH   2   3
HETATM    3  C   UNL     1      -8.903  17.336  68.716  1.00  0.00    -0.233 A  
HETATM    4  C   UNL     1      -9.597  16.252  69.276  1.00  0.00    -0.220 A  
HETATM    5 CL   UNL     1     -11.144  16.463  70.023  1.00  0.00    -0.348 Cl 
HETATM    6  C   UNL     1      -9.051  14.963  69.261  1.00  0.00    -0.097 A  
HETATM    7  C   UNL     1      -7.803  14.729  68.670  1.00  0.00    -0.140 A  
HETATM    8  C   UNL     1      -7.645  17.105  68.153  1.00  0.00    -0.208 A  
HETATM    9  C   UNL     1      -7.098  15.816  68.138  1.00  0.00    -0.123 A  
BRANCH   7  10
HETATM   10  C   UNL     1      -7.207  13.339  68.652  1.00  0.00    -0.106 C  
BRANCH  10  11
HETATM   11  N   UNL     1      -8.248  12.405  69.042  1.00  0.00    -0.327 NA 
HETATM   12  H   UNL     1      -8.328  12.049  69.994  1.00  0.00     0.000 HD 
BRANCH  11  13
HETATM   13  C   UNL     1      -9.139  12.019  68.022  1.00  0.00    -0.188 A  
HETATM   14  C   UNL     1      -9.672  10.739  68.026  1.00  0.00    -0.174 A  
HETATM   15  C   UNL     1     -10.566  10.467  67.017  1.00  0.00    -0.253 A  
HETATM   16  N   UNL     1      -9.501  12.932  67.086  1.00  0.00    -0.221 NA 
HETATM   17  C   UNL     1     -10.399  12.588  66.141  1.00  0.00    -0.253 A  
HETATM   18  N   UNL     1     -10.926  11.359  66.068  1.00  0.00    -0.264 NA 
BRANCH  14  19
HETATM   19  C   UNL     1      -9.342   9.660  68.984  1.00  0.00    -0.159 C  
HETATM   20  O   UNL     1      -8.218   9.608  69.469  1.00  0.00    -0.109 OA 
HETATM   21  N   UNL     1     -10.341   8.775  69.315  1.00  0.00    -0.212 N  
HETATM   22  H   UNL     1     -11.271   8.910  68.917  1.00  0.00     0.000 HD 
BRANCH  21  23
HETATM   23  C   UNL     1     -10.117   7.651  70.212  1.00  0.00    -0.198 C  
BRANCH  23  24
HETATM   24  C   UNL     1      -9.989   6.304  69.523  1.00  0.00    -0.164 A  
HETATM   25  N   UNL     1     -10.135   6.288  68.180  1.00  0.00    -0.141 NA 
HETATM   26  C   UNL     1      -9.977   5.101  67.564  1.00  0.00    -0.174 A  
HETATM   27  N   UNL     1      -9.726   5.206  70.269  1.00  0.00    -0.186 NA 
HETATM   28  C   UNL     1      -9.569   4.048  69.596  1.00  0.00    -0.200 A  
HETATM   29  C   UNL     1      -9.685   3.936  68.230  1.00  0.00    -0.119 A  
ENDBRANCH  23  24
ENDBRANCH  21  23
ENDBRANCH  14  19
BRANCH  17  30
HETATM   30  N   UNL     1     -10.789  13.514  65.215  1.00  0.00    -0.299 NA 
HETATM   31  C   UNL     1     -12.410  14.991  64.310  1.00  0.00    -0.247 C  
HETATM   32  C   UNL     1     -10.072  14.747  64.978  1.00  0.00    -0.273 C  
HETATM   33  C   UNL     1     -12.126  13.512  64.623  1.00  0.00    -0.409 C  
HETATM   34  C   UNL     1     -11.170  15.775  64.723  1.00  0.00    -0.375 C  
BRANCH  33  35
HETATM   35  C   UNL     1     -12.131  12.648  63.345  1.00  0.00    -0.525 C  
HETATM   36  O   UNL     1     -10.803  12.294  62.948  1.00  0.00    -0.566 OA 
HETATM   37  H   UNL     1     -10.806  11.762  62.161  1.00  0.00     0.000 HD 
ENDBRANCH  33  35
ENDBRANCH  17  30
ENDBRANCH  11  13
ENDBRANCH  10  11
ENDBRANCH   7  10
ENDBRANCH   2   3
TORSDOF 9
ENDMDL
MODEL      180
REMARK 921   NORMALIZED FREE ENERGY PREDICTED BY IDOCK:   -4.57 KCAL/MOL
REMARK 922        TOTAL FREE ENERGY PREDICTED BY IDOCK:   -8.50 KCAL/MOL
REMARK 923 INTER-LIGAND FREE ENERGY PREDICTED BY IDOCK:   -8.57 KCAL/MOL
REMARK 924 INTRA-LIGAND FREE ENERGY PREDICTED BY IDOCK:    0.07 KCAL/MOL
REMARK 927      BINDING AFFINITY PREDICTED BY RF-SCORE:    0.00 PKD
ROOT
HETATM    1  C   UNL     1     -13.493   8.936  72.589  1.00  0.00    -0.330 C  
HETATM    2  O   UNL     1     -13.618  10.338  72.399  1.00  0.00    -0.275 OA 
ENDROOT
BRANCH   2   3
HETATM    3  C   UNL     1     -12.939  10.887  71.344  1.00  0.00    -0.424 A  
HETATM    4  C   UNL     1     -12.862  12.288  71.289  1.00  0.00    -0.239 A  
HETATM    5 CL   UNL     1     -13.683  13.280  72.446  1.00  0.00    -0.700 Cl 
HETATM    6  C   UNL     1     -12.129  12.929  70.284  1.00  0.00    -0.377 A  
HETATM    7  C   UNL     1     -11.443  12.180  69.319  1.00  0.00    -0.363 A  
HETATM    8  C   UNL     1     -12.278  10.142  70.363  1.00  0.00    -0.300 A  
HETATM    9  C   UNL     1     -11.545  10.783  69.357  1.00  0.00    -0.380 A  
BRANCH   7  10
HETATM   10  C   UNL     1     -10.651  12.867  68.230  1.00  0.00    -0.246 C  
BRANCH  10  11
HETATM   11  N   UNL     1     -10.449  11.909  67.157  1.00  0.00    -0.217 NA 
HETATM   12  H   UNL     1     -11.014  11.919  66.307  1.00  0.00     0.000 HD 
BRANCH  11  13
HETATM   13  C   UNL     1      -9.425  10.963  67.362  1.00  0.00    -0.155 A  
HETATM   14  C   UNL     1      -8.160  11.394  67.732  1.00  0.00    -0.121 A  
HETATM   15  C   UNL     1      -7.238  10.398  67.952  1.00  0.00    -0.085 A  
HETATM   16  N   UNL     1      -9.718   9.644  67.248  1.00  0.00    -0.160 NA 
HETATM   17  C   UNL     1      -8.758   8.731  67.500  1.00  0.00    -0.134 A  
HETATM   18  N   UNL     1      -7.507   9.080  67.828  1.00  0.00    -0.085 NA 
BRANCH  14  19
HETATM   19  C   UNL     1      -7.724  12.801  67.874  1.00  0.00    -0.143 C  
HETATM   20  O   UNL     1      -7.254  13.386  66.905  1.00  0.00     0.151 OA 
HETATM   21  N   UNL     1      -7.902  13.403  69.097  1.00  0.00    -0.322 N  
HETATM   22  H   UNL     1      -8.352  12.875  69.845  1.00  0.00     0.000 HD 
BRANCH  21  23
HETATM   23  C   UNL     1      -7.470  14.767  69.362  1.00  0.00    -0.147 C  
BRANCH  23  24
HETATM   24  C   UNL     1      -8.507  15.833  69.054  1.00  0.00    -0.242 A  
HETATM   25  N   UNL     1      -8.146  16.804  68.187  1.00  0.00    -0.191 NA 
HETATM   26  C   UNL     1      -9.080  17.724  67.880  1.00  0.00    -0.259 A  
HETATM   27  N   UNL     1      -9.725  15.755  69.639  1.00  0.00    -0.274 NA 
HETATM   28  C   UNL     1     -10.621  16.698  69.285  1.00  0.00    -0.343 A  
HETATM   29  C   UNL     1     -10.350  17.716  68.402  1.00  0.00    -0.375 A  
ENDBRANCH  23  24
ENDBRANCH  21  23
ENDBRANCH  14  19
BRANCH  17  30
HETATM   30  N   UNL     1      -9.056   7.400  67.415  1.00  0.00    -0.121 NA 
HETATM   31  C   UNL     1     -10.499   5.632  66.767  1.00  0.00    -0.353 C  
HETATM   32  C   UNL     1      -8.191   6.435  66.775  1.00  0.00    -0.110 C  
HETATM   33  C   UNL     1     -10.403   6.883  67.655  1.00  0.00    -0.205 C  
HETATM   34  C   UNL     1      -9.150   5.480  66.072  1.00  0.00    -0.162 C  
BRANCH  33  35
HETATM   35  C   UNL     1     -10.571   6.536  69.148  1.00  0.00    -0.243 C  
HETATM   36  O   UNL     1     -11.943   6.595  69.549  1.00  0.00    -0.642 OA 
HETATM   37  H   UNL     1     -12.048   6.382  70.468  1.00  0.00     0.000 HD 
ENDBRANCH  33  35
ENDBRANCH  17  30
ENDBRANCH  11  13
ENDBRANCH  10  11
ENDBRANCH   7  10
ENDBRANCH   2   3
TORSDOF 9
ENDMDL
MODEL      181
REMARK 921   NORMALIZED FREE ENERGY PREDICTED BY IDOCK:   -4.56 KCAL/MOL
REMARK 922        TOTAL FREE ENERGY PREDICTED BY IDOCK:   -8.49 KCAL/MOL
REMARK 923 INTER-LIGAND FREE ENERGY PREDICTED BY IDOCK:   -6.50 KCAL/MOL
REMARK 924 INTRA-LIGAND FREE ENERGY PREDICTED BY IDOCK:   -1.98 KCAL/MOL
REMARK 927      BINDING AFFINITY PREDICTED BY RF-SCORE:    0.00 PKD
ROOT
HETATM    1  C   UNL     1      -5.756   5.863  68.676  1.00  0.00    -0.012 C  
HETATM    2  O   UNL     1      -6.862   6.695  68.358  1.00  0.00    -0.068 OA 
ENDROOT
BRANCH   2   3
HETATM    3  C   UNL     1      -6.605   8.027  68.167  1.00  0.00    -0.056 A  
HETATM    4  C   UNL     1      -6.904   8.565  66.905  1.00  0.00    -0.069 A  
HETATM    5 CL   UNL     1      -7.474   7.564  65.613  1.00  0.00    -0.080 Cl 
HETATM    6  C   UNL     1      -6.738   9.930  66.647  1.00  0.00    -0.080 A  
HETATM    7  C   UNL     1      -6.281  10.791  67.653  1.00  0.00    -0.052 A  
HETATM    8  C   UNL     1      -6.121   8.883  69.160  1.00  0.00    -0.042 A  
HETATM    9  C   UNL     1      -5.953  10.249  68.902  1.00  0.00    -0.040 A  
BRANCH   7  10
HETATM   10  C   UNL     1      -6.096  12.267  67.379  1.00  0.00    -0.153 C  
BRANCH  10  11
HETATM   11  N   UNL     1      -7.296  12.750  66.719  1.00  0.00    -0.300 NA 
HETATM   12  H   UNL     1      -7.615  12.369  65.828  1.00  0.00     0.000 HD 
BRANCH  11  13
HETATM   13  C   UNL     1      -7.994  13.776  67.386  1.00  0.00    -0.162 A  
HETATM   14  C   UNL     1      -9.168  13.479  68.060  1.00  0.00    -0.209 A  
HETATM   15  C   UNL     1      -9.755  14.535  68.717  1.00  0.00    -0.210 A  
HETATM   16  N   UNL     1      -7.466  15.026  67.400  1.00  0.00    -0.198 NA 
HETATM   17  C   UNL     1      -8.097  16.000  68.084  1.00  0.00    -0.147 A  
HETATM   18  N   UNL     1      -9.253  15.790  68.728  1.00  0.00    -0.202 NA 
BRANCH  14  19
HETATM   19  C   UNL     1      -9.841  12.162  68.103  1.00  0.00    -0.207 C  
HETATM   20  O   UNL     1      -9.755  11.410  67.139  1.00  0.00    -0.180 OA 
HETATM   21  N   UNL     1     -10.512  11.827  69.255  1.00  0.00    -0.426 N  
HETATM   22  H   UNL     1     -10.496  12.477  70.042  1.00  0.00     0.000 HD 
BRANCH  21  23
HETATM   23  C   UNL     1     -11.244  10.577  69.392  1.00  0.00    -0.269 C  
BRANCH  23  24
HETATM   24  C   UNL     1     -10.767   9.681  70.522  1.00  0.00    -0.311 A  
HETATM   25  N   UNL     1      -9.443   9.689  70.790  1.00  0.00    -0.156 NA 
HETATM   26  C   UNL     1      -9.026   8.929  71.820  1.00  0.00    -0.133 A  
HETATM   27  N   UNL     1     -11.673   8.942  71.203  1.00  0.00    -0.287 NA 
HETATM   28  C   UNL     1     -11.197   8.208  72.229  1.00  0.00    -0.359 A  
HETATM   29  C   UNL     1      -9.870   8.163  72.585  1.00  0.00    -0.364 A  
ENDBRANCH  23  24
ENDBRANCH  21  23
ENDBRANCH  14  19
BRANCH  17  30
HETATM   30  N   UNL     1      -7.554  17.254  68.126  1.00  0.00    -0.204 NA 
HETATM   31  C   UNL     1      -7.774  19.607  68.334  1.00  0.00    -0.366 C  
HETATM   32  C   UNL     1      -6.523  17.638  69.064  1.00  0.00    -0.228 C  
HETATM   33  C   UNL     1      -8.183  18.401  67.472  1.00  0.00    -0.248 C  
HETATM   34  C   UNL     1      -6.882  19.070  69.448  1.00  0.00    -0.272 C  
BRANCH  33  35
HETATM   35  C   UNL     1      -7.659  18.530  66.027  1.00  0.00    -0.197 C  
HETATM   36  O   UNL     1      -6.504  17.714  65.814  1.00  0.00    -0.215 OA 
HETATM   37  H   UNL     1      -6.181  17.794  64.924  1.00  0.00     0.000 HD 
ENDBRANCH  33  35
ENDBRANCH  17  30
ENDBRANCH  11  13
ENDBRANCH  10  11
ENDBRANCH   7  10
ENDBRANCH   2   3
TORSDOF 9
ENDMDL
MODEL      182
REMARK 921   NORMALIZED FREE ENERGY PREDICTED BY IDOCK:   -4.44 KCAL/MOL
REMARK 922        TOTAL FREE ENERGY PREDICTED BY IDOCK:   -8.31 KCAL/MOL
REMARK 923 INTER-LIGAND FREE ENERGY PREDICTED BY IDOCK:   -6.87 KCAL/MOL
REMARK 924 INTRA-LIGAND FREE ENERGY PREDICTED BY IDOCK:   -1.43 KCAL/MOL
REMARK 927      BINDING AFFINITY PREDICTED BY RF-SCORE:    0.00 PKD
ROOT
HETATM    1  C   UNL     1     -13.310  13.293  71.873  1.00  0.00    -0.451 C  
HETATM    2  O   UNL     1     -13.645  11.916  71.979  1.00  0.00    -0.339 OA 
ENDROOT
BRANCH   2   3
HETATM    3  C   UNL     1     -12.767  11.018  71.430  1.00  0.00    -0.429 A  
HETATM    4  C   UNL     1     -12.924   9.669  71.785  1.00  0.00    -0.420 A  
HETATM    5 CL   UNL     1     -14.106   9.176  72.949  1.00  0.00    -0.201 Cl 
HETATM    6  C   UNL     1     -12.116   8.677  71.217  1.00  0.00    -0.333 A  
HETATM    7  C   UNL     1     -11.142   9.014  70.269  1.00  0.00    -0.263 A  
HETATM    8  C   UNL     1     -11.775  11.355  70.505  1.00  0.00    -0.296 A  
HETATM    9  C   UNL     1     -10.966  10.363  69.937  1.00  0.00    -0.364 A  
BRANCH   7  10
HETATM   10  C   UNL     1     -10.264   7.947  69.653  1.00  0.00    -0.207 C  
BRANCH  10  11
HETATM   11  N   UNL     1      -8.905   8.457  69.618  1.00  0.00    -0.140 NA 
HETATM   12  H   UNL     1      -8.468   8.893  70.430  1.00  0.00     0.000 HD 
BRANCH  11  13
HETATM   13  C   UNL     1      -8.226   8.313  68.392  1.00  0.00    -0.132 A  
HETATM   14  C   UNL     1      -7.299   7.295  68.238  1.00  0.00    -0.100 A  
HETATM   15  C   UNL     1      -6.719   7.206  66.994  1.00  0.00    -0.064 A  
HETATM   16  N   UNL     1      -8.540   9.145  67.367  1.00  0.00    -0.115 NA 
HETATM   17  C   UNL     1      -7.937   8.977  66.173  1.00  0.00    -0.103 A  
HETATM   18  N   UNL     1      -7.008   8.035  65.966  1.00  0.00    -0.057 NA 
BRANCH  14  19
HETATM   19  C   UNL     1      -6.868   6.340  69.284  1.00  0.00    -0.062 C  
HETATM   20  O   UNL     1      -5.678   6.247  69.560  1.00  0.00    -0.012 OA 
HETATM   21  N   UNL     1      -7.845   5.618  69.928  1.00  0.00    -0.086 N  
HETATM   22  H   UNL     1      -8.822   5.787  69.687  1.00  0.00     0.000 HD 
BRANCH  21  23
HETATM   23  C   UNL     1      -7.533   4.622  70.941  1.00  0.00    -0.056 C  
BRANCH  23  24
HETATM   24  C   UNL     1      -8.593   4.454  72.015  1.00  0.00    -0.112 A  
HETATM   25  N   UNL     1      -9.321   5.548  72.331  1.00  0.00    -0.144 NA 
HETATM   26  C   UNL     1     -10.291   5.389  73.251  1.00  0.00    -0.206 A  
HETATM   27  N   UNL     1      -8.765   3.240  72.586  1.00  0.00    -0.084 NA 
HETATM   28  C   UNL     1      -9.757   3.140  73.494  1.00  0.00    -0.103 A  
HETATM   29  C   UNL     1     -10.559   4.193  73.869  1.00  0.00    -0.299 A  
ENDBRANCH  23  24
ENDBRANCH  21  23
ENDBRANCH  14  19
BRANCH  17  30
HETATM   30  N   UNL     1      -8.272   9.794  65.129  1.00  0.00    -0.133 NA 
HETATM   31  C   UNL     1      -9.070  10.117  62.919  1.00  0.00    -0.299 C  
HETATM   32  C   UNL     1      -9.239  10.863  65.240  1.00  0.00    -0.210 C  
HETATM   33  C   UNL     1      -7.949   9.462  63.742  1.00  0.00    -0.142 C  
HETATM   34  C   UNL     1      -9.982  10.835  63.908  1.00  0.00    -0.404 C  
BRANCH  33  35
HETATM   35  C   UNL     1      -6.565  10.035  63.376  1.00  0.00    -0.135 C  
HETATM   36  O   UNL     1      -6.066  10.895  64.404  1.00  0.00    -0.371 OA 
HETATM   37  H   UNL     1      -5.214  11.249  64.179  1.00  0.00     0.000 HD 
ENDBRANCH  33  35
ENDBRANCH  17  30
ENDBRANCH  11  13
ENDBRANCH  10  11
ENDBRANCH   7  10
ENDBRANCH   2   3
TORSDOF 9
ENDMDL
MODEL      183
REMARK 921   NORMALIZED FREE ENERGY PREDICTED BY IDOCK:   -4.41 KCAL/MOL
REMARK 922        TOTAL FREE ENERGY PREDICTED BY IDOCK:   -8.26 KCAL/MOL
REMARK 923 INTER-LIGAND FREE ENERGY PREDICTED BY IDOCK:   -6.50 KCAL/MOL
REMARK 924 INTRA-LIGAND FREE ENERGY PREDICTED BY IDOCK:   -1.76 KCAL/MOL
REMARK 927      BINDING AFFINITY PREDICTED BY RF-SCORE:    0.00 PKD
ROOT
HETATM    1  C   UNL     1      -5.484  13.449  67.705  1.00  0.00    -0.085 C  
HETATM    2  O   UNL     1      -5.461  12.100  67.262  1.00  0.00    -0.111 OA 
ENDROOT
BRANCH   2   3
HETATM    3  C   UNL     1      -6.169  11.189  68.001  1.00  0.00    -0.049 A  
HETATM    4  C   UNL     1      -6.481   9.966  67.386  1.00  0.00    -0.068 A  
HETATM    5 CL   UNL     1      -6.082   9.665  65.729  1.00  0.00    -0.060 Cl 
HETATM    6  C   UNL     1      -7.139   8.953  68.092  1.00  0.00    -0.078 A  
HETATM    7  C   UNL     1      -7.487   9.138  69.437  1.00  0.00    -0.077 A  
HETATM    8  C   UNL     1      -6.543  11.381  69.334  1.00  0.00    -0.119 A  
HETATM    9  C   UNL     1      -7.203  10.369  70.041  1.00  0.00    -0.143 A  
BRANCH   7  10
HETATM   10  C   UNL     1      -8.201   8.048  70.205  1.00  0.00    -0.120 C  
BRANCH  10  11
HETATM   11  N   UNL     1      -9.522   7.887  69.623  1.00  0.00    -0.160 NA 
HETATM   12  H   UNL     1      -9.755   7.101  69.015  1.00  0.00     0.000 HD 
BRANCH  11  13
HETATM   13  C   UNL     1     -10.463   8.884  69.950  1.00  0.00    -0.214 A  
HETATM   14  C   UNL     1     -11.186   8.782  71.127  1.00  0.00    -0.339 A  
HETATM   15  C   UNL     1     -12.048   9.823  71.383  1.00  0.00    -0.400 A  
HETATM   16  N   UNL     1     -10.597   9.953  69.126  1.00  0.00    -0.210 NA 
HETATM   17  C   UNL     1     -11.453  10.940  69.461  1.00  0.00    -0.301 A  
HETATM   18  N   UNL     1     -12.207  10.888  70.567  1.00  0.00    -0.336 NA 
BRANCH  14  19
HETATM   19  C   UNL     1     -11.133   7.661  72.092  1.00  0.00    -0.267 C  
HETATM   20  O   UNL     1     -10.919   7.895  73.275  1.00  0.00    -0.334 OA 
HETATM   21  N   UNL     1     -11.362   6.394  71.610  1.00  0.00    -0.277 N  
HETATM   22  H   UNL     1     -11.590   6.277  70.622  1.00  0.00     0.000 HD 
BRANCH  21  23
HETATM   23  C   UNL     1     -11.292   5.215  72.459  1.00  0.00    -0.122 C  
BRANCH  23  24
HETATM   24  C   UNL     1     -10.043   4.372  72.273  1.00  0.00    -0.189 A  
HETATM   25  N   UNL     1      -9.424   4.452  71.075  1.00  0.00    -0.149 NA 
HETATM   26  C   UNL     1      -8.292   3.738  70.925  1.00  0.00    -0.066 A  
HETATM   27  N   UNL     1      -9.609   3.605  73.300  1.00  0.00    -0.108 NA 
HETATM   28  C   UNL     1      -8.465   2.921  73.094  1.00  0.00    -0.079 A  
HETATM   29  C   UNL     1      -7.758   2.950  71.915  1.00  0.00    -0.053 A  
ENDBRANCH  23  24
ENDBRANCH  21  23
ENDBRANCH  14  19
BRANCH  17  30
HETATM   30  N   UNL     1     -11.570  12.034  68.650  1.00  0.00    -0.294 NA 
HETATM   31  C   UNL     1     -10.679  14.013  67.691  1.00  0.00    -0.261 C  
HETATM   32  C   UNL     1     -11.906  11.946  67.247  1.00  0.00    -0.148 C  
HETATM   33  C   UNL     1     -11.046  13.346  69.027  1.00  0.00    -0.249 C  
HETATM   34  C   UNL     1     -11.055  13.027  66.589  1.00  0.00    -0.318 C  
BRANCH  33  35
HETATM   35  C   UNL     1     -12.129  14.143  69.783  1.00  0.00    -0.354 C  
HETATM   36  O   UNL     1     -12.248  13.707  71.140  1.00  0.00    -0.367 OA 
HETATM   37  H   UNL     1     -12.915  14.198  71.606  1.00  0.00     0.000 HD 
ENDBRANCH  33  35
ENDBRANCH  17  30
ENDBRANCH  11  13
ENDBRANCH  10  11
ENDBRANCH   7  10
ENDBRANCH   2   3
TORSDOF 9
ENDMDL
MODEL      184
REMARK 921   NORMALIZED FREE ENERGY PREDICTED BY IDOCK:   -4.39 KCAL/MOL
REMARK 922        TOTAL FREE ENERGY PREDICTED BY IDOCK:   -8.23 KCAL/MOL
REMARK 923 INTER-LIGAND FREE ENERGY PREDICTED BY IDOCK:   -6.97 KCAL/MOL
REMARK 924 INTRA-LIGAND FREE ENERGY PREDICTED BY IDOCK:   -1.27 KCAL/MOL
REMARK 927      BINDING AFFINITY PREDICTED BY RF-SCORE:    0.00 PKD
ROOT
HETATM    1  C   UNL     1      -8.033   3.251  68.989  1.00  0.00    -0.053 C  
HETATM    2  O   UNL     1      -8.343   3.567  67.639  1.00  0.00    -0.087 OA 
ENDROOT
BRANCH   2   3
HETATM    3  C   UNL     1      -8.864   4.810  67.394  1.00  0.00    -0.104 A  
HETATM    4  C   UNL     1      -7.965   5.819  67.013  1.00  0.00    -0.102 A  
HETATM    5 CL   UNL     1      -6.259   5.531  66.961  1.00  0.00    -0.033 Cl 
HETATM    6  C   UNL     1      -8.420   7.099  66.677  1.00  0.00    -0.121 A  
HETATM    7  C   UNL     1      -9.790   7.392  66.700  1.00  0.00    -0.263 A  
HETATM    8  C   UNL     1     -10.227   5.114  67.445  1.00  0.00    -0.224 A  
HETATM    9  C   UNL     1     -10.684   6.394  67.109  1.00  0.00    -0.433 A  
BRANCH   7  10
HETATM   10  C   UNL     1     -10.288   8.774  66.340  1.00  0.00    -0.099 C  
BRANCH  10  11
HETATM   11  N   UNL     1     -10.769   9.404  67.558  1.00  0.00    -0.382 NA 
HETATM   12  H   UNL     1     -11.733   9.719  67.661  1.00  0.00     0.000 HD 
BRANCH  11  13
HETATM   13  C   UNL     1      -9.819   9.552  68.588  1.00  0.00    -0.162 A  
HETATM   14  C   UNL     1      -8.892  10.580  68.521  1.00  0.00    -0.144 A  
HETATM   15  C   UNL     1      -8.034  10.673  69.592  1.00  0.00    -0.003 A  
HETATM   16  N   UNL     1      -9.872   8.716  69.654  1.00  0.00    -0.183 NA 
HETATM   17  C   UNL     1      -9.005   8.888  70.671  1.00  0.00    -0.199 A  
HETATM   18  N   UNL     1      -8.062   9.840  70.655  1.00  0.00    -0.249 NA 
BRANCH  14  19
HETATM   19  C   UNL     1      -8.732  11.541  67.406  1.00  0.00    -0.147 C  
HETATM   20  O   UNL     1      -7.702  11.528  66.744  1.00  0.00    -0.151 OA 
HETATM   21  N   UNL     1      -9.779  12.392  67.144  1.00  0.00    -0.204 N  
HETATM   22  H   UNL     1     -10.632  12.311  67.699  1.00  0.00     0.000 HD 
BRANCH  21  23
HETATM   23  C   UNL     1      -9.715  13.405  66.101  1.00  0.00    -0.250 C  
BRANCH  23  24
HETATM   24  C   UNL     1      -9.947  14.827  66.581  1.00  0.00    -0.264 A  
HETATM   25  N   UNL     1      -9.727  15.817  65.688  1.00  0.00    -0.340 NA 
HETATM   26  C   UNL     1      -9.976  17.074  66.100  1.00  0.00    -0.298 A  
HETATM   27  N   UNL     1     -10.368  15.032  67.850  1.00  0.00    -0.239 NA 
HETATM   28  C   UNL     1     -10.609  16.311  68.202  1.00  0.00    -0.307 A  
HETATM   29  C   UNL     1     -10.428  17.383  67.359  1.00  0.00    -0.336 A  
ENDBRANCH  23  24
ENDBRANCH  21  23
ENDBRANCH  14  19
BRANCH  17  30
HETATM   30  N   UNL     1      -9.074   8.067  71.762  1.00  0.00    -0.146 NA 
HETATM   31  C   UNL     1      -9.034   5.906  72.740  1.00  0.00    -0.123 C  
HETATM   32  C   UNL     1      -8.201   8.197  72.907  1.00  0.00    -0.175 C  
HETATM   33  C   UNL     1      -9.791   6.792  71.737  1.00  0.00    -0.163 C  
HETATM   34  C   UNL     1      -7.913   6.759  73.323  1.00  0.00    -0.109 C  
BRANCH  33  35
HETATM   35  C   UNL     1     -11.257   7.009  72.161  1.00  0.00    -0.256 C  
HETATM   36  O   UNL     1     -11.348   7.476  73.510  1.00  0.00    -0.620 OA 
HETATM   37  H   UNL     1     -12.251   7.610  73.772  1.00  0.00     0.000 HD 
ENDBRANCH  33  35
ENDBRANCH  17  30
ENDBRANCH  11  13
ENDBRANCH  10  11
ENDBRANCH   7  10
ENDBRANCH   2   3
TORSDOF 9
ENDMDL
MODEL      185
REMARK 921   NORMALIZED FREE ENERGY PREDICTED BY IDOCK:   -4.31 KCAL/MOL
REMARK 922        TOTAL FREE ENERGY PREDICTED BY IDOCK:   -8.10 KCAL/MOL
REMARK 923 INTER-LIGAND FREE ENERGY PREDICTED BY IDOCK:   -6.64 KCAL/MOL
REMARK 924 INTRA-LIGAND FREE ENERGY PREDICTED BY IDOCK:   -1.46 KCAL/MOL
REMARK 927      BINDING AFFINITY PREDICTED BY RF-SCORE:    0.00 PKD
ROOT
HETATM    1  C   UNL     1     -13.811   8.827  72.312  1.00  0.00    -0.447 C  
HETATM    2  O   UNL     1     -12.589   9.551  72.318  1.00  0.00    -0.342 OA 
ENDROOT
BRANCH   2   3
HETATM    3  C   UNL     1     -12.348  10.377  71.251  1.00  0.00    -0.401 A  
HETATM    4  C   UNL     1     -11.720   9.811  70.131  1.00  0.00    -0.130 A  
HETATM    5 CL   UNL     1     -11.174   8.169  70.138  1.00  0.00    -0.192 Cl 
HETATM    6  C   UNL     1     -11.500  10.566  68.973  1.00  0.00    -0.304 A  
HETATM    7  C   UNL     1     -11.919  11.901  68.906  1.00  0.00    -0.313 A  
HETATM    8  C   UNL     1     -12.740  11.717  71.193  1.00  0.00    -0.405 A  
HETATM    9  C   UNL     1     -12.520  12.473  70.035  1.00  0.00    -0.036 A  
BRANCH   7  10
HETATM   10  C   UNL     1     -11.683  12.722  67.658  1.00  0.00    -0.367 C  
BRANCH  10  11
HETATM   11  N   UNL     1     -10.375  12.368  67.135  1.00  0.00    -0.219 NA 
HETATM   12  H   UNL     1     -10.208  11.491  66.640  1.00  0.00     0.000 HD 
BRANCH  11  13
HETATM   13  C   UNL     1      -9.350  13.310  67.353  1.00  0.00    -0.217 A  
HETATM   14  C   UNL     1      -8.041  12.877  67.492  1.00  0.00    -0.181 A  
HETATM   15  C   UNL     1      -7.105  13.870  67.658  1.00  0.00    -0.177 A  
HETATM   16  N   UNL     1      -9.664  14.629  67.366  1.00  0.00    -0.217 NA 
HETATM   17  C   UNL     1      -8.682  15.539  67.516  1.00  0.00    -0.172 A  
HETATM   18  N   UNL     1      -7.401  15.188  67.689  1.00  0.00    -0.165 NA 
BRANCH  14  19
HETATM   19  C   UNL     1      -7.584  11.469  67.508  1.00  0.00    -0.121 C  
HETATM   20  O   UNL     1      -8.403  10.572  67.671  1.00  0.00    -0.114 OA 
HETATM   21  N   UNL     1      -6.246  11.232  67.300  1.00  0.00    -0.071 N  
HETATM   22  H   UNL     1      -5.628  12.022  67.114  1.00  0.00     0.000 HD 
BRANCH  21  23
HETATM   23  C   UNL     1      -5.680   9.892  67.337  1.00  0.00    -0.046 C  
BRANCH  23  24
HETATM   24  C   UNL     1      -5.708   9.227  68.702  1.00  0.00    -0.041 A  
HETATM   25  N   UNL     1      -5.152   9.911  69.727  1.00  0.00    -0.034 NA 
HETATM   26  C   UNL     1      -5.217   9.341  70.945  1.00  0.00    -0.030 A  
HETATM   27  N   UNL     1      -6.289   8.012  68.830  1.00  0.00    -0.039 NA 
HETATM   28  C   UNL     1      -6.332   7.497  70.075  1.00  0.00    -0.031 A  
HETATM   29  C   UNL     1      -5.806   8.124  71.180  1.00  0.00    -0.034 A  
ENDBRANCH  23  24
ENDBRANCH  21  23
ENDBRANCH  14  19
BRANCH  17  30
HETATM   30  N   UNL     1      -8.989  16.871  67.499  1.00  0.00    -0.205 NA 
HETATM   31  C   UNL     1      -8.541  19.098  66.813  1.00  0.00    -0.321 C  
HETATM   32  C   UNL     1     -10.266  17.383  67.053  1.00  0.00    -0.323 C  
HETATM   33  C   UNL     1      -7.967  17.912  67.605  1.00  0.00    -0.219 C  
HETATM   34  C   UNL     1      -9.915  18.668  66.310  1.00  0.00    -0.398 C  
BRANCH  33  35
HETATM   35  C   UNL     1      -7.740  18.272  69.087  1.00  0.00    -0.027 C  
HETATM   36  O   UNL     1      -6.738  19.283  69.232  1.00  0.00    -0.304 OA 
HETATM   37  H   UNL     1      -6.598  19.506  70.145  1.00  0.00     0.000 HD 
ENDBRANCH  33  35
ENDBRANCH  17  30
ENDBRANCH  11  13
ENDBRANCH  10  11
ENDBRANCH   7  10
ENDBRANCH   2   3
TORSDOF 9
ENDMDL
MODEL      186
REMARK 921   NORMALIZED FREE ENERGY PREDICTED BY IDOCK:   -4.29 KCAL/MOL
REMARK 922        TOTAL FREE ENERGY PREDICTED BY IDOCK:   -8.08 KCAL/MOL
REMARK 923 INTER-LIGAND FREE ENERGY PREDICTED BY IDOCK:   -6.63 KCAL/MOL
REMARK 924 INTRA-LIGAND FREE ENERGY PREDICTED BY IDOCK:   -1.45 KCAL/MOL
REMARK 927      BINDING AFFINITY PREDICTED BY RF-SCORE:    0.00 PKD
ROOT
HETATM    1  C   UNL     1      -6.491  20.922  68.032  1.00  0.00    -0.307 C  
HETATM    2  O   UNL     1      -5.290  20.165  67.965  1.00  0.00    -0.187 OA 
ENDROOT
BRANCH   2   3
HETATM    3  C   UNL     1      -5.415  18.801  67.933  1.00  0.00    -0.177 A  
HETATM    4  C   UNL     1      -5.602  18.145  69.160  1.00  0.00    -0.202 A  
HETATM    5 CL   UNL     1      -5.569  19.010  70.658  1.00  0.00    -0.228 Cl 
HETATM    6  C   UNL     1      -5.807  16.761  69.211  1.00  0.00    -0.168 A  
HETATM    7  C   UNL     1      -5.845  16.006  68.031  1.00  0.00    -0.135 A  
HETATM    8  C   UNL     1      -5.424  18.042  66.760  1.00  0.00    -0.167 A  
HETATM    9  C   UNL     1      -5.628  16.658  66.810  1.00  0.00    -0.027 A  
BRANCH   7  10
HETATM   10  C   UNL     1      -6.064  14.511  68.080  1.00  0.00    -0.153 C  
BRANCH  10  11
HETATM   11  N   UNL     1      -7.132  14.189  67.149  1.00  0.00    -0.382 NA 
HETATM   12  H   UNL     1      -7.313  14.750  66.317  1.00  0.00     0.000 HD 
BRANCH  11  13
HETATM   13  C   UNL     1      -7.901  13.052  67.467  1.00  0.00    -0.178 A  
HETATM   14  C   UNL     1      -9.104  13.206  68.136  1.00  0.00    -0.200 A  
HETATM   15  C   UNL     1      -9.806  12.045  68.365  1.00  0.00    -0.204 A  
HETATM   16  N   UNL     1      -7.470  11.833  67.057  1.00  0.00    -0.147 NA 
HETATM   17  C   UNL     1      -8.229  10.747  67.306  1.00  0.00    -0.121 A  
HETATM   18  N   UNL     1      -9.386  10.821  67.978  1.00  0.00    -0.147 NA 
BRANCH  14  19
HETATM   19  C   UNL     1      -9.667  14.479  68.641  1.00  0.00    -0.221 C  
HETATM   20  O   UNL     1      -9.484  14.795  69.811  1.00  0.00     0.075 OA 
HETATM   21  N   UNL     1     -10.348  15.272  67.750  1.00  0.00    -0.241 N  
HETATM   22  H   UNL     1     -10.414  14.975  66.776  1.00  0.00     0.000 HD 
BRANCH  21  23
HETATM   23  C   UNL     1     -10.978  16.522  68.146  1.00  0.00    -0.336 C  
BRANCH  23  24
HETATM   24  C   UNL     1     -10.430  17.758  67.454  1.00  0.00    -0.364 A  
HETATM   25  N   UNL     1     -11.154  18.893  67.568  1.00  0.00    -0.235 NA 
HETATM   26  C   UNL     1     -10.646  19.999  66.992  1.00  0.00    -0.322 A  
HETATM   27  N   UNL     1      -9.260  17.670  66.781  1.00  0.00    -0.263 NA 
HETATM   28  C   UNL     1      -8.797  18.812  66.233  1.00  0.00    -0.233 A  
HETATM   29  C   UNL     1      -9.455  20.017  66.308  1.00  0.00    -0.485 A  
ENDBRANCH  23  24
ENDBRANCH  21  23
ENDBRANCH  14  19
BRANCH  17  30
HETATM   30  N   UNL     1      -7.814   9.521  66.868  1.00  0.00    -0.101 NA 
HETATM   31  C   UNL     1      -6.232   7.753  66.838  1.00  0.00    -0.053 C  
HETATM   32  C   UNL     1      -8.603   8.318  67.019  1.00  0.00    -0.123 C  
HETATM   33  C   UNL     1      -6.421   9.245  66.519  1.00  0.00    -0.067 C  
HETATM   34  C   UNL     1      -7.577   7.235  67.336  1.00  0.00    -0.105 C  
BRANCH  33  35
HETATM   35  C   UNL     1      -6.188   9.543  65.024  1.00  0.00    -0.078 C  
HETATM   36  O   UNL     1      -6.921  10.694  64.599  1.00  0.00    -0.352 OA 
HETATM   37  H   UNL     1      -6.779  10.878  63.678  1.00  0.00     0.000 HD 
ENDBRANCH  33  35
ENDBRANCH  17  30
ENDBRANCH  11  13
ENDBRANCH  10  11
ENDBRANCH   7  10
ENDBRANCH   2   3
TORSDOF 9
ENDMDL
MODEL      187
REMARK 921   NORMALIZED FREE ENERGY PREDICTED BY IDOCK:   -4.28 KCAL/MOL
REMARK 922        TOTAL FREE ENERGY PREDICTED BY IDOCK:   -8.05 KCAL/MOL
REMARK 923 INTER-LIGAND FREE ENERGY PREDICTED BY IDOCK:   -6.44 KCAL/MOL
REMARK 924 INTRA-LIGAND FREE ENERGY PREDICTED BY IDOCK:   -1.62 KCAL/MOL
REMARK 927      BINDING AFFINITY PREDICTED BY RF-SCORE:    0.00 PKD
ROOT
HETATM    1  C   UNL     1      -5.846   6.964  63.041  1.00  0.00    -0.039 C  
HETATM    2  O   UNL     1      -5.799   7.247  64.433  1.00  0.00    -0.036 OA 
ENDROOT
BRANCH   2   3
HETATM    3  C   UNL     1      -6.972   7.138  65.131  1.00  0.00    -0.052 A  
HETATM    4  C   UNL     1      -7.840   8.240  65.105  1.00  0.00    -0.120 A  
HETATM    5 CL   UNL     1      -7.399   9.715  64.314  1.00  0.00    -0.116 Cl 
HETATM    6  C   UNL     1      -9.090   8.187  65.734  1.00  0.00    -0.139 A  
HETATM    7  C   UNL     1      -9.504   7.021  66.390  1.00  0.00    -0.176 A  
HETATM    8  C   UNL     1      -7.375   5.985  65.812  1.00  0.00    -0.076 A  
HETATM    9  C   UNL     1      -8.625   5.931  66.441  1.00  0.00    -0.127 A  
BRANCH   7  10
HETATM   10  C   UNL     1     -10.852   6.957  67.073  1.00  0.00    -0.366 C  
BRANCH  10  11
HETATM   11  N   UNL     1     -11.110   8.257  67.666  1.00  0.00    -0.397 NA 
HETATM   12  H   UNL     1     -11.734   8.937  67.232  1.00  0.00     0.000 HD 
BRANCH  11  13
HETATM   13  C   UNL     1     -10.445   8.522  68.880  1.00  0.00    -0.188 A  
HETATM   14  C   UNL     1      -9.833   9.750  69.071  1.00  0.00    -0.183 A  
HETATM   15  C   UNL     1      -9.247   9.933  70.302  1.00  0.00    -0.068 A  
HETATM   16  N   UNL     1     -10.469   7.583  69.859  1.00  0.00    -0.224 NA 
HETATM   17  C   UNL     1      -9.885   7.851  71.044  1.00  0.00    -0.170 A  
HETATM   18  N   UNL     1      -9.247   9.004  71.283  1.00  0.00    -0.252 NA 
BRANCH  14  19
HETATM   19  C   UNL     1      -9.733  10.841  68.075  1.00  0.00    -0.162 C  
HETATM   20  O   UNL     1      -8.645  11.364  67.864  1.00  0.00    -0.131 OA 
HETATM   21  N   UNL     1     -10.876  11.195  67.401  1.00  0.00    -0.249 N  
HETATM   22  H   UNL     1     -11.737  10.679  67.586  1.00  0.00     0.000 HD 
BRANCH  21  23
HETATM   23  C   UNL     1     -10.903  12.281  66.433  1.00  0.00    -0.264 C  
BRANCH  23  24
HETATM   24  C   UNL     1     -10.786  13.670  67.033  1.00  0.00    -0.278 A  
HETATM   25  N   UNL     1     -11.440  13.892  68.194  1.00  0.00    -0.293 NA 
HETATM   26  C   UNL     1     -11.300  15.111  68.749  1.00  0.00    -0.300 A  
HETATM   27  N   UNL     1     -10.036  14.600  66.397  1.00  0.00    -0.268 NA 
HETATM   28  C   UNL     1      -9.925  15.798  67.006  1.00  0.00    -0.239 A  
HETATM   29  C   UNL     1     -10.542  16.112  68.194  1.00  0.00    -0.290 A  
ENDBRANCH  23  24
ENDBRANCH  21  23
ENDBRANCH  14  19
BRANCH  17  30
HETATM   30  N   UNL     1      -9.933   6.920  72.044  1.00  0.00    -0.167 NA 
HETATM   31  C   UNL     1      -8.930   5.772  73.861  1.00  0.00    -0.126 C  
HETATM   32  C   UNL     1     -10.939   6.925  73.082  1.00  0.00    -0.263 C  
HETATM   33  C   UNL     1      -8.801   6.048  72.354  1.00  0.00    -0.133 C  
HETATM   34  C   UNL     1     -10.184   6.498  74.336  1.00  0.00    -0.334 C  
BRANCH  33  35
HETATM   35  C   UNL     1      -8.899   4.750  71.527  1.00  0.00    -0.129 C  
HETATM   36  O   UNL     1      -8.350   3.635  72.235  1.00  0.00    -0.082 OA 
HETATM   37  H   UNL     1      -8.410   2.835  71.726  1.00  0.00     0.000 HD 
ENDBRANCH  33  35
ENDBRANCH  17  30
ENDBRANCH  11  13
ENDBRANCH  10  11
ENDBRANCH   7  10
ENDBRANCH   2   3
TORSDOF 9
ENDMDL
MODEL      188
REMARK 921   NORMALIZED FREE ENERGY PREDICTED BY IDOCK:   -4.26 KCAL/MOL
REMARK 922        TOTAL FREE ENERGY PREDICTED BY IDOCK:   -8.04 KCAL/MOL
REMARK 923 INTER-LIGAND FREE ENERGY PREDICTED BY IDOCK:   -7.08 KCAL/MOL
REMARK 924 INTRA-LIGAND FREE ENERGY PREDICTED BY IDOCK:   -0.95 KCAL/MOL
REMARK 927      BINDING AFFINITY PREDICTED BY RF-SCORE:    0.00 PKD
ROOT
HETATM    1  C   UNL     1     -13.690  13.318  72.349  1.00  0.00    -0.578 C  
HETATM    2  O   UNL     1     -13.927  11.930  72.160  1.00  0.00     0.018 OA 
ENDROOT
BRANCH   2   3
HETATM    3  C   UNL     1     -12.981  11.227  71.461  1.00  0.00    -0.415 A  
HETATM    4  C   UNL     1     -12.938   9.838  71.660  1.00  0.00    -0.419 A  
HETATM    5 CL   UNL     1     -13.963   9.062  72.818  1.00  0.00    -0.383 Cl 
HETATM    6  C   UNL     1     -12.050   9.035  70.934  1.00  0.00    -0.247 A  
HETATM    7  C   UNL     1     -11.195   9.605  69.982  1.00  0.00    -0.271 A  
HETATM    8  C   UNL     1     -12.107  11.797  70.531  1.00  0.00    -0.439 A  
HETATM    9  C   UNL     1     -11.218  10.994  69.805  1.00  0.00    -0.339 A  
BRANCH   7  10
HETATM   10  C   UNL     1     -10.232   8.743  69.196  1.00  0.00    -0.207 C  
BRANCH  10  11
HETATM   11  N   UNL     1      -9.160   9.599  68.719  1.00  0.00    -0.132 NA 
HETATM   12  H   UNL     1      -8.422   9.938  69.336  1.00  0.00     0.000 HD 
BRANCH  11  13
HETATM   13  C   UNL     1      -9.201   9.930  67.350  1.00  0.00    -0.134 A  
HETATM   14  C   UNL     1      -8.506   9.153  66.437  1.00  0.00    -0.129 A  
HETATM   15  C   UNL     1      -8.641   9.527  65.120  1.00  0.00    -0.162 A  
HETATM   16  N   UNL     1      -9.970  10.974  66.952  1.00  0.00    -0.191 NA 
HETATM   17  C   UNL     1     -10.061  11.262  65.638  1.00  0.00    -0.247 A  
HETATM   18  N   UNL     1      -9.389  10.573  64.706  1.00  0.00    -0.217 NA 
BRANCH  14  19
HETATM   19  C   UNL     1      -7.629   8.004  66.756  1.00  0.00    -0.094 C  
HETATM   20  O   UNL     1      -6.413   8.157  66.754  1.00  0.00    -0.054 OA 
HETATM   21  N   UNL     1      -8.233   6.812  67.077  1.00  0.00    -0.112 N  
HETATM   22  H   UNL     1      -9.252   6.770  67.114  1.00  0.00     0.000 HD 
BRANCH  21  23
HETATM   23  C   UNL     1      -7.470   5.607  67.365  1.00  0.00    -0.084 C  
BRANCH  23  24
HETATM   24  C   UNL     1      -6.973   4.861  66.139  1.00  0.00    -0.070 A  
HETATM   25  N   UNL     1      -7.523   5.201  64.953  1.00  0.00    -0.071 NA 
HETATM   26  C   UNL     1      -7.051   4.570  63.861  1.00  0.00    -0.049 A  
HETATM   27  N   UNL     1      -6.014   3.918  66.287  1.00  0.00    -0.026 NA 
HETATM   28  C   UNL     1      -5.575   3.328  65.157  1.00  0.00    -0.013 A  
HETATM   29  C   UNL     1      -6.064   3.618  63.904  1.00  0.00    -0.018 A  
ENDBRANCH  23  24
ENDBRANCH  21  23
ENDBRANCH  14  19
BRANCH  17  30
HETATM   30  N   UNL     1     -10.858  12.294  65.228  1.00  0.00    -0.284 NA 
HETATM   31  C   UNL     1     -11.165  14.364  64.112  1.00  0.00     0.048 C  
HETATM   32  C   UNL     1     -12.045  12.106  64.424  1.00  0.00    -0.357 C  
HETATM   33  C   UNL     1     -10.417  13.688  65.272  1.00  0.00    -0.351 C  
HETATM   34  C   UNL     1     -12.042  13.295  63.469  1.00  0.00    -0.550 C  
BRANCH  33  35
HETATM   35  C   UNL     1     -10.792  14.312  66.632  1.00  0.00    -0.301 C  
HETATM   36  O   UNL     1      -9.639  14.504  67.455  1.00  0.00    -0.206 OA 
HETATM   37  H   UNL     1      -9.869  14.888  68.293  1.00  0.00     0.000 HD 
ENDBRANCH  33  35
ENDBRANCH  17  30
ENDBRANCH  11  13
ENDBRANCH  10  11
ENDBRANCH   7  10
ENDBRANCH   2   3
TORSDOF 9
ENDMDL
MODEL      189
REMARK 921   NORMALIZED FREE ENERGY PREDICTED BY IDOCK:   -4.21 KCAL/MOL
REMARK 922        TOTAL FREE ENERGY PREDICTED BY IDOCK:   -7.95 KCAL/MOL
REMARK 923 INTER-LIGAND FREE ENERGY PREDICTED BY IDOCK:   -6.57 KCAL/MOL
REMARK 924 INTRA-LIGAND FREE ENERGY PREDICTED BY IDOCK:   -1.38 KCAL/MOL
REMARK 927      BINDING AFFINITY PREDICTED BY RF-SCORE:    0.00 PKD
ROOT
HETATM    1  C   UNL     1      -5.126   5.570  65.671  1.00  0.00    -0.009 C  
HETATM    2  O   UNL     1      -6.284   5.953  66.400  1.00  0.00    -0.031 OA 
ENDROOT
BRANCH   2   3
HETATM    3  C   UNL     1      -6.815   7.185  66.125  1.00  0.00    -0.057 A  
HETATM    4  C   UNL     1      -7.981   7.222  65.345  1.00  0.00    -0.125 A  
HETATM    5 CL   UNL     1      -8.658   5.780  64.670  1.00  0.00    -0.060 Cl 
HETATM    6  C   UNL     1      -8.628   8.434  65.075  1.00  0.00    -0.133 A  
HETATM    7  C   UNL     1      -8.128   9.635  65.594  1.00  0.00    -0.117 A  
HETATM    8  C   UNL     1      -6.301   8.388  66.618  1.00  0.00    -0.055 A  
HETATM    9  C   UNL     1      -6.947   9.601  66.348  1.00  0.00    -0.088 A  
BRANCH   7  10
HETATM   10  C   UNL     1      -8.820  10.948  65.305  1.00  0.00    -0.167 C  
BRANCH  10  11
HETATM   11  N   UNL     1      -8.550  11.846  66.414  1.00  0.00    -0.347 NA 
HETATM   12  H   UNL     1      -7.647  12.304  66.533  1.00  0.00     0.000 HD 
BRANCH  11  13
HETATM   13  C   UNL     1      -9.614  12.046  67.315  1.00  0.00    -0.183 A  
HETATM   14  C   UNL     1     -10.337  13.228  67.269  1.00  0.00    -0.247 A  
HETATM   15  C   UNL     1     -11.383  13.316  68.157  1.00  0.00    -0.288 A  
HETATM   16  N   UNL     1      -9.943  11.049  68.173  1.00  0.00    -0.172 NA 
HETATM   17  C   UNL     1     -10.996  11.210  68.999  1.00  0.00    -0.235 A  
HETATM   18  N   UNL     1     -11.716  12.339  69.030  1.00  0.00    -0.309 NA 
BRANCH  14  19
HETATM   19  C   UNL     1     -10.063  14.385  66.388  1.00  0.00    -0.286 C  
HETATM   20  O   UNL     1     -10.459  14.365  65.228  1.00  0.00    -0.339 OA 
HETATM   21  N   UNL     1      -9.398  15.457  66.933  1.00  0.00    -0.224 N  
HETATM   22  H   UNL     1      -9.147  15.431  67.922  1.00  0.00     0.000 HD 
BRANCH  21  23
HETATM   23  C   UNL     1      -9.039  16.629  66.148  1.00  0.00    -0.283 C  
BRANCH  23  24
HETATM   24  C   UNL     1      -7.672  17.211  66.464  1.00  0.00    -0.286 A  
HETATM   25  N   UNL     1      -7.492  18.525  66.204  1.00  0.00    -0.317 NA 
HETATM   26  C   UNL     1      -6.295  19.050  66.526  1.00  0.00    -0.187 A  
HETATM   27  N   UNL     1      -6.721  16.406  66.992  1.00  0.00    -0.202 NA 
HETATM   28  C   UNL     1      -5.546  16.991  67.301  1.00  0.00    -0.147 A  
HETATM   29  C   UNL     1      -5.275  18.322  67.087  1.00  0.00    -0.140 A  
ENDBRANCH  23  24
ENDBRANCH  21  23
ENDBRANCH  14  19
BRANCH  17  30
HETATM   30  N   UNL     1     -11.350  10.196  69.845  1.00  0.00    -0.265 NA 
HETATM   31  C   UNL     1     -11.215   9.100  71.944  1.00  0.00    -0.400 C  
HETATM   32  C   UNL     1     -12.721   9.899  70.194  1.00  0.00     0.248 C  
HETATM   33  C   UNL     1     -10.385   9.540  70.727  1.00  0.00    -0.306 C  
HETATM   34  C   UNL     1     -12.656   9.512  71.667  1.00  0.00    -0.476 C  
BRANCH  33  35
HETATM   35  C   UNL     1      -9.750   8.335  70.004  1.00  0.00    -0.176 C  
HETATM   36  O   UNL     1      -9.387   7.303  70.925  1.00  0.00    -0.159 OA 
HETATM   37  H   UNL     1      -8.996   6.561  70.480  1.00  0.00     0.000 HD 
ENDBRANCH  33  35
ENDBRANCH  17  30
ENDBRANCH  11  13
ENDBRANCH  10  11
ENDBRANCH   7  10
ENDBRANCH   2   3
TORSDOF 9
ENDMDL
MODEL      190
REMARK 921   NORMALIZED FREE ENERGY PREDICTED BY IDOCK:   -4.20 KCAL/MOL
REMARK 922        TOTAL FREE ENERGY PREDICTED BY IDOCK:   -7.94 KCAL/MOL
REMARK 923 INTER-LIGAND FREE ENERGY PREDICTED BY IDOCK:   -5.79 KCAL/MOL
REMARK 924 INTRA-LIGAND FREE ENERGY PREDICTED BY IDOCK:   -2.15 KCAL/MOL
REMARK 927      BINDING AFFINITY PREDICTED BY RF-SCORE:    0.00 PKD
ROOT
HETATM    1  C   UNL     1     -11.979  15.217  67.888  1.00  0.00    -0.057 C  
HETATM    2  O   UNL     1     -11.765  14.206  68.863  1.00  0.00    -0.292 OA 
ENDROOT
BRANCH   2   3
HETATM    3  C   UNL     1     -11.446  12.955  68.404  1.00  0.00    -0.312 A  
HETATM    4  C   UNL     1     -11.712  11.872  69.256  1.00  0.00    -0.328 A  
HETATM    5 CL   UNL     1     -12.316  12.115  70.860  1.00  0.00    -0.441 Cl 
HETATM    6  C   UNL     1     -11.482  10.556  68.839  1.00  0.00    -0.292 A  
HETATM    7  C   UNL     1     -10.995  10.295  67.552  1.00  0.00    -0.344 A  
HETATM    8  C   UNL     1     -10.933  12.694  67.130  1.00  0.00    -0.296 A  
HETATM    9  C   UNL     1     -10.702  11.377  66.713  1.00  0.00    -0.316 A  
BRANCH   7  10
HETATM   10  C   UNL     1     -10.742   8.875  67.096  1.00  0.00    -0.133 C  
BRANCH  10  11
HETATM   11  N   UNL     1      -9.336   8.762  66.753  1.00  0.00    -0.166 NA 
HETATM   12  H   UNL     1      -8.977   9.036  65.839  1.00  0.00     0.000 HD 
BRANCH  11  13
HETATM   13  C   UNL     1      -8.496   8.251  67.763  1.00  0.00    -0.131 A  
HETATM   14  C   UNL     1      -7.439   9.017  68.227  1.00  0.00    -0.083 A  
HETATM   15  C   UNL     1      -6.702   8.454  69.242  1.00  0.00    -0.046 A  
HETATM   16  N   UNL     1      -8.780   7.038  68.299  1.00  0.00    -0.128 NA 
HETATM   17  C   UNL     1      -8.017   6.568  69.306  1.00  0.00    -0.111 A  
HETATM   18  N   UNL     1      -6.960   7.241  69.778  1.00  0.00    -0.056 NA 
BRANCH  14  19
HETATM   19  C   UNL     1      -7.028  10.342  67.711  1.00  0.00    -0.083 C  
HETATM   20  O   UNL     1      -6.197  10.407  66.812  1.00  0.00    -0.063 OA 
HETATM   21  N   UNL     1      -7.634  11.452  68.251  1.00  0.00    -0.105 N  
HETATM   22  H   UNL     1      -8.359  11.323  68.957  1.00  0.00     0.000 HD 
BRANCH  21  23
HETATM   23  C   UNL     1      -7.277  12.804  67.850  1.00  0.00    -0.120 C  
BRANCH  23  24
HETATM   24  C   UNL     1      -6.585  13.624  68.925  1.00  0.00    -0.105 A  
HETATM   25  N   UNL     1      -6.646  14.968  68.803  1.00  0.00    -0.091 NA 
HETATM   26  C   UNL     1      -6.070  15.695  69.779  1.00  0.00    -0.160 A  
HETATM   27  N   UNL     1      -5.963  12.984  69.942  1.00  0.00    -0.130 NA 
HETATM   28  C   UNL     1      -5.414  13.764  70.894  1.00  0.00    -0.174 A  
HETATM   29  C   UNL     1      -5.437  15.139  70.863  1.00  0.00    -0.105 A  
ENDBRANCH  23  24
ENDBRANCH  21  23
ENDBRANCH  14  19
BRANCH  17  30
HETATM   30  N   UNL     1      -8.317   5.359  69.870  1.00  0.00    -0.098 NA 
HETATM   31  C   UNL     1      -9.258   3.185  69.745  1.00  0.00    -0.220 C  
HETATM   32  C   UNL     1      -7.322   4.493  70.461  1.00  0.00    -0.049 C  
HETATM   33  C   UNL     1      -9.592   4.682  69.637  1.00  0.00    -0.192 C  
HETATM   34  C   UNL     1      -7.773   3.088  70.076  1.00  0.00    -0.044 C  
BRANCH  33  35
HETATM   35  C   UNL     1     -10.617   5.115  70.704  1.00  0.00    -0.144 C  
HETATM   36  O   UNL     1     -11.456   6.171  70.226  1.00  0.00    -0.375 OA 
HETATM   37  H   UNL     1     -12.088   6.438  70.883  1.00  0.00     0.000 HD 
ENDBRANCH  33  35
ENDBRANCH  17  30
ENDBRANCH  11  13
ENDBRANCH  10  11
ENDBRANCH   7  10
ENDBRANCH   2   3
TORSDOF 9
ENDMDL
MODEL      191
REMARK 921   NORMALIZED FREE ENERGY PREDICTED BY IDOCK:   -4.20 KCAL/MOL
REMARK 922        TOTAL FREE ENERGY PREDICTED BY IDOCK:   -7.93 KCAL/MOL
REMARK 923 INTER-LIGAND FREE ENERGY PREDICTED BY IDOCK:   -6.40 KCAL/MOL
REMARK 924 INTRA-LIGAND FREE ENERGY PREDICTED BY IDOCK:   -1.54 KCAL/MOL
REMARK 927      BINDING AFFINITY PREDICTED BY RF-SCORE:    0.00 PKD
ROOT
HETATM    1  C   UNL     1      -6.382   5.870  63.821  1.00  0.00    -0.029 C  
HETATM    2  O   UNL     1      -6.743   7.205  63.495  1.00  0.00    -0.049 OA 
ENDROOT
BRANCH   2   3
HETATM    3  C   UNL     1      -7.413   7.921  64.452  1.00  0.00    -0.098 A  
HETATM    4  C   UNL     1      -8.453   8.757  64.016  1.00  0.00    -0.107 A  
HETATM    5 CL   UNL     1      -8.802   8.958  62.333  1.00  0.00    -0.187 Cl 
HETATM    6  C   UNL     1      -9.234   9.470  64.933  1.00  0.00    -0.284 A  
HETATM    7  C   UNL     1      -9.000   9.348  66.309  1.00  0.00    -0.189 A  
HETATM    8  C   UNL     1      -7.163   7.823  65.823  1.00  0.00    -0.068 A  
HETATM    9  C   UNL     1      -7.943   8.537  66.741  1.00  0.00    -0.094 A  
BRANCH   7  10
HETATM   10  C   UNL     1      -9.840  10.117  67.305  1.00  0.00    -0.183 C  
BRANCH  10  11
HETATM   11  N   UNL     1     -10.780   9.187  67.905  1.00  0.00    -0.431 NA 
HETATM   12  H   UNL     1     -11.503   8.719  67.358  1.00  0.00     0.000 HD 
BRANCH  11  13
HETATM   13  C   UNL     1     -10.632   8.970  69.289  1.00  0.00    -0.213 A  
HETATM   14  C   UNL     1     -11.231   9.840  70.185  1.00  0.00    -0.324 A  
HETATM   15  C   UNL     1     -11.068   9.525  71.514  1.00  0.00    -0.336 A  
HETATM   16  N   UNL     1      -9.949   7.877  69.712  1.00  0.00    -0.184 NA 
HETATM   17  C   UNL     1      -9.853   7.631  71.034  1.00  0.00    -0.174 A  
HETATM   18  N   UNL     1     -10.379   8.449  71.955  1.00  0.00    -0.256 NA 
BRANCH  14  19
HETATM   19  C   UNL     1     -11.985  11.067  69.841  1.00  0.00    -0.351 C  
HETATM   20  O   UNL     1     -13.008  10.976  69.172  1.00  0.00     0.039 OA 
HETATM   21  N   UNL     1     -11.512  12.263  70.326  1.00  0.00    -0.485 N  
HETATM   22  H   UNL     1     -10.686  12.260  70.925  1.00  0.00     0.000 HD 
BRANCH  21  23
HETATM   23  C   UNL     1     -12.149  13.534  70.015  1.00  0.00    -0.341 C  
BRANCH  23  24
HETATM   24  C   UNL     1     -11.202  14.617  69.530  1.00  0.00    -0.269 A  
HETATM   25  N   UNL     1     -11.762  15.718  68.982  1.00  0.00    -0.398 NA 
HETATM   26  C   UNL     1     -10.924  16.697  68.593  1.00  0.00    -0.328 A  
HETATM   27  N   UNL     1      -9.869  14.440  69.678  1.00  0.00     0.259 NA 
HETATM   28  C   UNL     1      -9.081  15.459  69.279  1.00  0.00    -0.260 A  
HETATM   29  C   UNL     1      -9.560  16.622  68.723  1.00  0.00    -0.254 A  
ENDBRANCH  23  24
ENDBRANCH  21  23
ENDBRANCH  14  19
BRANCH  17  30
HETATM   30  N   UNL     1      -9.192   6.515  71.465  1.00  0.00    -0.144 NA 
HETATM   31  C   UNL     1      -8.351   5.142  73.207  1.00  0.00    -0.111 C  
HETATM   32  C   UNL     1      -9.584   5.172  71.097  1.00  0.00    -0.166 C  
HETATM   33  C   UNL     1      -8.254   6.545  72.586  1.00  0.00    -0.110 C  
HETATM   34  C   UNL     1      -9.346   4.354  72.361  1.00  0.00    -0.162 C  
BRANCH  33  35
HETATM   35  C   UNL     1      -6.832   6.842  72.070  1.00  0.00    -0.058 C  
HETATM   36  O   UNL     1      -6.657   8.233  71.788  1.00  0.00    -0.052 OA 
HETATM   37  H   UNL     1      -5.781   8.417  71.470  1.00  0.00     0.000 HD 
ENDBRANCH  33  35
ENDBRANCH  17  30
ENDBRANCH  11  13
ENDBRANCH  10  11
ENDBRANCH   7  10
ENDBRANCH   2   3
TORSDOF 9
ENDMDL
MODEL      192
REMARK 921   NORMALIZED FREE ENERGY PREDICTED BY IDOCK:   -4.16 KCAL/MOL
REMARK 922        TOTAL FREE ENERGY PREDICTED BY IDOCK:   -7.88 KCAL/MOL
REMARK 923 INTER-LIGAND FREE ENERGY PREDICTED BY IDOCK:   -7.09 KCAL/MOL
REMARK 924 INTRA-LIGAND FREE ENERGY PREDICTED BY IDOCK:   -0.79 KCAL/MOL
REMARK 927      BINDING AFFINITY PREDICTED BY RF-SCORE:    0.00 PKD
ROOT
HETATM    1  C   UNL     1     -13.690  13.318  72.349  1.00  0.00    -0.578 C  
HETATM    2  O   UNL     1     -13.927  11.930  72.160  1.00  0.00     0.018 OA 
ENDROOT
BRANCH   2   3
HETATM    3  C   UNL     1     -12.981  11.227  71.461  1.00  0.00    -0.415 A  
HETATM    4  C   UNL     1     -12.938   9.838  71.660  1.00  0.00    -0.419 A  
HETATM    5 CL   UNL     1     -13.963   9.062  72.818  1.00  0.00    -0.383 Cl 
HETATM    6  C   UNL     1     -12.050   9.035  70.934  1.00  0.00    -0.247 A  
HETATM    7  C   UNL     1     -11.195   9.605  69.982  1.00  0.00    -0.271 A  
HETATM    8  C   UNL     1     -12.107  11.797  70.531  1.00  0.00    -0.439 A  
HETATM    9  C   UNL     1     -11.218  10.994  69.805  1.00  0.00    -0.339 A  
BRANCH   7  10
HETATM   10  C   UNL     1     -10.232   8.743  69.196  1.00  0.00    -0.207 C  
BRANCH  10  11
HETATM   11  N   UNL     1      -9.160   9.599  68.719  1.00  0.00    -0.132 NA 
HETATM   12  H   UNL     1      -8.422   9.938  69.336  1.00  0.00     0.000 HD 
BRANCH  11  13
HETATM   13  C   UNL     1      -9.201   9.930  67.350  1.00  0.00    -0.134 A  
HETATM   14  C   UNL     1      -8.506   9.153  66.437  1.00  0.00    -0.129 A  
HETATM   15  C   UNL     1      -8.641   9.527  65.120  1.00  0.00    -0.162 A  
HETATM   16  N   UNL     1      -9.970  10.974  66.952  1.00  0.00    -0.191 NA 
HETATM   17  C   UNL     1     -10.061  11.262  65.638  1.00  0.00    -0.247 A  
HETATM   18  N   UNL     1      -9.389  10.573  64.706  1.00  0.00    -0.217 NA 
BRANCH  14  19
HETATM   19  C   UNL     1      -7.629   8.004  66.756  1.00  0.00    -0.094 C  
HETATM   20  O   UNL     1      -6.413   8.157  66.754  1.00  0.00    -0.054 OA 
HETATM   21  N   UNL     1      -8.233   6.812  67.077  1.00  0.00    -0.112 N  
HETATM   22  H   UNL     1      -9.252   6.770  67.114  1.00  0.00     0.000 HD 
BRANCH  21  23
HETATM   23  C   UNL     1      -7.470   5.607  67.365  1.00  0.00    -0.084 C  
BRANCH  23  24
HETATM   24  C   UNL     1      -6.905   5.534  68.773  1.00  0.00    -0.059 A  
HETATM   25  N   UNL     1      -6.904   6.679  69.491  1.00  0.00    -0.063 NA 
HETATM   26  C   UNL     1      -6.445   6.604  70.754  1.00  0.00    -0.052 A  
HETATM   27  N   UNL     1      -6.450   4.348  69.238  1.00  0.00    -0.035 NA 
HETATM   28  C   UNL     1      -6.012   4.333  70.513  1.00  0.00    -0.014 A  
HETATM   29  C   UNL     1      -5.985   5.443  71.325  1.00  0.00    -0.028 A  
ENDBRANCH  23  24
ENDBRANCH  21  23
ENDBRANCH  14  19
BRANCH  17  30
HETATM   30  N   UNL     1     -10.858  12.294  65.228  1.00  0.00    -0.284 NA 
HETATM   31  C   UNL     1     -11.165  14.364  64.112  1.00  0.00     0.048 C  
HETATM   32  C   UNL     1     -12.045  12.106  64.424  1.00  0.00    -0.357 C  
HETATM   33  C   UNL     1     -10.417  13.688  65.272  1.00  0.00    -0.351 C  
HETATM   34  C   UNL     1     -12.042  13.295  63.469  1.00  0.00    -0.550 C  
BRANCH  33  35
HETATM   35  C   UNL     1     -10.792  14.312  66.632  1.00  0.00    -0.301 C  
HETATM   36  O   UNL     1      -9.639  14.504  67.455  1.00  0.00    -0.206 OA 
HETATM   37  H   UNL     1      -9.869  14.888  68.293  1.00  0.00     0.000 HD 
ENDBRANCH  33  35
ENDBRANCH  17  30
ENDBRANCH  11  13
ENDBRANCH  10  11
ENDBRANCH   7  10
ENDBRANCH   2   3
TORSDOF 9
ENDMDL
MODEL      193
REMARK 921   NORMALIZED FREE ENERGY PREDICTED BY IDOCK:   -4.10 KCAL/MOL
REMARK 922        TOTAL FREE ENERGY PREDICTED BY IDOCK:   -7.79 KCAL/MOL
REMARK 923 INTER-LIGAND FREE ENERGY PREDICTED BY IDOCK:   -6.16 KCAL/MOL
REMARK 924 INTRA-LIGAND FREE ENERGY PREDICTED BY IDOCK:   -1.63 KCAL/MOL
REMARK 927      BINDING AFFINITY PREDICTED BY RF-SCORE:    0.00 PKD
ROOT
HETATM    1  C   UNL     1      -8.770   2.628  62.852  1.00  0.00    -0.085 C  
HETATM    2  O   UNL     1      -9.509   3.204  63.921  1.00  0.00    -0.118 OA 
ENDROOT
BRANCH   2   3
HETATM    3  C   UNL     1      -8.852   4.103  64.718  1.00  0.00    -0.135 A  
HETATM    4  C   UNL     1      -8.661   3.748  66.063  1.00  0.00    -0.113 A  
HETATM    5 CL   UNL     1      -9.320   2.285  66.710  1.00  0.00    -0.040 Cl 
HETATM    6  C   UNL     1      -7.940   4.577  66.930  1.00  0.00    -0.102 A  
HETATM    7  C   UNL     1      -7.381   5.775  66.465  1.00  0.00    -0.079 A  
HETATM    8  C   UNL     1      -8.319   5.312  64.263  1.00  0.00    -0.134 A  
HETATM    9  C   UNL     1      -7.598   6.143  65.130  1.00  0.00    -0.090 A  
BRANCH   7  10
HETATM   10  C   UNL     1      -6.603   6.676  67.397  1.00  0.00    -0.057 C  
BRANCH  10  11
HETATM   11  N   UNL     1      -7.138   8.020  67.264  1.00  0.00    -0.081 NA 
HETATM   12  H   UNL     1      -6.763   8.689  66.591  1.00  0.00     0.000 HD 
BRANCH  11  13
HETATM   13  C   UNL     1      -8.207   8.343  68.122  1.00  0.00    -0.124 A  
HETATM   14  C   UNL     1      -9.096   9.344  67.762  1.00  0.00    -0.134 A  
HETATM   15  C   UNL     1     -10.131   9.559  68.641  1.00  0.00    -0.181 A  
HETATM   16  N   UNL     1      -8.375   7.624  69.260  1.00  0.00    -0.133 NA 
HETATM   17  C   UNL     1      -9.429   7.888  70.058  1.00  0.00    -0.157 A  
HETATM   18  N   UNL     1     -10.305   8.864  69.787  1.00  0.00    -0.202 NA 
BRANCH  14  19
HETATM   19  C   UNL     1      -9.006  10.199  66.557  1.00  0.00    -0.143 C  
HETATM   20  O   UNL     1      -7.905  10.533  66.137  1.00  0.00    -0.133 OA 
HETATM   21  N   UNL     1     -10.182  10.553  65.939  1.00  0.00    -0.256 N  
HETATM   22  H   UNL     1     -11.062  10.192  66.309  1.00  0.00     0.000 HD 
BRANCH  21  23
HETATM   23  C   UNL     1     -10.215  11.424  64.774  1.00  0.00    -0.286 C  
BRANCH  23  24
HETATM   24  C   UNL     1     -10.447  12.892  65.085  1.00  0.00    -0.309 A  
HETATM   25  N   UNL     1     -11.320  13.554  64.294  1.00  0.00    -0.385 NA 
HETATM   26  C   UNL     1     -11.559  14.844  64.597  1.00  0.00    -0.395 A  
HETATM   27  N   UNL     1      -9.792  13.456  66.126  1.00  0.00    -0.289 NA 
HETATM   28  C   UNL     1     -10.080  14.747  66.387  1.00  0.00    -0.280 A  
HETATM   29  C   UNL     1     -10.964  15.497  65.647  1.00  0.00    -0.307 A  
ENDBRANCH  23  24
ENDBRANCH  21  23
ENDBRANCH  14  19
BRANCH  17  30
HETATM   30  N   UNL     1      -9.618   7.147  71.191  1.00  0.00    -0.165 NA 
HETATM   31  C   UNL     1     -10.360   6.934  73.434  1.00  0.00    -0.337 C  
HETATM   32  C   UNL     1     -10.377   5.916  71.212  1.00  0.00    -0.221 C  
HETATM   33  C   UNL     1      -9.370   7.684  72.528  1.00  0.00    -0.163 C  
HETATM   34  C   UNL     1     -11.121   5.959  72.542  1.00  0.00    -0.328 C  
BRANCH  33  35
HETATM   35  C   UNL     1      -7.907   7.412  72.936  1.00  0.00    -0.096 C  
HETATM   36  O   UNL     1      -7.834   6.626  74.129  1.00  0.00    -0.102 OA 
HETATM   37  H   UNL     1      -6.933   6.459  74.380  1.00  0.00     0.000 HD 
ENDBRANCH  33  35
ENDBRANCH  17  30
ENDBRANCH  11  13
ENDBRANCH  10  11
ENDBRANCH   7  10
ENDBRANCH   2   3
TORSDOF 9
ENDMDL
MODEL      194
REMARK 921   NORMALIZED FREE ENERGY PREDICTED BY IDOCK:   -4.05 KCAL/MOL
REMARK 922        TOTAL FREE ENERGY PREDICTED BY IDOCK:   -7.70 KCAL/MOL
REMARK 923 INTER-LIGAND FREE ENERGY PREDICTED BY IDOCK:   -6.70 KCAL/MOL
REMARK 924 INTRA-LIGAND FREE ENERGY PREDICTED BY IDOCK:   -1.00 KCAL/MOL
REMARK 927      BINDING AFFINITY PREDICTED BY RF-SCORE:    0.00 PKD
ROOT
HETATM    1  C   UNL     1     -12.819  13.150  64.778  1.00  0.00    -0.229 C  
HETATM    2  O   UNL     1     -12.003  13.015  65.933  1.00  0.00    -0.392 OA 
ENDROOT
BRANCH   2   3
HETATM    3  C   UNL     1     -11.366  11.815  66.109  1.00  0.00    -0.280 A  
HETATM    4  C   UNL     1     -10.568  11.351  65.051  1.00  0.00    -0.299 A  
HETATM    5 CL   UNL     1     -10.479  12.206  63.549  1.00  0.00    -0.478 Cl 
HETATM    6  C   UNL     1      -9.828  10.169  65.174  1.00  0.00    -0.394 A  
HETATM    7  C   UNL     1      -9.859   9.434  66.366  1.00  0.00    -0.337 A  
HETATM    8  C   UNL     1     -11.419  11.064  67.287  1.00  0.00    -0.164 A  
HETATM    9  C   UNL     1     -10.679   9.881  67.410  1.00  0.00    -0.323 A  
BRANCH   7  10
HETATM   10  C   UNL     1      -9.063   8.155  66.504  1.00  0.00    -0.176 C  
BRANCH  10  11
HETATM   11  N   UNL     1      -7.777   8.494  67.087  1.00  0.00    -0.096 NA 
HETATM   12  H   UNL     1      -6.944   8.639  66.517  1.00  0.00     0.000 HD 
BRANCH  11  13
HETATM   13  C   UNL     1      -7.751   8.609  68.491  1.00  0.00    -0.100 A  
HETATM   14  C   UNL     1      -7.087   9.675  69.078  1.00  0.00    -0.066 A  
HETATM   15  C   UNL     1      -7.152   9.728  70.451  1.00  0.00    -0.141 A  
HETATM   16  N   UNL     1      -8.428   7.700  69.237  1.00  0.00    -0.137 NA 
HETATM   17  C   UNL     1      -8.456   7.836  70.577  1.00  0.00    -0.127 A  
HETATM   18  N   UNL     1      -7.808   8.823  71.210  1.00  0.00    -0.131 NA 
BRANCH  14  19
HETATM   19  C   UNL     1      -6.308  10.715  68.370  1.00  0.00    -0.054 C  
HETATM   20  O   UNL     1      -5.181  10.452  67.967  1.00  0.00    -0.035 OA 
HETATM   21  N   UNL     1      -6.910  11.934  68.167  1.00  0.00    -0.067 N  
HETATM   22  H   UNL     1      -7.873  12.066  68.479  1.00  0.00     0.000 HD 
BRANCH  21  23
HETATM   23  C   UNL     1      -6.223  13.042  67.521  1.00  0.00    -0.139 C  
BRANCH  23  24
HETATM   24  C   UNL     1      -5.962  14.238  68.419  1.00  0.00    -0.103 A  
HETATM   25  N   UNL     1      -5.895  15.448  67.822  1.00  0.00    -0.190 NA 
HETATM   26  C   UNL     1      -5.707  16.513  68.624  1.00  0.00    -0.117 A  
HETATM   27  N   UNL     1      -5.824  14.043  69.751  1.00  0.00    -0.108 NA 
HETATM   28  C   UNL     1      -5.649  15.148  70.503  1.00  0.00    -0.136 A  
HETATM   29  C   UNL     1      -5.581  16.421  69.988  1.00  0.00    -0.191 A  
ENDBRANCH  23  24
ENDBRANCH  21  23
ENDBRANCH  14  19
BRANCH  17  30
HETATM   30  N   UNL     1      -9.162   6.940  71.330  1.00  0.00    -0.156 NA 
HETATM   31  C   UNL     1     -11.023   5.503  71.646  1.00  0.00    -0.238 C  
HETATM   32  C   UNL     1      -8.594   5.708  71.832  1.00  0.00    -0.131 C  
HETATM   33  C   UNL     1     -10.621   6.969  71.418  1.00  0.00    -0.217 C  
HETATM   34  C   UNL     1      -9.729   4.697  71.711  1.00  0.00    -0.230 C  
BRANCH  33  35
HETATM   35  C   UNL     1     -11.057   7.869  72.592  1.00  0.00    -0.385 C  
HETATM   36  O   UNL     1     -11.535   9.136  72.133  1.00  0.00    -0.334 OA 
HETATM   37  H   UNL     1     -11.803   9.691  72.856  1.00  0.00     0.000 HD 
ENDBRANCH  33  35
ENDBRANCH  17  30
ENDBRANCH  11  13
ENDBRANCH  10  11
ENDBRANCH   7  10
ENDBRANCH   2   3
TORSDOF 9
ENDMDL
MODEL      195
REMARK 921   NORMALIZED FREE ENERGY PREDICTED BY IDOCK:   -3.99 KCAL/MOL
REMARK 922        TOTAL FREE ENERGY PREDICTED BY IDOCK:   -7.62 KCAL/MOL
REMARK 923 INTER-LIGAND FREE ENERGY PREDICTED BY IDOCK:   -5.93 KCAL/MOL
REMARK 924 INTRA-LIGAND FREE ENERGY PREDICTED BY IDOCK:   -1.69 KCAL/MOL
REMARK 927      BINDING AFFINITY PREDICTED BY RF-SCORE:    0.00 PKD
ROOT
HETATM    1  C   UNL     1     -11.442  15.761  67.052  1.00  0.00     0.125 C  
HETATM    2  O   UNL     1     -11.589  14.686  67.970  1.00  0.00    -0.311 OA 
ENDROOT
BRANCH   2   3
HETATM    3  C   UNL     1     -11.041  13.483  67.614  1.00  0.00    -0.269 A  
HETATM    4  C   UNL     1     -11.179  12.420  68.521  1.00  0.00    -0.279 A  
HETATM    5 CL   UNL     1     -11.917  12.650  70.069  1.00  0.00    -0.411 Cl 
HETATM    6  C   UNL     1     -10.710  11.140  68.206  1.00  0.00    -0.234 A  
HETATM    7  C   UNL     1     -10.104  10.892  66.967  1.00  0.00    -0.244 A  
HETATM    8  C   UNL     1     -10.410  13.240  66.390  1.00  0.00    -0.286 A  
HETATM    9  C   UNL     1      -9.939  11.959  66.075  1.00  0.00    -0.258 A  
BRANCH   7  10
HETATM   10  C   UNL     1      -9.593   9.511  66.622  1.00  0.00    -0.188 C  
BRANCH  10  11
HETATM   11  N   UNL     1      -8.333   9.318  67.317  1.00  0.00    -0.124 NA 
HETATM   12  H   UNL     1      -7.433   9.412  66.846  1.00  0.00     0.000 HD 
BRANCH  11  13
HETATM   13  C   UNL     1      -8.430   8.991  68.684  1.00  0.00    -0.128 A  
HETATM   14  C   UNL     1      -7.572   9.589  69.593  1.00  0.00    -0.103 A  
HETATM   15  C   UNL     1      -7.769   9.242  70.909  1.00  0.00    -0.103 A  
HETATM   16  N   UNL     1      -9.403   8.137  69.087  1.00  0.00    -0.151 NA 
HETATM   17  C   UNL     1      -9.540   7.864  70.400  1.00  0.00    -0.171 A  
HETATM   18  N   UNL     1      -8.723   8.381  71.327  1.00  0.00    -0.147 NA 
BRANCH  14  19
HETATM   19  C   UNL     1      -6.468  10.522  69.270  1.00  0.00    -0.055 C  
HETATM   20  O   UNL     1      -5.441  10.086  68.764  1.00  0.00    -0.036 OA 
HETATM   21  N   UNL     1      -6.668  11.857  69.526  1.00  0.00    -0.269 N  
HETATM   22  H   UNL     1      -7.570  12.159  69.896  1.00  0.00     0.000 HD 
BRANCH  21  23
HETATM   23  C   UNL     1      -5.637  12.857  69.288  1.00  0.00    -0.076 C  
BRANCH  23  24
HETATM   24  C   UNL     1      -6.095  14.063  68.487  1.00  0.00    -0.094 A  
HETATM   25  N   UNL     1      -5.129  14.851  67.964  1.00  0.00    -0.137 NA 
HETATM   26  C   UNL     1      -5.535  15.896  67.218  1.00  0.00     0.071 A  
HETATM   27  N   UNL     1      -7.420  14.282  68.327  1.00  0.00    -0.114 NA 
HETATM   28  C   UNL     1      -7.765  15.338  67.562  1.00  0.00    -0.176 A  
HETATM   29  C   UNL     1      -6.855  16.187  66.978  1.00  0.00    -0.216 A  
ENDBRANCH  23  24
ENDBRANCH  21  23
ENDBRANCH  14  19
BRANCH  17  30
HETATM   30  N   UNL     1     -10.539   7.028  70.814  1.00  0.00    -0.216 NA 
HETATM   31  C   UNL     1     -11.688   5.852  72.524  1.00  0.00    -0.288 C  
HETATM   32  C   UNL     1     -11.939   7.280  70.557  1.00  0.00    -0.160 C  
HETATM   33  C   UNL     1     -10.325   5.996  71.827  1.00  0.00    -0.215 C  
HETATM   34  C   UNL     1     -12.642   6.816  71.828  1.00  0.00    -0.370 C  
BRANCH  33  35
HETATM   35  C   UNL     1      -9.890   4.680  71.150  1.00  0.00    -0.191 C  
HETATM   36  O   UNL     1      -8.465   4.566  71.095  1.00  0.00    -0.101 OA 
HETATM   37  H   UNL     1      -8.196   3.756  70.677  1.00  0.00     0.000 HD 
ENDBRANCH  33  35
ENDBRANCH  17  30
ENDBRANCH  11  13
ENDBRANCH  10  11
ENDBRANCH   7  10
ENDBRANCH   2   3
TORSDOF 9
ENDMDL
MODEL      196
REMARK 921   NORMALIZED FREE ENERGY PREDICTED BY IDOCK:   -3.99 KCAL/MOL
REMARK 922        TOTAL FREE ENERGY PREDICTED BY IDOCK:   -7.62 KCAL/MOL
REMARK 923 INTER-LIGAND FREE ENERGY PREDICTED BY IDOCK:   -6.54 KCAL/MOL
REMARK 924 INTRA-LIGAND FREE ENERGY PREDICTED BY IDOCK:   -1.07 KCAL/MOL
REMARK 927      BINDING AFFINITY PREDICTED BY RF-SCORE:    0.00 PKD
ROOT
HETATM    1  C   UNL     1     -10.396  18.222  68.602  1.00  0.00    -0.276 C  
HETATM    2  O   UNL     1      -9.026  18.061  68.263  1.00  0.00    -0.268 OA 
ENDROOT
BRANCH   2   3
HETATM    3  C   UNL     1      -8.496  16.804  68.389  1.00  0.00    -0.231 A  
HETATM    4  C   UNL     1      -7.186  16.610  67.926  1.00  0.00    -0.140 A  
HETATM    5 CL   UNL     1      -6.315  17.877  67.131  1.00  0.00    -0.176 Cl 
HETATM    6  C   UNL     1      -6.544  15.375  68.079  1.00  0.00    -0.160 A  
HETATM    7  C   UNL     1      -7.197  14.311  68.714  1.00  0.00    -0.129 A  
HETATM    8  C   UNL     1      -9.156  15.732  68.997  1.00  0.00    -0.245 A  
HETATM    9  C   UNL     1      -8.515  14.496  69.149  1.00  0.00     0.017 A  
BRANCH   7  10
HETATM   10  C   UNL     1      -6.510  12.974  68.881  1.00  0.00    -0.094 C  
BRANCH  10  11
HETATM   11  N   UNL     1      -6.748  12.199  67.675  1.00  0.00    -0.103 NA 
HETATM   12  H   UNL     1      -6.015  12.029  66.987  1.00  0.00     0.000 HD 
BRANCH  11  13
HETATM   13  C   UNL     1      -8.055  11.698  67.516  1.00  0.00    -0.144 A  
HETATM   14  C   UNL     1      -8.474  10.623  68.282  1.00  0.00    -0.127 A  
HETATM   15  C   UNL     1      -9.778  10.231  68.089  1.00  0.00    -0.143 A  
HETATM   16  N   UNL     1      -8.895  12.320  66.651  1.00  0.00    -0.195 NA 
HETATM   17  C   UNL     1     -10.164  11.883  66.535  1.00  0.00    -0.203 A  
HETATM   18  N   UNL     1     -10.624  10.828  67.221  1.00  0.00    -0.241 NA 
BRANCH  14  19
HETATM   19  C   UNL     1      -7.646   9.860  69.244  1.00  0.00    -0.101 C  
HETATM   20  O   UNL     1      -6.461   9.667  68.996  1.00  0.00    -0.045 OA 
HETATM   21  N   UNL     1      -8.248   9.430  70.402  1.00  0.00    -0.175 N  
HETATM   22  H   UNL     1      -9.224   9.676  70.571  1.00  0.00     0.000 HD 
BRANCH  21  23
HETATM   23  C   UNL     1      -7.542   8.637  71.397  1.00  0.00    -0.112 C  
BRANCH  23  24
HETATM   24  C   UNL     1      -8.439   7.889  72.367  1.00  0.00    -0.141 A  
HETATM   25  N   UNL     1      -7.859   7.406  73.488  1.00  0.00    -0.105 NA 
HETATM   26  C   UNL     1      -8.663   6.781  74.368  1.00  0.00    -0.171 A  
HETATM   27  N   UNL     1      -9.754   7.753  72.076  1.00  0.00    -0.165 NA 
HETATM   28  C   UNL     1     -10.510   7.127  73.000  1.00  0.00    -0.292 A  
HETATM   29  C   UNL     1     -10.012   6.615  74.175  1.00  0.00    -0.361 A  
ENDBRANCH  23  24
ENDBRANCH  21  23
ENDBRANCH  14  19
BRANCH  17  30
HETATM   30  N   UNL     1     -11.023  12.525  65.687  1.00  0.00    -0.279 NA 
HETATM   31  C   UNL     1     -11.447  13.784  63.722  1.00  0.00    -0.008 C  
HETATM   32  C   UNL     1     -12.161  11.877  65.073  1.00  0.00     0.003 C  
HETATM   33  C   UNL     1     -10.693  13.805  65.062  1.00  0.00    -0.382 C  
HETATM   34  C   UNL     1     -12.214  12.467  63.668  1.00  0.00    -0.642 C  
BRANCH  33  35
HETATM   35  C   UNL     1     -11.166  14.964  65.963  1.00  0.00    -0.327 C  
HETATM   36  O   UNL     1     -12.438  14.684  66.552  1.00  0.00    -0.379 OA 
HETATM   37  H   UNL     1     -12.730  15.397  67.108  1.00  0.00     0.000 HD 
ENDBRANCH  33  35
ENDBRANCH  17  30
ENDBRANCH  11  13
ENDBRANCH  10  11
ENDBRANCH   7  10
ENDBRANCH   2   3
TORSDOF 9
ENDMDL
MODEL      197
REMARK 921   NORMALIZED FREE ENERGY PREDICTED BY IDOCK:   -3.96 KCAL/MOL
REMARK 922        TOTAL FREE ENERGY PREDICTED BY IDOCK:   -7.58 KCAL/MOL
REMARK 923 INTER-LIGAND FREE ENERGY PREDICTED BY IDOCK:   -5.31 KCAL/MOL
REMARK 924 INTRA-LIGAND FREE ENERGY PREDICTED BY IDOCK:   -2.27 KCAL/MOL
REMARK 927      BINDING AFFINITY PREDICTED BY RF-SCORE:    0.00 PKD
ROOT
HETATM    1  C   UNL     1      -8.590   3.613  64.644  1.00  0.00    -0.104 C  
HETATM    2  O   UNL     1      -9.306   3.306  65.832  1.00  0.00    -0.155 OA 
ENDROOT
BRANCH   2   3
HETATM    3  C   UNL     1      -9.692   4.361  66.617  1.00  0.00    -0.215 A  
HETATM    4  C   UNL     1      -8.961   4.588  67.793  1.00  0.00    -0.116 A  
HETATM    5 CL   UNL     1      -7.693   3.517  68.286  1.00  0.00    -0.060 Cl 
HETATM    6  C   UNL     1      -9.244   5.684  68.616  1.00  0.00    -0.134 A  
HETATM    7  C   UNL     1     -10.258   6.586  68.270  1.00  0.00    -0.195 A  
HETATM    8  C   UNL     1     -10.723   5.246  66.289  1.00  0.00    -0.260 A  
HETATM    9  C   UNL     1     -11.008   6.343  67.112  1.00  0.00    -0.476 A  
BRANCH   7  10
HETATM   10  C   UNL     1     -10.571   7.771  69.156  1.00  0.00    -0.183 C  
BRANCH  10  11
HETATM   11  N   UNL     1      -9.344   8.158  69.829  1.00  0.00    -0.159 NA 
HETATM   12  H   UNL     1      -9.007   7.675  70.662  1.00  0.00     0.000 HD 
BRANCH  11  13
HETATM   13  C   UNL     1      -8.647   9.243  69.261  1.00  0.00    -0.139 A  
HETATM   14  C   UNL     1      -7.287   9.132  69.019  1.00  0.00    -0.073 A  
HETATM   15  C   UNL     1      -6.702  10.224  68.423  1.00  0.00    -0.057 A  
HETATM   16  N   UNL     1      -9.339  10.356  68.912  1.00  0.00    -0.177 NA 
HETATM   17  C   UNL     1      -8.691  11.375  68.314  1.00  0.00    -0.160 A  
HETATM   18  N   UNL     1      -7.372  11.347  68.082  1.00  0.00    -0.087 NA 
BRANCH  14  19
HETATM   19  C   UNL     1      -6.429   7.977  69.368  1.00  0.00    -0.035 C  
HETATM   20  O   UNL     1      -5.555   7.620  68.588  1.00  0.00    -0.025 OA 
HETATM   21  N   UNL     1      -6.637   7.374  70.585  1.00  0.00    -0.043 N  
HETATM   22  H   UNL     1      -7.346   7.758  71.211  1.00  0.00     0.000 HD 
BRANCH  21  23
HETATM   23  C   UNL     1      -5.882   6.206  71.013  1.00  0.00    -0.026 C  
BRANCH  23  24
HETATM   24  C   UNL     1      -6.705   5.139  71.714  1.00  0.00    -0.048 A  
HETATM   25  N   UNL     1      -6.092   3.961  71.964  1.00  0.00    -0.013 NA 
HETATM   26  C   UNL     1      -6.807   3.031  72.625  1.00  0.00    -0.027 A  
HETATM   27  N   UNL     1      -7.983   5.416  72.062  1.00  0.00    -0.112 NA 
HETATM   28  C   UNL     1      -8.645   4.450  72.729  1.00  0.00    -0.109 A  
HETATM   29  C   UNL     1      -8.101   3.226  73.040  1.00  0.00    -0.076 A  
ENDBRANCH  23  24
ENDBRANCH  21  23
ENDBRANCH  14  19
BRANCH  17  30
HETATM   30  N   UNL     1      -9.389  12.487  67.933  1.00  0.00    -0.193 NA 
HETATM   31  C   UNL     1     -10.903  14.252  68.404  1.00  0.00    -0.263 C  
HETATM   32  C   UNL     1      -8.760  13.667  67.385  1.00  0.00    -0.213 C  
HETATM   33  C   UNL     1     -10.773  12.721  68.345  1.00  0.00    -0.250 C  
HETATM   34  C   UNL     1      -9.555  14.825  67.978  1.00  0.00    -0.209 C  
BRANCH  33  35
HETATM   35  C   UNL     1     -11.737  12.106  67.311  1.00  0.00    -0.299 C  
HETATM   36  O   UNL     1     -11.990  10.726  67.586  1.00  0.00    -0.616 OA 
HETATM   37  H   UNL     1     -12.584  10.347  66.949  1.00  0.00     0.000 HD 
ENDBRANCH  33  35
ENDBRANCH  17  30
ENDBRANCH  11  13
ENDBRANCH  10  11
ENDBRANCH   7  10
ENDBRANCH   2   3
TORSDOF 9
ENDMDL
MODEL      198
REMARK 921   NORMALIZED FREE ENERGY PREDICTED BY IDOCK:   -3.94 KCAL/MOL
REMARK 922        TOTAL FREE ENERGY PREDICTED BY IDOCK:   -7.55 KCAL/MOL
REMARK 923 INTER-LIGAND FREE ENERGY PREDICTED BY IDOCK:   -5.96 KCAL/MOL
REMARK 924 INTRA-LIGAND FREE ENERGY PREDICTED BY IDOCK:   -1.59 KCAL/MOL
REMARK 927      BINDING AFFINITY PREDICTED BY RF-SCORE:    0.00 PKD
ROOT
HETATM    1  C   UNL     1     -12.836  13.099  71.501  1.00  0.00    -0.307 C  
HETATM    2  O   UNL     1     -13.304  11.764  71.628  1.00  0.00    -0.338 OA 
ENDROOT
BRANCH   2   3
HETATM    3  C   UNL     1     -12.497  10.771  71.138  1.00  0.00    -0.414 A  
HETATM    4  C   UNL     1     -12.788   9.455  71.529  1.00  0.00    -0.362 A  
HETATM    5 CL   UNL     1     -14.046   9.112  72.668  1.00  0.00    -0.432 Cl 
HETATM    6  C   UNL     1     -12.057   8.375  71.020  1.00  0.00    -0.218 A  
HETATM    7  C   UNL     1     -11.027   8.590  70.095  1.00  0.00    -0.221 A  
HETATM    8  C   UNL     1     -11.450  10.985  70.237  1.00  0.00    -0.363 A  
HETATM    9  C   UNL     1     -10.718   9.905  69.728  1.00  0.00    -0.298 A  
BRANCH   7  10
HETATM   10  C   UNL     1     -10.232   7.427  69.543  1.00  0.00    -0.204 C  
BRANCH  10  11
HETATM   11  N   UNL     1      -8.952   7.399  70.229  1.00  0.00    -0.147 NA 
HETATM   12  H   UNL     1      -8.883   7.358  71.246  1.00  0.00     0.000 HD 
BRANCH  11  13
HETATM   13  C   UNL     1      -7.812   7.433  69.403  1.00  0.00    -0.122 A  
HETATM   14  C   UNL     1      -6.751   6.581  69.667  1.00  0.00    -0.050 A  
HETATM   15  C   UNL     1      -5.701   6.654  68.782  1.00  0.00    -0.017 A  
HETATM   16  N   UNL     1      -7.803   8.262  68.330  1.00  0.00    -0.116 NA 
HETATM   17  C   UNL     1      -6.740   8.258  67.502  1.00  0.00    -0.063 A  
HETATM   18  N   UNL     1      -5.668   7.485  67.717  1.00  0.00    -0.033 NA 
BRANCH  14  19
HETATM   19  C   UNL     1      -6.644   5.646  70.810  1.00  0.00    -0.044 C  
HETATM   20  O   UNL     1      -5.706   5.757  71.591  1.00  0.00    -0.020 OA 
HETATM   21  N   UNL     1      -7.637   4.708  70.961  1.00  0.00    -0.070 N  
HETATM   22  H   UNL     1      -8.419   4.709  70.306  1.00  0.00     0.000 HD 
BRANCH  21  23
HETATM   23  C   UNL     1      -7.611   3.713  72.022  1.00  0.00    -0.058 C  
BRANCH  23  24
HETATM   24  C   UNL     1      -8.975   3.335  72.572  1.00  0.00    -0.088 A  
HETATM   25  N   UNL     1      -9.402   2.076  72.334  1.00  0.00    -0.076 NA 
HETATM   26  C   UNL     1     -10.592   1.727  72.860  1.00  0.00    -0.147 A  
HETATM   27  N   UNL     1      -9.680   4.254  73.272  1.00  0.00    -0.124 NA 
HETATM   28  C   UNL     1     -10.859   3.844  73.781  1.00  0.00    -0.244 A  
HETATM   29  C   UNL     1     -11.369   2.579  73.604  1.00  0.00    -0.300 A  
ENDBRANCH  23  24
ENDBRANCH  21  23
ENDBRANCH  14  19
BRANCH  17  30
HETATM   30  N   UNL     1      -6.740   9.070  66.402  1.00  0.00    -0.074 NA 
HETATM   31  C   UNL     1      -5.604  10.438  64.831  1.00  0.00    -0.143 C  
HETATM   32  C   UNL     1      -7.258   8.661  65.116  1.00  0.00    -0.087 C  
HETATM   33  C   UNL     1      -5.926  10.283  66.327  1.00  0.00    -0.072 C  
HETATM   34  C   UNL     1      -6.299   9.288  64.110  1.00  0.00    -0.086 C  
BRANCH  33  35
HETATM   35  C   UNL     1      -6.729  11.485  66.864  1.00  0.00    -0.139 C  
HETATM   36  O   UNL     1      -5.940  12.678  66.877  1.00  0.00    -0.481 OA 
HETATM   37  H   UNL     1      -6.434  13.419  67.208  1.00  0.00     0.000 HD 
ENDBRANCH  33  35
ENDBRANCH  17  30
ENDBRANCH  11  13
ENDBRANCH  10  11
ENDBRANCH   7  10
ENDBRANCH   2   3
TORSDOF 9
ENDMDL
MODEL      199
REMARK 921   NORMALIZED FREE ENERGY PREDICTED BY IDOCK:   -3.90 KCAL/MOL
REMARK 922        TOTAL FREE ENERGY PREDICTED BY IDOCK:   -7.49 KCAL/MOL
REMARK 923 INTER-LIGAND FREE ENERGY PREDICTED BY IDOCK:   -7.16 KCAL/MOL
REMARK 924 INTRA-LIGAND FREE ENERGY PREDICTED BY IDOCK:   -0.33 KCAL/MOL
REMARK 927      BINDING AFFINITY PREDICTED BY RF-SCORE:    0.00 PKD
ROOT
HETATM    1  C   UNL     1     -13.538   9.139  72.414  1.00  0.00    -0.483 C  
HETATM    2  O   UNL     1     -13.193  10.496  72.173  1.00  0.00    -0.458 OA 
ENDROOT
BRANCH   2   3
HETATM    3  C   UNL     1     -12.480  10.765  71.034  1.00  0.00    -0.420 A  
HETATM    4  C   UNL     1     -12.356  12.112  70.658  1.00  0.00    -0.295 A  
HETATM    5 CL   UNL     1     -13.160  13.369  71.535  1.00  0.00    -0.442 Cl 
HETATM    6  C   UNL     1     -11.587  12.480  69.548  1.00  0.00    -0.348 A  
HETATM    7  C   UNL     1     -10.913  11.508  68.799  1.00  0.00    -0.271 A  
HETATM    8  C   UNL     1     -11.829   9.794  70.268  1.00  0.00    -0.208 A  
HETATM    9  C   UNL     1     -11.061  10.162  69.157  1.00  0.00    -0.257 A  
BRANCH   7  10
HETATM   10  C   UNL     1     -10.082  11.899  67.597  1.00  0.00    -0.191 C  
BRANCH  10  11
HETATM   11  N   UNL     1      -9.054  10.889  67.420  1.00  0.00    -0.140 NA 
HETATM   12  H   UNL     1      -8.952  10.366  66.551  1.00  0.00     0.000 HD 
BRANCH  11  13
HETATM   13  C   UNL     1      -8.205  10.677  68.525  1.00  0.00    -0.128 A  
HETATM   14  C   UNL     1      -7.290  11.655  68.882  1.00  0.00    -0.107 A  
HETATM   15  C   UNL     1      -6.535  11.378  69.998  1.00  0.00    -0.094 A  
HETATM   16  N   UNL     1      -8.344   9.539  69.249  1.00  0.00    -0.121 NA 
HETATM   17  C   UNL     1      -7.575   9.355  70.341  1.00  0.00    -0.145 A  
HETATM   18  N   UNL     1      -6.648  10.244  70.723  1.00  0.00    -0.334 NA 
BRANCH  14  19
HETATM   19  C   UNL     1      -7.042  12.924  68.162  1.00  0.00    -0.108 C  
HETATM   20  O   UNL     1      -6.498  12.897  67.064  1.00  0.00    -0.178 OA 
HETATM   21  N   UNL     1      -7.473  14.087  68.755  1.00  0.00    -0.127 N  
HETATM   22  H   UNL     1      -7.970  14.032  69.644  1.00  0.00     0.000 HD 
BRANCH  21  23
HETATM   23  C   UNL     1      -7.244  15.395  68.158  1.00  0.00    -0.118 C  
BRANCH  23  24
HETATM   24  C   UNL     1      -8.475  16.035  67.540  1.00  0.00    -0.163 A  
HETATM   25  N   UNL     1      -8.820  15.622  66.300  1.00  0.00    -0.327 NA 
HETATM   26  C   UNL     1      -9.936  16.158  65.770  1.00  0.00    -0.340 A  
HETATM   27  N   UNL     1      -9.161  16.960  68.249  1.00  0.00    -0.234 NA 
HETATM   28  C   UNL     1     -10.275  17.453  67.670  1.00  0.00    -0.342 A  
HETATM   29  C   UNL     1     -10.713  17.084  66.420  1.00  0.00    -0.075 A  
ENDBRANCH  23  24
ENDBRANCH  21  23
ENDBRANCH  14  19
BRANCH  17  30
HETATM   30  N   UNL     1      -7.732   8.224  71.092  1.00  0.00    -0.086 NA 
HETATM   31  C   UNL     1      -8.289   7.144  73.130  1.00  0.00    -0.134 C  
HETATM   32  C   UNL     1      -8.597   7.132  70.706  1.00  0.00    -0.146 C  
HETATM   33  C   UNL     1      -7.317   8.151  72.493  1.00  0.00    -0.111 C  
HETATM   34  C   UNL     1      -9.213   6.660  72.018  1.00  0.00    -0.142 C  
BRANCH  33  35
HETATM   35  C   UNL     1      -5.856   7.665  72.580  1.00  0.00    -0.040 C  
HETATM   36  O   UNL     1      -5.296   7.916  73.872  1.00  0.00    -0.048 OA 
HETATM   37  H   UNL     1      -4.396   7.617  73.926  1.00  0.00     0.000 HD 
ENDBRANCH  33  35
ENDBRANCH  17  30
ENDBRANCH  11  13
ENDBRANCH  10  11
ENDBRANCH   7  10
ENDBRANCH   2   3
TORSDOF 9
ENDMDL
MODEL      200
REMARK 921   NORMALIZED FREE ENERGY PREDICTED BY IDOCK:   -3.88 KCAL/MOL
REMARK 922        TOTAL FREE ENERGY PREDICTED BY IDOCK:   -7.45 KCAL/MOL
REMARK 923 INTER-LIGAND FREE ENERGY PREDICTED BY IDOCK:   -5.76 KCAL/MOL
REMARK 924 INTRA-LIGAND FREE ENERGY PREDICTED BY IDOCK:   -1.68 KCAL/MOL
REMARK 927      BINDING AFFINITY PREDICTED BY RF-SCORE:    0.00 PKD
ROOT
HETATM    1  C   UNL     1      -6.202  13.768  68.415  1.00  0.00    -0.100 C  
HETATM    2  O   UNL     1      -7.109  12.803  68.930  1.00  0.00    -0.100 OA 
ENDROOT
BRANCH   2   3
HETATM    3  C   UNL     1      -7.542  11.832  68.066  1.00  0.00    -0.116 A  
HETATM    4  C   UNL     1      -6.912  10.580  68.140  1.00  0.00    -0.073 A  
HETATM    5 CL   UNL     1      -5.574  10.307  69.203  1.00  0.00    -0.038 Cl 
HETATM    6  C   UNL     1      -7.339   9.512  67.342  1.00  0.00    -0.087 A  
HETATM    7  C   UNL     1      -8.418   9.671  66.463  1.00  0.00    -0.127 A  
HETATM    8  C   UNL     1      -8.600  11.997  67.167  1.00  0.00    -0.182 A  
HETATM    9  C   UNL     1      -9.027  10.929  66.368  1.00  0.00    -0.186 A  
BRANCH   7  10
HETATM   10  C   UNL     1      -8.883   8.522  65.597  1.00  0.00    -0.173 C  
BRANCH  10  11
HETATM   11  N   UNL     1     -10.010   7.892  66.263  1.00  0.00    -0.476 NA 
HETATM   12  H   UNL     1     -10.834   8.421  66.550  1.00  0.00     0.000 HD 
BRANCH  11  13
HETATM   13  C   UNL     1      -9.895   6.506  66.488  1.00  0.00    -0.111 A  
HETATM   14  C   UNL     1     -10.098   6.001  67.762  1.00  0.00    -0.185 A  
HETATM   15  C   UNL     1     -10.008   4.634  67.877  1.00  0.00    -0.077 A  
HETATM   16  N   UNL     1      -9.643   5.690  65.434  1.00  0.00     0.167 NA 
HETATM   17  C   UNL     1      -9.590   4.358  65.631  1.00  0.00    -0.187 A  
HETATM   18  N   UNL     1      -9.742   3.806  66.842  1.00  0.00    -0.180 NA 
BRANCH  14  19
HETATM   19  C   UNL     1     -10.365   6.793  68.984  1.00  0.00    -0.195 C  
HETATM   20  O   UNL     1      -9.527   7.599  69.373  1.00  0.00    -0.153 OA 
HETATM   21  N   UNL     1     -11.573   6.607  69.612  1.00  0.00    -0.628 N  
HETATM   22  H   UNL     1     -12.247   5.961  69.202  1.00  0.00     0.000 HD 
BRANCH  21  23
HETATM   23  C   UNL     1     -11.923   7.300  70.843  1.00  0.00    -0.305 C  
BRANCH  23  24
HETATM   24  C   UNL     1     -11.210   6.792  72.084  1.00  0.00    -0.259 A  
HETATM   25  N   UNL     1     -11.038   5.455  72.185  1.00  0.00    -0.207 NA 
HETATM   26  C   UNL     1     -10.367   5.008  73.263  1.00  0.00    -0.191 A  
HETATM   27  N   UNL     1     -10.779   7.682  73.006  1.00  0.00    -0.369 NA 
HETATM   28  C   UNL     1     -10.105   7.176  74.058  1.00  0.00    -0.261 A  
HETATM   29  C   UNL     1      -9.869   5.833  74.240  1.00  0.00    -0.220 A  
ENDBRANCH  23  24
ENDBRANCH  21  23
ENDBRANCH  14  19
BRANCH  17  30
HETATM   30  N   UNL     1      -9.366   3.528  64.568  1.00  0.00    -0.138 NA 
HETATM   31  C   UNL     1      -8.604   1.473  63.661  1.00  0.00    -0.076 C  
HETATM   32  C   UNL     1     -10.405   3.124  63.647  1.00  0.00    -0.216 C  
HETATM   33  C   UNL     1      -8.157   2.713  64.452  1.00  0.00    -0.082 C  
HETATM   34  C   UNL     1     -10.080   1.668  63.331  1.00  0.00    -0.124 C  
BRANCH  33  35
HETATM   35  C   UNL     1      -7.064   3.503  63.704  1.00  0.00    -0.049 C  
HETATM   36  O   UNL     1      -7.567   4.742  63.197  1.00  0.00    -0.056 OA 
HETATM   37  H   UNL     1      -6.894   5.228  62.735  1.00  0.00     0.000 HD 
ENDBRANCH  33  35
ENDBRANCH  17  30
ENDBRANCH  11  13
ENDBRANCH  10  11
ENDBRANCH   7  10
ENDBRANCH   2   3
TORSDOF 9
ENDMDL
MODEL      201
REMARK 921   NORMALIZED FREE ENERGY PREDICTED BY IDOCK:   -3.86 KCAL/MOL
REMARK 922        TOTAL FREE ENERGY PREDICTED BY IDOCK:   -7.42 KCAL/MOL
REMARK 923 INTER-LIGAND FREE ENERGY PREDICTED BY IDOCK:   -6.34 KCAL/MOL
REMARK 924 INTRA-LIGAND FREE ENERGY PREDICTED BY IDOCK:   -1.09 KCAL/MOL
REMARK 927      BINDING AFFINITY PREDICTED BY RF-SCORE:    0.00 PKD
ROOT
HETATM    1  C   UNL     1      -5.173  17.848  68.766  1.00  0.00    -0.161 C  
HETATM    2  O   UNL     1      -6.152  17.475  69.726  1.00  0.00    -0.246 OA 
ENDROOT
BRANCH   2   3
HETATM    3  C   UNL     1      -6.850  16.320  69.489  1.00  0.00    -0.188 A  
HETATM    4  C   UNL     1      -8.040  16.430  68.751  1.00  0.00    -0.234 A  
HETATM    5 CL   UNL     1      -8.653  17.970  68.256  1.00  0.00    -0.283 Cl 
HETATM    6  C   UNL     1      -8.778  15.292  68.404  1.00  0.00    -0.170 A  
HETATM    7  C   UNL     1      -8.332  14.017  68.776  1.00  0.00    -0.048 A  
HETATM    8  C   UNL     1      -6.423  15.050  69.884  1.00  0.00    -0.169 A  
HETATM    9  C   UNL     1      -7.161  13.911  69.538  1.00  0.00     0.081 A  
BRANCH   7  10
HETATM   10  C   UNL     1      -9.126  12.785  68.407  1.00  0.00    -0.129 C  
BRANCH  10  11
HETATM   11  N   UNL     1      -8.194  11.677  68.285  1.00  0.00    -0.150 NA 
HETATM   12  H   UNL     1      -7.271  11.789  67.867  1.00  0.00     0.000 HD 
BRANCH  11  13
HETATM   13  C   UNL     1      -8.646  10.437  68.779  1.00  0.00    -0.141 A  
HETATM   14  C   UNL     1      -9.718   9.807  68.168  1.00  0.00    -0.163 A  
HETATM   15  C   UNL     1     -10.060   8.582  68.692  1.00  0.00    -0.190 A  
HETATM   16  N   UNL     1      -7.981   9.862  69.812  1.00  0.00    -0.158 NA 
HETATM   17  C   UNL     1      -8.371   8.649  70.253  1.00  0.00    -0.129 A  
HETATM   18  N   UNL     1      -9.420   8.000  69.730  1.00  0.00    -0.160 NA 
BRANCH  14  19
HETATM   19  C   UNL     1     -10.524  10.342  67.048  1.00  0.00    -0.251 C  
HETATM   20  O   UNL     1     -11.655  10.760  67.267  1.00  0.00    -0.439 OA 
HETATM   21  N   UNL     1      -9.941  10.377  65.804  1.00  0.00    -0.255 N  
HETATM   22  H   UNL     1      -8.975  10.066  65.703  1.00  0.00     0.000 HD 
BRANCH  21  23
HETATM   23  C   UNL     1     -10.655  10.843  64.624  1.00  0.00    -0.262 C  
BRANCH  23  24
HETATM   24  C   UNL     1     -11.077  12.301  64.671  1.00  0.00    -0.313 A  
HETATM   25  N   UNL     1     -12.404  12.553  64.690  1.00  0.00    -0.471 NA 
HETATM   26  C   UNL     1     -12.777  13.843  64.776  1.00  0.00    -0.211 A  
HETATM   27  N   UNL     1     -10.123  13.260  64.702  1.00  0.00    -0.283 NA 
HETATM   28  C   UNL     1     -10.558  14.533  64.798  1.00  0.00    -0.377 A  
HETATM   29  C   UNL     1     -11.886  14.886  64.838  1.00  0.00    -0.337 A  
ENDBRANCH  23  24
ENDBRANCH  21  23
ENDBRANCH  14  19
BRANCH  17  30
HETATM   30  N   UNL     1      -7.686   8.051  71.274  1.00  0.00    -0.084 NA 
HETATM   31  C   UNL     1      -5.682   7.664  72.483  1.00  0.00    -0.040 C  
HETATM   32  C   UNL     1      -8.064   8.182  72.663  1.00  0.00    -0.160 C  
HETATM   33  C   UNL     1      -6.337   7.513  71.100  1.00  0.00    -0.035 C  
HETATM   34  C   UNL     1      -6.735   8.270  73.405  1.00  0.00    -0.139 C  
BRANCH  33  35
HETATM   35  C   UNL     1      -6.416   6.035  70.666  1.00  0.00    -0.040 C  
HETATM   36  O   UNL     1      -5.231   5.628  69.977  1.00  0.00    -0.004 OA 
HETATM   37  H   UNL     1      -5.279   4.718  69.709  1.00  0.00     0.000 HD 
ENDBRANCH  33  35
ENDBRANCH  17  30
ENDBRANCH  11  13
ENDBRANCH  10  11
ENDBRANCH   7  10
ENDBRANCH   2   3
TORSDOF 9
ENDMDL
MODEL      202
REMARK 921   NORMALIZED FREE ENERGY PREDICTED BY IDOCK:   -3.85 KCAL/MOL
REMARK 922        TOTAL FREE ENERGY PREDICTED BY IDOCK:   -7.41 KCAL/MOL
REMARK 923 INTER-LIGAND FREE ENERGY PREDICTED BY IDOCK:   -5.46 KCAL/MOL
REMARK 924 INTRA-LIGAND FREE ENERGY PREDICTED BY IDOCK:   -1.95 KCAL/MOL
REMARK 927      BINDING AFFINITY PREDICTED BY RF-SCORE:    0.00 PKD
ROOT
HETATM    1  C   UNL     1      -5.579  11.453  69.889  1.00  0.00    -0.084 C  
HETATM    2  O   UNL     1      -6.730  10.775  70.374  1.00  0.00    -0.279 OA 
ENDROOT
BRANCH   2   3
HETATM    3  C   UNL     1      -7.576  10.238  69.440  1.00  0.00    -0.137 A  
HETATM    4  C   UNL     1      -7.523   8.848  69.250  1.00  0.00    -0.075 A  
HETATM    5 CL   UNL     1      -6.363   7.869  70.082  1.00  0.00    -0.033 Cl 
HETATM    6  C   UNL     1      -8.400   8.209  68.366  1.00  0.00    -0.126 A  
HETATM    7  C   UNL     1      -9.361   8.947  67.664  1.00  0.00    -0.156 A  
HETATM    8  C   UNL     1      -8.516  10.976  68.716  1.00  0.00    -0.144 A  
HETATM    9  C   UNL     1      -9.394  10.338  67.832  1.00  0.00    -0.147 A  
BRANCH   7  10
HETATM   10  C   UNL     1     -10.311   8.264  66.706  1.00  0.00    -0.290 C  
BRANCH  10  11
HETATM   11  N   UNL     1     -10.977   7.194  67.429  1.00  0.00    -0.539 NA 
HETATM   12  H   UNL     1     -11.757   7.372  68.062  1.00  0.00     0.000 HD 
BRANCH  11  13
HETATM   13  C   UNL     1     -10.479   5.896  67.203  1.00  0.00    -0.272 A  
HETATM   14  C   UNL     1     -10.279   5.043  68.276  1.00  0.00    -0.143 A  
HETATM   15  C   UNL     1      -9.832   3.783  67.954  1.00  0.00     0.041 A  
HETATM   16  N   UNL     1     -10.258   5.492  65.927  1.00  0.00     0.007 NA 
HETATM   17  C   UNL     1      -9.837   4.232  65.698  1.00  0.00    -0.218 A  
HETATM   18  N   UNL     1      -9.592   3.367  66.691  1.00  0.00    -0.126 NA 
BRANCH  14  19
HETATM   19  C   UNL     1     -10.473   5.377  69.705  1.00  0.00    -0.307 C  
HETATM   20  O   UNL     1     -11.188   6.324  70.010  1.00  0.00    -0.350 OA 
HETATM   21  N   UNL     1      -9.858   4.574  70.636  1.00  0.00    -0.214 N  
HETATM   22  H   UNL     1      -9.323   3.767  70.314  1.00  0.00     0.000 HD 
BRANCH  21  23
HETATM   23  C   UNL     1      -9.945   4.834  72.065  1.00  0.00    -0.186 C  
BRANCH  23  24
HETATM   24  C   UNL     1      -8.904   5.802  72.599  1.00  0.00    -0.125 A  
HETATM   25  N   UNL     1      -7.644   5.333  72.731  1.00  0.00    -0.096 NA 
HETATM   26  C   UNL     1      -6.712   6.204  73.162  1.00  0.00    -0.074 A  
HETATM   27  N   UNL     1      -9.275   7.068  72.899  1.00  0.00    -0.137 NA 
HETATM   28  C   UNL     1      -8.297   7.896  73.317  1.00  0.00    -0.193 A  
HETATM   29  C   UNL     1      -6.985   7.514  73.469  1.00  0.00    -0.093 A  
ENDBRANCH  23  24
ENDBRANCH  21  23
ENDBRANCH  14  19
BRANCH  17  30
HETATM   30  N   UNL     1      -9.642   3.810  64.412  1.00  0.00    -0.158 NA 
HETATM   31  C   UNL     1      -8.268   2.878  62.718  1.00  0.00    -0.074 C  
HETATM   32  C   UNL     1     -10.472   2.815  63.772  1.00  0.00    -0.154 C  
HETATM   33  C   UNL     1      -8.399   4.066  63.685  1.00  0.00    -0.094 C  
HETATM   34  C   UNL     1      -9.496   1.999  62.930  1.00  0.00    -0.090 C  
BRANCH  33  35
HETATM   35  C   UNL     1      -8.501   5.406  62.930  1.00  0.00    -0.074 C  
HETATM   36  O   UNL     1      -8.371   6.520  63.819  1.00  0.00    -0.321 OA 
HETATM   37  H   UNL     1      -8.434   7.346  63.354  1.00  0.00     0.000 HD 
ENDBRANCH  33  35
ENDBRANCH  17  30
ENDBRANCH  11  13
ENDBRANCH  10  11
ENDBRANCH   7  10
ENDBRANCH   2   3
TORSDOF 9
ENDMDL
MODEL      203
REMARK 921   NORMALIZED FREE ENERGY PREDICTED BY IDOCK:   -3.84 KCAL/MOL
REMARK 922        TOTAL FREE ENERGY PREDICTED BY IDOCK:   -7.39 KCAL/MOL
REMARK 923 INTER-LIGAND FREE ENERGY PREDICTED BY IDOCK:   -5.97 KCAL/MOL
REMARK 924 INTRA-LIGAND FREE ENERGY PREDICTED BY IDOCK:   -1.43 KCAL/MOL
REMARK 927      BINDING AFFINITY PREDICTED BY RF-SCORE:    0.00 PKD
ROOT
HETATM    1  C   UNL     1      -8.723   5.223  74.227  1.00  0.00    -0.116 C  
HETATM    2  O   UNL     1      -8.591   5.214  72.812  1.00  0.00    -0.119 OA 
ENDROOT
BRANCH   2   3
HETATM    3  C   UNL     1      -9.250   6.195  72.119  1.00  0.00    -0.141 A  
HETATM    4  C   UNL     1      -8.544   7.379  71.854  1.00  0.00    -0.111 A  
HETATM    5 CL   UNL     1      -6.946   7.630  72.469  1.00  0.00    -0.068 Cl 
HETATM    6  C   UNL     1      -9.117   8.403  71.092  1.00  0.00    -0.217 A  
HETATM    7  C   UNL     1     -10.407   8.258  70.566  1.00  0.00    -0.217 A  
HETATM    8  C   UNL     1     -10.549   6.065  71.618  1.00  0.00    -0.286 A  
HETATM    9  C   UNL     1     -11.123   7.090  70.857  1.00  0.00    -0.300 A  
BRANCH   7  10
HETATM   10  C   UNL     1     -11.034   9.363  69.745  1.00  0.00    -0.215 C  
BRANCH  10  11
HETATM   11  N   UNL     1     -10.542   9.237  68.384  1.00  0.00    -0.316 NA 
HETATM   12  H   UNL     1     -10.700   8.398  67.825  1.00  0.00     0.000 HD 
BRANCH  11  13
HETATM   13  C   UNL     1      -9.831  10.346  67.883  1.00  0.00    -0.154 A  
HETATM   14  C   UNL     1      -8.552  10.168  67.380  1.00  0.00    -0.122 A  
HETATM   15  C   UNL     1      -7.953  11.298  66.874  1.00  0.00    -0.155 A  
HETATM   16  N   UNL     1     -10.441  11.557  67.853  1.00  0.00    -0.179 NA 
HETATM   17  C   UNL     1      -9.789  12.610  67.322  1.00  0.00    -0.206 A  
HETATM   18  N   UNL     1      -8.539  12.515  66.850  1.00  0.00    -0.186 NA 
BRANCH  14  19
HETATM   19  C   UNL     1      -7.784   8.902  67.372  1.00  0.00    -0.096 C  
HETATM   20  O   UNL     1      -7.291   8.491  68.416  1.00  0.00    -0.090 OA 
HETATM   21  N   UNL     1      -7.690   8.222  66.182  1.00  0.00    -0.094 N  
HETATM   22  H   UNL     1      -8.173   8.592  65.363  1.00  0.00     0.000 HD 
BRANCH  21  23
HETATM   23  C   UNL     1      -6.925   6.991  66.049  1.00  0.00    -0.065 C  
BRANCH  23  24
HETATM   24  C   UNL     1      -7.062   6.300  64.703  1.00  0.00    -0.057 A  
HETATM   25  N   UNL     1      -6.686   5.004  64.641  1.00  0.00    -0.047 NA 
HETATM   26  C   UNL     1      -6.849   4.379  63.459  1.00  0.00    -0.043 A  
HETATM   27  N   UNL     1      -7.555   6.997  63.653  1.00  0.00    -0.100 NA 
HETATM   28  C   UNL     1      -7.704   6.316  62.499  1.00  0.00    -0.088 A  
HETATM   29  C   UNL     1      -7.363   4.992  62.344  1.00  0.00    -0.038 A  
ENDBRANCH  23  24
ENDBRANCH  21  23
ENDBRANCH  14  19
BRANCH  17  30
HETATM   30  N   UNL     1     -10.411  13.826  67.262  1.00  0.00    -0.263 NA 
HETATM   31  C   UNL     1     -10.410  16.177  67.580  1.00  0.00    -0.286 C  
HETATM   32  C   UNL     1     -10.986  14.362  66.048  1.00  0.00    -0.316 C  
HETATM   33  C   UNL     1     -10.262  14.833  68.312  1.00  0.00    -0.227 C  
HETATM   34  C   UNL     1     -10.675  15.853  66.113  1.00  0.00    -0.273 C  
BRANCH  33  35
HETATM   35  C   UNL     1     -11.360  14.642  69.379  1.00  0.00    -0.284 C  
HETATM   36  O   UNL     1     -10.857  14.882  70.696  1.00  0.00    -0.497 OA 
HETATM   37  H   UNL     1     -11.533  14.764  71.353  1.00  0.00     0.000 HD 
ENDBRANCH  33  35
ENDBRANCH  17  30
ENDBRANCH  11  13
ENDBRANCH  10  11
ENDBRANCH   7  10
ENDBRANCH   2   3
TORSDOF 9
ENDMDL
MODEL      204
REMARK 921   NORMALIZED FREE ENERGY PREDICTED BY IDOCK:   -3.76 KCAL/MOL
REMARK 922        TOTAL FREE ENERGY PREDICTED BY IDOCK:   -7.27 KCAL/MOL
REMARK 923 INTER-LIGAND FREE ENERGY PREDICTED BY IDOCK:   -5.62 KCAL/MOL
REMARK 924 INTRA-LIGAND FREE ENERGY PREDICTED BY IDOCK:   -1.66 KCAL/MOL
REMARK 927      BINDING AFFINITY PREDICTED BY RF-SCORE:    0.00 PKD
ROOT
HETATM    1  C   UNL     1     -10.879   3.848  64.531  1.00  0.00    -0.098 C  
HETATM    2  O   UNL     1     -10.056   4.029  65.675  1.00  0.00    -0.184 OA 
ENDROOT
BRANCH   2   3
HETATM    3  C   UNL     1      -9.904   5.310  66.137  1.00  0.00    -0.165 A  
HETATM    4  C   UNL     1      -8.723   5.982  65.788  1.00  0.00    -0.151 A  
HETATM    5 CL   UNL     1      -7.464   5.190  64.902  1.00  0.00    -0.071 Cl 
HETATM    6  C   UNL     1      -8.518   7.316  66.159  1.00  0.00    -0.144 A  
HETATM    7  C   UNL     1      -9.500   8.011  66.876  1.00  0.00    -0.244 A  
HETATM    8  C   UNL     1     -10.871   5.996  66.878  1.00  0.00    -0.396 A  
HETATM    9  C   UNL     1     -10.666   7.330  67.250  1.00  0.00    -0.391 A  
BRANCH   7  10
HETATM   10  C   UNL     1      -9.285   9.452  67.282  1.00  0.00    -0.130 C  
BRANCH  10  11
HETATM   11  N   UNL     1      -7.853   9.686  67.344  1.00  0.00    -0.095 NA 
HETATM   12  H   UNL     1      -7.286   9.804  66.504  1.00  0.00     0.000 HD 
BRANCH  11  13
HETATM   13  C   UNL     1      -7.294   9.740  68.636  1.00  0.00    -0.074 A  
HETATM   14  C   UNL     1      -6.851  10.952  69.140  1.00  0.00    -0.086 A  
HETATM   15  C   UNL     1      -6.361  10.915  70.424  1.00  0.00    -0.089 A  
HETATM   16  N   UNL     1      -7.256   8.607  69.382  1.00  0.00    -0.057 NA 
HETATM   17  C   UNL     1      -6.776   8.662  70.640  1.00  0.00    -0.043 A  
HETATM   18  N   UNL     1      -6.301   9.794  71.176  1.00  0.00    -0.262 NA 
BRANCH  14  19
HETATM   19  C   UNL     1      -6.831  12.244  68.417  1.00  0.00    -0.075 C  
HETATM   20  O   UNL     1      -6.404  12.284  67.269  1.00  0.00    -0.140 OA 
HETATM   21  N   UNL     1      -7.334  13.345  69.067  1.00  0.00    -0.273 N  
HETATM   22  H   UNL     1      -7.727  13.229  70.002  1.00  0.00     0.000 HD 
BRANCH  21  23
HETATM   23  C   UNL     1      -7.326  14.672  68.469  1.00  0.00    -0.117 C  
BRANCH  23  24
HETATM   24  C   UNL     1      -8.683  15.351  68.409  1.00  0.00    -0.171 A  
HETATM   25  N   UNL     1      -9.347  15.492  69.578  1.00  0.00    -0.281 NA 
HETATM   26  C   UNL     1     -10.530  16.134  69.531  1.00  0.00    -0.295 A  
HETATM   27  N   UNL     1      -9.149  15.784  67.216  1.00  0.00    -0.202 NA 
HETATM   28  C   UNL     1     -10.334  16.427  67.234  1.00  0.00    -0.287 A  
HETATM   29  C   UNL     1     -11.076  16.631  68.374  1.00  0.00    -0.305 A  
ENDBRANCH  23  24
ENDBRANCH  21  23
ENDBRANCH  14  19
BRANCH  17  30
HETATM   30  N   UNL     1      -6.763   7.530  71.406  1.00  0.00    -0.049 NA 
HETATM   31  C   UNL     1      -7.867   5.929  72.765  1.00  0.00    -0.104 C  
HETATM   32  C   UNL     1      -6.298   6.251  70.919  1.00  0.00    -0.040 C  
HETATM   33  C   UNL     1      -7.516   7.422  72.655  1.00  0.00    -0.077 C  
HETATM   34  C   UNL     1      -7.249   5.241  71.552  1.00  0.00    -0.075 C  
BRANCH  33  35
HETATM   35  C   UNL     1      -6.641   7.889  73.835  1.00  0.00    -0.102 C  
HETATM   36  O   UNL     1      -6.941   9.237  74.209  1.00  0.00    -0.347 OA 
HETATM   37  H   UNL     1      -6.402   9.526  74.936  1.00  0.00     0.000 HD 
ENDBRANCH  33  35
ENDBRANCH  17  30
ENDBRANCH  11  13
ENDBRANCH  10  11
ENDBRANCH   7  10
ENDBRANCH   2   3
TORSDOF 9
ENDMDL
MODEL      205
REMARK 921   NORMALIZED FREE ENERGY PREDICTED BY IDOCK:   -3.72 KCAL/MOL
REMARK 922        TOTAL FREE ENERGY PREDICTED BY IDOCK:   -7.21 KCAL/MOL
REMARK 923 INTER-LIGAND FREE ENERGY PREDICTED BY IDOCK:   -6.34 KCAL/MOL
REMARK 924 INTRA-LIGAND FREE ENERGY PREDICTED BY IDOCK:   -0.86 KCAL/MOL
REMARK 927      BINDING AFFINITY PREDICTED BY RF-SCORE:    0.00 PKD
ROOT
HETATM    1  C   UNL     1      -6.606  11.979  69.738  1.00  0.00     0.001 C  
HETATM    2  O   UNL     1      -6.723  10.805  70.530  1.00  0.00    -0.312 OA 
ENDROOT
BRANCH   2   3
HETATM    3  C   UNL     1      -7.626   9.862  70.116  1.00  0.00    -0.175 A  
HETATM    4  C   UNL     1      -7.112   8.706  69.507  1.00  0.00    -0.055 A  
HETATM    5 CL   UNL     1      -5.419   8.529  69.196  1.00  0.00    -0.035 Cl 
HETATM    6  C   UNL     1      -7.959   7.662  69.117  1.00  0.00    -0.120 A  
HETATM    7  C   UNL     1      -9.339   7.746  69.343  1.00  0.00    -0.152 A  
HETATM    8  C   UNL     1      -9.006   9.956  70.314  1.00  0.00    -0.094 A  
HETATM    9  C   UNL     1      -9.854   8.912  69.923  1.00  0.00    -0.190 A  
BRANCH   7  10
HETATM   10  C   UNL     1     -10.259   6.622  68.922  1.00  0.00    -0.177 C  
BRANCH  10  11
HETATM   11  N   UNL     1     -11.037   7.087  67.787  1.00  0.00    -0.541 NA 
HETATM   12  H   UNL     1     -12.012   6.820  67.652  1.00  0.00     0.000 HD 
BRANCH  11  13
HETATM   13  C   UNL     1     -10.360   7.929  66.882  1.00  0.00    -0.330 A  
HETATM   14  C   UNL     1      -9.448   7.384  65.992  1.00  0.00     0.010 A  
HETATM   15  C   UNL     1      -8.870   8.276  65.119  1.00  0.00     0.020 A  
HETATM   16  N   UNL     1     -10.661   9.251  66.867  1.00  0.00    -0.211 NA 
HETATM   17  C   UNL     1     -10.061  10.054  65.965  1.00  0.00    -0.248 A  
HETATM   18  N   UNL     1      -9.146   9.599  65.100  1.00  0.00    -0.212 NA 
BRANCH  14  19
HETATM   19  C   UNL     1      -9.033   5.965  65.925  1.00  0.00    -0.140 C  
HETATM   20  O   UNL     1      -9.889   5.091  65.859  1.00  0.00    -0.169 OA 
HETATM   21  N   UNL     1      -7.686   5.696  65.906  1.00  0.00    -0.093 N  
HETATM   22  H   UNL     1      -7.027   6.475  65.906  1.00  0.00     0.000 HD 
BRANCH  21  23
HETATM   23  C   UNL     1      -7.165   4.337  65.885  1.00  0.00    -0.072 C  
BRANCH  23  24
HETATM   24  C   UNL     1      -7.152   3.641  67.234  1.00  0.00    -0.059 A  
HETATM   25  N   UNL     1      -7.051   2.293  67.225  1.00  0.00    -0.047 NA 
HETATM   26  C   UNL     1      -6.995   1.679  68.422  1.00  0.00    -0.036 A  
HETATM   27  N   UNL     1      -7.228   4.386  68.360  1.00  0.00    -0.059 NA 
HETATM   28  C   UNL     1      -7.157   3.717  69.528  1.00  0.00    -0.042 A  
HETATM   29  C   UNL     1      -7.040   2.349  69.619  1.00  0.00    -0.033 A  
ENDBRANCH  23  24
ENDBRANCH  21  23
ENDBRANCH  14  19
BRANCH  17  30
HETATM   30  N   UNL     1     -10.383  11.381  65.926  1.00  0.00    -0.243 NA 
HETATM   31  C   UNL     1     -11.979  13.135  66.002  1.00  0.00    -0.488 C  
HETATM   32  C   UNL     1      -9.812  12.361  66.823  1.00  0.00    -0.222 C  
HETATM   33  C   UNL     1     -11.561  11.880  65.218  1.00  0.00    -0.216 C  
HETATM   34  C   UNL     1     -10.968  13.307  67.130  1.00  0.00    -0.288 C  
BRANCH  33  35
HETATM   35  C   UNL     1     -11.190  12.217  63.759  1.00  0.00    -0.440 C  
HETATM   36  O   UNL     1     -11.885  11.376  62.834  1.00  0.00    -0.874 OA 
HETATM   37  H   UNL     1     -11.657  11.583  61.936  1.00  0.00     0.000 HD 
ENDBRANCH  33  35
ENDBRANCH  17  30
ENDBRANCH  11  13
ENDBRANCH  10  11
ENDBRANCH   7  10
ENDBRANCH   2   3
TORSDOF 9
ENDMDL
MODEL      206
REMARK 921   NORMALIZED FREE ENERGY PREDICTED BY IDOCK:   -3.69 KCAL/MOL
REMARK 922        TOTAL FREE ENERGY PREDICTED BY IDOCK:   -7.16 KCAL/MOL
REMARK 923 INTER-LIGAND FREE ENERGY PREDICTED BY IDOCK:   -6.21 KCAL/MOL
REMARK 924 INTRA-LIGAND FREE ENERGY PREDICTED BY IDOCK:   -0.95 KCAL/MOL
REMARK 927      BINDING AFFINITY PREDICTED BY RF-SCORE:    0.00 PKD
ROOT
HETATM    1  C   UNL     1     -12.900  13.964  65.126  1.00  0.00    -0.342 C  
HETATM    2  O   UNL     1     -11.783  14.082  65.995  1.00  0.00    -0.342 OA 
ENDROOT
BRANCH   2   3
HETATM    3  C   UNL     1     -11.687  13.172  67.014  1.00  0.00    -0.377 A  
HETATM    4  C   UNL     1     -11.238  11.883  66.683  1.00  0.00    -0.328 A  
HETATM    5 CL   UNL     1     -10.923  11.434  65.042  1.00  0.00    -0.310 Cl 
HETATM    6  C   UNL     1     -11.044  10.913  67.673  1.00  0.00    -0.376 A  
HETATM    7  C   UNL     1     -11.282  11.217  69.019  1.00  0.00    -0.321 A  
HETATM    8  C   UNL     1     -11.951  13.464  68.355  1.00  0.00    -0.359 A  
HETATM    9  C   UNL     1     -11.758  12.493  69.346  1.00  0.00    -0.383 A  
BRANCH   7  10
HETATM   10  C   UNL     1     -11.077  10.173  70.094  1.00  0.00    -0.315 C  
BRANCH  10  11
HETATM   11  N   UNL     1     -10.469   9.010  69.471  1.00  0.00    -0.216 NA 
HETATM   12  H   UNL     1     -11.025   8.281  69.024  1.00  0.00     0.000 HD 
BRANCH  11  13
HETATM   13  C   UNL     1      -9.062   8.949  69.525  1.00  0.00    -0.146 A  
HETATM   14  C   UNL     1      -8.426   7.722  69.425  1.00  0.00    -0.134 A  
HETATM   15  C   UNL     1      -7.052   7.766  69.443  1.00  0.00    -0.071 A  
HETATM   16  N   UNL     1      -8.359  10.105  69.616  1.00  0.00    -0.174 NA 
HETATM   17  C   UNL     1      -7.012  10.060  69.609  1.00  0.00    -0.096 A  
HETATM   18  N   UNL     1      -6.335   8.906  69.550  1.00  0.00    -0.043 NA 
BRANCH  14  19
HETATM   19  C   UNL     1      -9.086   6.400  69.335  1.00  0.00    -0.140 C  
HETATM   20  O   UNL     1      -9.674   5.954  70.313  1.00  0.00    -0.162 OA 
HETATM   21  N   UNL     1      -9.036   5.744  68.129  1.00  0.00    -0.111 N  
HETATM   22  H   UNL     1      -8.578   6.199  67.339  1.00  0.00     0.000 HD 
BRANCH  21  23
HETATM   23  C   UNL     1      -9.613   4.422  67.939  1.00  0.00    -0.152 C  
BRANCH  23  24
HETATM   24  C   UNL     1      -9.451   3.852  66.540  1.00  0.00    -0.195 A  
HETATM   25  N   UNL     1      -9.289   2.514  66.441  1.00  0.00    -0.026 NA 
HETATM   26  C   UNL     1      -9.189   2.005  65.198  1.00  0.00    -0.083 A  
HETATM   27  N   UNL     1      -9.487   4.692  65.480  1.00  0.00    -0.166 NA 
HETATM   28  C   UNL     1      -9.392   4.122  64.262  1.00  0.00    -0.159 A  
HETATM   29  C   UNL     1      -9.240   2.770  64.060  1.00  0.00    -0.111 A  
ENDBRANCH  23  24
ENDBRANCH  21  23
ENDBRANCH  14  19
BRANCH  17  30
HETATM   30  N   UNL     1      -6.299  11.225  69.670  1.00  0.00    -0.109 NA 
HETATM   31  C   UNL     1      -6.083  13.552  69.263  1.00  0.00    -0.097 C  
HETATM   32  C   UNL     1      -5.774  11.767  70.904  1.00  0.00    -0.010 C  
HETATM   33  C   UNL     1      -6.286  12.193  68.574  1.00  0.00    -0.053 C  
HETATM   34  C   UNL     1      -5.956  13.274  70.757  1.00  0.00    -0.050 C  
BRANCH  33  35
HETATM   35  C   UNL     1      -5.131  11.868  67.604  1.00  0.00    -0.070 C  
HETATM   36  O   UNL     1      -5.265  12.584  66.373  1.00  0.00    -0.179 OA 
HETATM   37  H   UNL     1      -4.554  12.384  65.775  1.00  0.00     0.000 HD 
ENDBRANCH  33  35
ENDBRANCH  17  30
ENDBRANCH  11  13
ENDBRANCH  10  11
ENDBRANCH   7  10
ENDBRANCH   2   3
TORSDOF 9
ENDMDL
MODEL      207
REMARK 921   NORMALIZED FREE ENERGY PREDICTED BY IDOCK:   -3.68 KCAL/MOL
REMARK 922        TOTAL FREE ENERGY PREDICTED BY IDOCK:   -7.14 KCAL/MOL
REMARK 923 INTER-LIGAND FREE ENERGY PREDICTED BY IDOCK:   -6.11 KCAL/MOL
REMARK 924 INTRA-LIGAND FREE ENERGY PREDICTED BY IDOCK:   -1.03 KCAL/MOL
REMARK 927      BINDING AFFINITY PREDICTED BY RF-SCORE:    0.00 PKD
ROOT
HETATM    1  C   UNL     1      -6.845  19.065  67.221  1.00  0.00    -0.206 C  
HETATM    2  O   UNL     1      -7.820  18.158  67.715  1.00  0.00    -0.228 OA 
ENDROOT
BRANCH   2   3
HETATM    3  C   UNL     1      -7.444  16.848  67.845  1.00  0.00    -0.169 A  
HETATM    4  C   UNL     1      -8.378  15.871  67.466  1.00  0.00    -0.163 A  
HETATM    5 CL   UNL     1      -9.976  16.303  66.958  1.00  0.00    -0.249 Cl 
HETATM    6  C   UNL     1      -8.051  14.511  67.500  1.00  0.00    -0.204 A  
HETATM    7  C   UNL     1      -6.773  14.099  67.901  1.00  0.00    -0.176 A  
HETATM    8  C   UNL     1      -6.179  16.433  68.273  1.00  0.00    -0.122 A  
HETATM    9  C   UNL     1      -5.851  15.072  68.308  1.00  0.00    -0.121 A  
BRANCH   7  10
HETATM   10  C   UNL     1      -6.414  12.631  67.943  1.00  0.00    -0.113 C  
BRANCH  10  11
HETATM   11  N   UNL     1      -6.623  12.085  66.613  1.00  0.00    -0.392 NA 
HETATM   12  H   UNL     1      -5.939  12.201  65.866  1.00  0.00     0.000 HD 
BRANCH  11  13
HETATM   13  C   UNL     1      -7.830  11.385  66.420  1.00  0.00    -0.067 A  
HETATM   14  C   UNL     1      -7.945  10.080  66.871  1.00  0.00    -0.113 A  
HETATM   15  C   UNL     1      -9.173   9.493  66.677  1.00  0.00    -0.152 A  
HETATM   16  N   UNL     1      -8.876  12.029  65.843  1.00  0.00     0.026 NA 
HETATM   17  C   UNL     1     -10.052  11.385  65.707  1.00  0.00    -0.246 A  
HETATM   18  N   UNL     1     -10.221  10.113  66.091  1.00  0.00    -0.235 NA 
BRANCH  14  19
HETATM   19  C   UNL     1      -6.873   9.276  67.501  1.00  0.00    -0.077 C  
HETATM   20  O   UNL     1      -5.801   9.145  66.921  1.00  0.00    -0.047 OA 
HETATM   21  N   UNL     1      -7.125   8.736  68.739  1.00  0.00    -0.063 N  
HETATM   22  H   UNL     1      -8.019   8.932  69.189  1.00  0.00     0.000 HD 
BRANCH  21  23
HETATM   23  C   UNL     1      -6.160   7.894  69.431  1.00  0.00    -0.034 C  
BRANCH  23  24
HETATM   24  C   UNL     1      -6.768   6.751  70.224  1.00  0.00    -0.053 A  
HETATM   25  N   UNL     1      -7.725   7.072  71.123  1.00  0.00    -0.090 NA 
HETATM   26  C   UNL     1      -8.295   6.054  71.794  1.00  0.00    -0.119 A  
HETATM   27  N   UNL     1      -6.342   5.489  69.991  1.00  0.00    -0.032 NA 
HETATM   28  C   UNL     1      -6.956   4.511  70.687  1.00  0.00    -0.037 A  
HETATM   29  C   UNL     1      -7.949   4.739  71.611  1.00  0.00    -0.103 A  
ENDBRANCH  23  24
ENDBRANCH  21  23
ENDBRANCH  14  19
BRANCH  17  30
HETATM   30  N   UNL     1     -11.118  12.039  65.154  1.00  0.00    -0.311 NA 
HETATM   31  C   UNL     1     -12.122  14.000  64.274  1.00  0.00    -0.476 C  
HETATM   32  C   UNL     1     -11.767  11.606  63.938  1.00  0.00    -0.273 C  
HETATM   33  C   UNL     1     -11.485  13.402  65.539  1.00  0.00    -0.305 C  
HETATM   34  C   UNL     1     -12.113  12.903  63.215  1.00  0.00    -0.520 C  
BRANCH  33  35
HETATM   35  C   UNL     1     -12.481  13.362  66.715  1.00  0.00    -0.104 C  
HETATM   36  O   UNL     1     -12.535  14.618  67.399  1.00  0.00    -0.537 OA 
HETATM   37  H   UNL     1     -13.149  14.594  68.123  1.00  0.00     0.000 HD 
ENDBRANCH  33  35
ENDBRANCH  17  30
ENDBRANCH  11  13
ENDBRANCH  10  11
ENDBRANCH   7  10
ENDBRANCH   2   3
TORSDOF 9
ENDMDL
MODEL      208
REMARK 921   NORMALIZED FREE ENERGY PREDICTED BY IDOCK:   -3.66 KCAL/MOL
REMARK 922        TOTAL FREE ENERGY PREDICTED BY IDOCK:   -7.11 KCAL/MOL
REMARK 923 INTER-LIGAND FREE ENERGY PREDICTED BY IDOCK:   -5.69 KCAL/MOL
REMARK 924 INTRA-LIGAND FREE ENERGY PREDICTED BY IDOCK:   -1.42 KCAL/MOL
REMARK 927      BINDING AFFINITY PREDICTED BY RF-SCORE:    0.00 PKD
ROOT
HETATM    1  C   UNL     1      -7.103   3.307  69.707  1.00  0.00    -0.041 C  
HETATM    2  O   UNL     1      -7.541   3.579  68.383  1.00  0.00    -0.056 OA 
ENDROOT
BRANCH   2   3
HETATM    3  C   UNL     1      -8.152   4.786  68.164  1.00  0.00    -0.085 A  
HETATM    4  C   UNL     1      -7.361   5.821  67.642  1.00  0.00    -0.077 A  
HETATM    5 CL   UNL     1      -5.661   5.614  67.386  1.00  0.00    -0.016 Cl 
HETATM    6  C   UNL     1      -7.921   7.064  67.324  1.00  0.00    -0.111 A  
HETATM    7  C   UNL     1      -9.290   7.292  67.509  1.00  0.00    -0.144 A  
HETATM    8  C   UNL     1      -9.513   5.025  68.375  1.00  0.00    -0.178 A  
HETATM    9  C   UNL     1     -10.074   6.269  68.058  1.00  0.00    -0.174 A  
BRANCH   7  10
HETATM   10  C   UNL     1      -9.901   8.633  67.169  1.00  0.00    -0.207 C  
BRANCH  10  11
HETATM   11  N   UNL     1     -10.209   9.309  68.417  1.00  0.00    -0.195 NA 
HETATM   12  H   UNL     1     -11.151   9.627  68.644  1.00  0.00     0.000 HD 
BRANCH  11  13
HETATM   13  C   UNL     1      -9.124   9.501  69.296  1.00  0.00    -0.161 A  
HETATM   14  C   UNL     1      -8.263  10.568  69.097  1.00  0.00    -0.152 A  
HETATM   15  C   UNL     1      -7.260  10.700  70.029  1.00  0.00    -0.033 A  
HETATM   16  N   UNL     1      -8.982   8.664  70.353  1.00  0.00    -0.149 NA 
HETATM   17  C   UNL     1      -7.981   8.875  71.231  1.00  0.00    -0.129 A  
HETATM   18  N   UNL     1      -7.093   9.867  71.080  1.00  0.00    -0.319 NA 
BRANCH  14  19
HETATM   19  C   UNL     1      -8.312  11.534  67.976  1.00  0.00    -0.146 C  
HETATM   20  O   UNL     1      -7.398  11.555  67.160  1.00  0.00    -0.122 OA 
HETATM   21  N   UNL     1      -9.415  12.348  67.885  1.00  0.00    -0.192 N  
HETATM   22  H   UNL     1     -10.167  12.238  68.567  1.00  0.00     0.000 HD 
BRANCH  21  23
HETATM   23  C   UNL     1      -9.550  13.362  66.850  1.00  0.00    -0.257 C  
BRANCH  23  24
HETATM   24  C   UNL     1     -10.540  13.022  65.751  1.00  0.00    -0.277 A  
HETATM   25  N   UNL     1     -10.829  14.000  64.864  1.00  0.00    -0.387 NA 
HETATM   26  C   UNL     1     -11.674  13.684  63.864  1.00  0.00    -0.320 A  
HETATM   27  N   UNL     1     -11.068  11.777  65.704  1.00  0.00    -0.304 NA 
HETATM   28  C   UNL     1     -11.899  11.517  64.675  1.00  0.00     0.093 A  
HETATM   29  C   UNL     1     -12.241  12.443  63.716  1.00  0.00    -0.626 A  
ENDBRANCH  23  24
ENDBRANCH  21  23
ENDBRANCH  14  19
BRANCH  17  30
HETATM   30  N   UNL     1      -7.851   8.053  72.315  1.00  0.00    -0.109 NA 
HETATM   31  C   UNL     1      -7.598   5.894  73.266  1.00  0.00    -0.098 C  
HETATM   32  C   UNL     1      -6.808   8.206  73.304  1.00  0.00    -0.108 C  
HETATM   33  C   UNL     1      -8.530   6.760  72.402  1.00  0.00    -0.119 C  
HETATM   34  C   UNL     1      -6.419   6.776  73.663  1.00  0.00    -0.067 C  
BRANCH  33  35
HETATM   35  C   UNL     1      -9.913   6.939  73.060  1.00  0.00    -0.187 C  
HETATM   36  O   UNL     1     -10.959   6.432  72.226  1.00  0.00    -0.232 OA 
HETATM   37  H   UNL     1     -11.811   6.542  72.630  1.00  0.00     0.000 HD 
ENDBRANCH  33  35
ENDBRANCH  17  30
ENDBRANCH  11  13
ENDBRANCH  10  11
ENDBRANCH   7  10
ENDBRANCH   2   3
TORSDOF 9
ENDMDL
MODEL      209
REMARK 921   NORMALIZED FREE ENERGY PREDICTED BY IDOCK:   -3.65 KCAL/MOL
REMARK 922        TOTAL FREE ENERGY PREDICTED BY IDOCK:   -7.10 KCAL/MOL
REMARK 923 INTER-LIGAND FREE ENERGY PREDICTED BY IDOCK:   -5.56 KCAL/MOL
REMARK 924 INTRA-LIGAND FREE ENERGY PREDICTED BY IDOCK:   -1.54 KCAL/MOL
REMARK 927      BINDING AFFINITY PREDICTED BY RF-SCORE:    0.00 PKD
ROOT
HETATM    1  C   UNL     1     -10.209   4.943  72.798  1.00  0.00    -0.180 C  
HETATM    2  O   UNL     1     -10.154   4.730  71.395  1.00  0.00    -0.188 OA 
ENDROOT
BRANCH   2   3
HETATM    3  C   UNL     1      -9.550   5.702  70.640  1.00  0.00    -0.168 A  
HETATM    4  C   UNL     1     -10.386   6.640  70.014  1.00  0.00    -0.199 A  
HETATM    5 CL   UNL     1     -12.109   6.511  70.103  1.00  0.00    -0.250 Cl 
HETATM    6  C   UNL     1      -9.849   7.706  69.283  1.00  0.00    -0.168 A  
HETATM    7  C   UNL     1      -8.461   7.864  69.175  1.00  0.00    -0.137 A  
HETATM    8  C   UNL     1      -8.166   5.845  70.507  1.00  0.00    -0.119 A  
HETATM    9  C   UNL     1      -7.628   6.910  69.775  1.00  0.00    -0.104 A  
BRANCH   7  10
HETATM   10  C   UNL     1      -7.875   9.012  68.384  1.00  0.00    -0.103 C  
BRANCH  10  11
HETATM   11  N   UNL     1      -6.838   8.473  67.522  1.00  0.00    -0.070 NA 
HETATM   12  H   UNL     1      -5.849   8.670  67.674  1.00  0.00     0.000 HD 
BRANCH  11  13
HETATM   13  C   UNL     1      -7.283   7.661  66.460  1.00  0.00    -0.082 A  
HETATM   14  C   UNL     1      -7.863   8.247  65.346  1.00  0.00    -0.113 A  
HETATM   15  C   UNL     1      -8.226   7.379  64.343  1.00  0.00    -0.001 A  
HETATM   16  N   UNL     1      -7.081   6.321  66.530  1.00  0.00    -0.067 NA 
HETATM   17  C   UNL     1      -7.450   5.543  65.493  1.00  0.00    -0.074 A  
HETATM   18  N   UNL     1      -8.047   6.041  64.402  1.00  0.00    -0.132 NA 
BRANCH  14  19
HETATM   19  C   UNL     1      -8.145   9.689  65.165  1.00  0.00    -0.124 C  
HETATM   20  O   UNL     1      -7.239  10.501  65.312  1.00  0.00    -0.128 OA 
HETATM   21  N   UNL     1      -9.421  10.048  64.802  1.00  0.00    -0.285 N  
HETATM   22  H   UNL     1     -10.112   9.315  64.642  1.00  0.00     0.000 HD 
BRANCH  21  23
HETATM   23  C   UNL     1      -9.820  11.437  64.639  1.00  0.00    -0.259 C  
BRANCH  23  24
HETATM   24  C   UNL     1     -10.587  12.021  65.813  1.00  0.00    -0.263 A  
HETATM   25  N   UNL     1     -10.880  11.180  66.829  1.00  0.00    -0.274 NA 
HETATM   26  C   UNL     1     -11.521  11.707  67.889  1.00  0.00    -0.311 A  
HETATM   27  N   UNL     1     -10.922  13.331  65.794  1.00  0.00    -0.270 NA 
HETATM   28  C   UNL     1     -11.554  13.804  66.887  1.00  0.00    -0.370 A  
HETATM   29  C   UNL     1     -11.882  13.029  67.975  1.00  0.00    -0.391 A  
ENDBRANCH  23  24
ENDBRANCH  21  23
ENDBRANCH  14  19
BRANCH  17  30
HETATM   30  N   UNL     1      -7.221   4.197  65.546  1.00  0.00    -0.070 NA 
HETATM   31  C   UNL     1      -6.875   2.106  64.481  1.00  0.00    -0.042 C  
HETATM   32  C   UNL     1      -6.095   3.613  66.239  1.00  0.00    -0.024 C  
HETATM   33  C   UNL     1      -7.883   3.255  64.645  1.00  0.00    -0.078 C  
HETATM   34  C   UNL     1      -5.669   2.450  65.349  1.00  0.00    -0.017 C  
BRANCH  33  35
HETATM   35  C   UNL     1      -9.204   2.768  65.275  1.00  0.00    -0.130 C  
HETATM   36  O   UNL     1     -10.322   3.045  64.428  1.00  0.00    -0.370 OA 
HETATM   37  H   UNL     1     -11.136   2.746  64.816  1.00  0.00     0.000 HD 
ENDBRANCH  33  35
ENDBRANCH  17  30
ENDBRANCH  11  13
ENDBRANCH  10  11
ENDBRANCH   7  10
ENDBRANCH   2   3
TORSDOF 9
ENDMDL
MODEL      210
REMARK 921   NORMALIZED FREE ENERGY PREDICTED BY IDOCK:   -3.64 KCAL/MOL
REMARK 922        TOTAL FREE ENERGY PREDICTED BY IDOCK:   -7.09 KCAL/MOL
REMARK 923 INTER-LIGAND FREE ENERGY PREDICTED BY IDOCK:   -5.63 KCAL/MOL
REMARK 924 INTRA-LIGAND FREE ENERGY PREDICTED BY IDOCK:   -1.46 KCAL/MOL
REMARK 927      BINDING AFFINITY PREDICTED BY RF-SCORE:    0.00 PKD
ROOT
HETATM    1  C   UNL     1      -8.951   3.829  64.563  1.00  0.00    -0.124 C  
HETATM    2  O   UNL     1      -9.905   3.751  65.614  1.00  0.00    -0.169 OA 
ENDROOT
BRANCH   2   3
HETATM    3  C   UNL     1     -10.032   4.849  66.422  1.00  0.00    -0.234 A  
HETATM    4  C   UNL     1      -9.128   4.969  67.489  1.00  0.00    -0.116 A  
HETATM    5 CL   UNL     1      -7.971   3.729  67.832  1.00  0.00    -0.083 Cl 
HETATM    6  C   UNL     1      -9.143   6.094  68.321  1.00  0.00    -0.112 A  
HETATM    7  C   UNL     1     -10.056   7.132  68.094  1.00  0.00    -0.195 A  
HETATM    8  C   UNL     1     -10.961   5.873  66.215  1.00  0.00     0.133 A  
HETATM    9  C   UNL     1     -10.978   6.998  67.048  1.00  0.00    -0.357 A  
BRANCH   7  10
HETATM   10  C   UNL     1     -10.079   8.350  68.991  1.00  0.00    -0.203 C  
BRANCH  10  11
HETATM   11  N   UNL     1      -8.715   8.831  69.121  1.00  0.00    -0.134 NA 
HETATM   12  H   UNL     1      -7.984   8.276  69.567  1.00  0.00     0.000 HD 
BRANCH  11  13
HETATM   13  C   UNL     1      -8.462  10.112  68.593  1.00  0.00    -0.122 A  
HETATM   14  C   UNL     1      -7.346  10.817  69.013  1.00  0.00    -0.109 A  
HETATM   15  C   UNL     1      -7.158  12.040  68.412  1.00  0.00    -0.084 A  
HETATM   16  N   UNL     1      -9.293  10.604  67.640  1.00  0.00    -0.146 NA 
HETATM   17  C   UNL     1      -9.025  11.805  67.089  1.00  0.00    -0.177 A  
HETATM   18  N   UNL     1      -7.982  12.553  67.472  1.00  0.00    -0.164 NA 
BRANCH  14  19
HETATM   19  C   UNL     1      -6.381  10.388  70.051  1.00  0.00    -0.111 C  
HETATM   20  O   UNL     1      -5.250  10.860  70.052  1.00  0.00    -0.042 OA 
HETATM   21  N   UNL     1      -6.819   9.494  70.997  1.00  0.00    -0.073 N  
HETATM   22  H   UNL     1      -7.791   9.184  70.970  1.00  0.00     0.000 HD 
BRANCH  21  23
HETATM   23  C   UNL     1      -5.945   8.971  72.037  1.00  0.00    -0.068 C  
BRANCH  23  24
HETATM   24  C   UNL     1      -6.255   7.551  72.473  1.00  0.00    -0.047 A  
HETATM   25  N   UNL     1      -7.488   7.321  72.976  1.00  0.00    -0.072 NA 
HETATM   26  C   UNL     1      -7.777   6.053  73.322  1.00  0.00    -0.101 A  
HETATM   27  N   UNL     1      -5.306   6.596  72.330  1.00  0.00    -0.035 NA 
HETATM   28  C   UNL     1      -5.658   5.344  72.684  1.00  0.00    -0.022 A  
HETATM   29  C   UNL     1      -6.892   5.012  73.192  1.00  0.00    -0.073 A  
ENDBRANCH  23  24
ENDBRANCH  21  23
ENDBRANCH  14  19
BRANCH  17  30
HETATM   30  N   UNL     1      -9.842  12.291  66.106  1.00  0.00    -0.240 NA 
HETATM   31  C   UNL     1     -11.929  12.349  64.980  1.00  0.00    -0.458 C  
HETATM   32  C   UNL     1     -10.135  13.698  65.946  1.00  0.00    -0.310 C  
HETATM   33  C   UNL     1     -10.751  11.432  65.348  1.00  0.00    -0.253 C  
HETATM   34  C   UNL     1     -11.604  13.730  65.538  1.00  0.00    -0.335 C  
BRANCH  33  35
HETATM   35  C   UNL     1     -10.034  10.894  64.093  1.00  0.00    -0.344 C  
HETATM   36  O   UNL     1     -10.593  11.441  62.895  1.00  0.00    -0.650 OA 
HETATM   37  H   UNL     1     -10.152  11.110  62.122  1.00  0.00     0.000 HD 
ENDBRANCH  33  35
ENDBRANCH  17  30
ENDBRANCH  11  13
ENDBRANCH  10  11
ENDBRANCH   7  10
ENDBRANCH   2   3
TORSDOF 9
ENDMDL
MODEL      211
REMARK 921   NORMALIZED FREE ENERGY PREDICTED BY IDOCK:   -3.61 KCAL/MOL
REMARK 922        TOTAL FREE ENERGY PREDICTED BY IDOCK:   -7.03 KCAL/MOL
REMARK 923 INTER-LIGAND FREE ENERGY PREDICTED BY IDOCK:   -6.66 KCAL/MOL
REMARK 924 INTRA-LIGAND FREE ENERGY PREDICTED BY IDOCK:   -0.37 KCAL/MOL
REMARK 927      BINDING AFFINITY PREDICTED BY RF-SCORE:    0.00 PKD
ROOT
HETATM    1  C   UNL     1      -7.085  19.736  68.537  1.00  0.00    -0.318 C  
HETATM    2  O   UNL     1      -8.191  18.846  68.607  1.00  0.00    -0.338 OA 
ENDROOT
BRANCH   2   3
HETATM    3  C   UNL     1      -7.922  17.543  68.931  1.00  0.00    -0.180 A  
HETATM    4  C   UNL     1      -8.972  16.620  68.801  1.00  0.00    -0.253 A  
HETATM    5 CL   UNL     1     -10.566  17.127  68.354  1.00  0.00    -0.367 Cl 
HETATM    6  C   UNL     1      -8.766  15.257  69.044  1.00  0.00    -0.226 A  
HETATM    7  C   UNL     1      -7.498  14.786  69.408  1.00  0.00    -0.147 A  
HETATM    8  C   UNL     1      -6.665  17.074  69.323  1.00  0.00    -0.234 A  
HETATM    9  C   UNL     1      -6.458  15.711  69.567  1.00  0.00    -0.173 A  
BRANCH   7  10
HETATM   10  C   UNL     1      -7.269  13.315  69.674  1.00  0.00     0.450 C  
BRANCH  10  11
HETATM   11  N   UNL     1      -6.869  12.695  68.423  1.00  0.00    -0.082 NA 
HETATM   12  H   UNL     1      -5.938  12.826  68.026  1.00  0.00     0.000 HD 
BRANCH  11  13
HETATM   13  C   UNL     1      -7.846  11.901  67.791  1.00  0.00    -0.138 A  
HETATM   14  C   UNL     1      -8.206  10.685  68.349  1.00  0.00    -0.125 A  
HETATM   15  C   UNL     1      -9.198  10.000  67.687  1.00  0.00    -0.137 A  
HETATM   16  N   UNL     1      -8.455  12.375  66.675  1.00  0.00    -0.095 NA 
HETATM   17  C   UNL     1      -9.432  11.647  66.098  1.00  0.00    -0.224 A  
HETATM   18  N   UNL     1      -9.804  10.449  66.566  1.00  0.00    -0.197 NA 
BRANCH  14  19
HETATM   19  C   UNL     1      -7.605  10.063  69.551  1.00  0.00    -0.133 C  
HETATM   20  O   UNL     1      -6.791  10.698  70.213  1.00  0.00    -0.218 OA 
HETATM   21  N   UNL     1      -8.020   8.798  69.890  1.00  0.00    -0.101 N  
HETATM   22  H   UNL     1      -8.743   8.349  69.326  1.00  0.00     0.000 HD 
BRANCH  21  23
HETATM   23  C   UNL     1      -7.466   8.075  71.024  1.00  0.00    -0.071 C  
BRANCH  23  24
HETATM   24  C   UNL     1      -7.397   6.569  70.846  1.00  0.00    -0.083 A  
HETATM   25  N   UNL     1      -7.931   5.812  71.831  1.00  0.00    -0.106 NA 
HETATM   26  C   UNL     1      -7.909   4.478  71.652  1.00  0.00    -0.091 A  
HETATM   27  N   UNL     1      -6.828   6.064  69.728  1.00  0.00    -0.062 NA 
HETATM   28  C   UNL     1      -6.845   4.722  69.601  1.00  0.00    -0.052 A  
HETATM   29  C   UNL     1      -7.377   3.872  70.541  1.00  0.00    -0.041 A  
ENDBRANCH  23  24
ENDBRANCH  21  23
ENDBRANCH  14  19
BRANCH  17  30
HETATM   30  N   UNL     1     -10.069  12.134  64.991  1.00  0.00    -0.271 NA 
HETATM   31  C   UNL     1     -11.941  12.207  63.536  1.00  0.00    -0.619 C  
HETATM   32  C   UNL     1     -10.311  13.543  64.773  1.00  0.00    -0.385 C  
HETATM   33  C   UNL     1     -10.853  11.279  64.100  1.00  0.00    -0.337 C  
HETATM   34  C   UNL     1     -11.693  13.590  64.129  1.00  0.00    -0.453 C  
BRANCH  33  35
HETATM   35  C   UNL     1      -9.948  10.718  62.984  1.00  0.00    -0.243 C  
HETATM   36  O   UNL     1      -8.877  11.615  62.678  1.00  0.00    -0.611 OA 
HETATM   37  H   UNL     1      -8.319  11.271  61.991  1.00  0.00     0.000 HD 
ENDBRANCH  33  35
ENDBRANCH  17  30
ENDBRANCH  11  13
ENDBRANCH  10  11
ENDBRANCH   7  10
ENDBRANCH   2   3
TORSDOF 9
ENDMDL
MODEL      212
REMARK 921   NORMALIZED FREE ENERGY PREDICTED BY IDOCK:   -3.61 KCAL/MOL
REMARK 922        TOTAL FREE ENERGY PREDICTED BY IDOCK:   -7.03 KCAL/MOL
REMARK 923 INTER-LIGAND FREE ENERGY PREDICTED BY IDOCK:   -5.57 KCAL/MOL
REMARK 924 INTRA-LIGAND FREE ENERGY PREDICTED BY IDOCK:   -1.47 KCAL/MOL
REMARK 927      BINDING AFFINITY PREDICTED BY RF-SCORE:    0.00 PKD
ROOT
HETATM    1  C   UNL     1      -9.317   5.959  66.141  1.00  0.00    -0.132 C  
HETATM    2  O   UNL     1     -10.476   6.595  66.660  1.00  0.00    -0.214 OA 
ENDROOT
BRANCH   2   3
HETATM    3  C   UNL     1     -10.361   7.916  67.005  1.00  0.00    -0.341 A  
HETATM    4  C   UNL     1     -10.033   8.205  68.339  1.00  0.00    -0.190 A  
HETATM    5 CL   UNL     1      -9.885   6.950  69.521  1.00  0.00    -0.159 Cl 
HETATM    6  C   UNL     1      -9.828   9.524  68.759  1.00  0.00    -0.177 A  
HETATM    7  C   UNL     1      -9.932  10.583  67.848  1.00  0.00    -0.193 A  
HETATM    8  C   UNL     1     -10.494   8.976  66.104  1.00  0.00     0.193 A  
HETATM    9  C   UNL     1     -10.290  10.296  66.524  1.00  0.00    -0.276 A  
BRANCH   7  10
HETATM   10  C   UNL     1      -9.714  12.010  68.297  1.00  0.00    -0.205 C  
BRANCH  10  11
HETATM   11  N   UNL     1      -8.319  12.341  68.061  1.00  0.00    -0.157 NA 
HETATM   12  H   UNL     1      -7.697  11.725  67.538  1.00  0.00     0.000 HD 
BRANCH  11  13
HETATM   13  C   UNL     1      -7.879  13.567  68.599  1.00  0.00    -0.084 A  
HETATM   14  C   UNL     1      -6.830  13.579  69.503  1.00  0.00     0.048 A  
HETATM   15  C   UNL     1      -6.441  14.824  69.941  1.00  0.00    -0.164 A  
HETATM   16  N   UNL     1      -8.460  14.716  68.173  1.00  0.00    -0.149 NA 
HETATM   17  C   UNL     1      -8.006  15.896  68.639  1.00  0.00    -0.156 A  
HETATM   18  N   UNL     1      -7.018  15.978  69.540  1.00  0.00    -0.209 NA 
BRANCH  14  19
HETATM   19  C   UNL     1      -6.131  12.393  70.047  1.00  0.00    -0.123 C  
HETATM   20  O   UNL     1      -5.506  12.492  71.097  1.00  0.00    -0.271 OA 
HETATM   21  N   UNL     1      -6.248  11.211  69.355  1.00  0.00    -0.068 N  
HETATM   22  H   UNL     1      -6.832  11.186  68.518  1.00  0.00     0.000 HD 
BRANCH  21  23
HETATM   23  C   UNL     1      -5.570   9.994  69.775  1.00  0.00    -0.038 C  
BRANCH  23  24
HETATM   24  C   UNL     1      -6.376   9.106  70.706  1.00  0.00    -0.064 A  
HETATM   25  N   UNL     1      -7.492   9.641  71.246  1.00  0.00    -0.252 NA 
HETATM   26  C   UNL     1      -8.230   8.839  72.037  1.00  0.00    -0.010 A  
HETATM   27  N   UNL     1      -5.954   7.841  70.936  1.00  0.00    -0.034 NA 
HETATM   28  C   UNL     1      -6.739   7.083  71.728  1.00  0.00    -0.053 A  
HETATM   29  C   UNL     1      -7.900   7.535  72.311  1.00  0.00    -0.109 A  
ENDBRANCH  23  24
ENDBRANCH  21  23
ENDBRANCH  14  19
BRANCH  17  30
HETATM   30  N   UNL     1      -8.568  17.059  68.190  1.00  0.00    -0.221 NA 
HETATM   31  C   UNL     1      -9.582  18.349  66.477  1.00  0.00    -0.327 C  
HETATM   32  C   UNL     1      -9.706  17.684  68.825  1.00  0.00    -0.311 C  
HETATM   33  C   UNL     1      -8.298  17.594  66.856  1.00  0.00    -0.236 C  
HETATM   34  C   UNL     1     -10.532  18.227  67.664  1.00  0.00    -0.431 C  
BRANCH  33  35
HETATM   35  C   UNL     1      -7.077  18.536  66.908  1.00  0.00    -0.203 C  
HETATM   36  O   UNL     1      -7.423  19.864  66.504  1.00  0.00    -0.252 OA 
HETATM   37  H   UNL     1      -6.672  20.444  66.536  1.00  0.00     0.000 HD 
ENDBRANCH  33  35
ENDBRANCH  17  30
ENDBRANCH  11  13
ENDBRANCH  10  11
ENDBRANCH   7  10
ENDBRANCH   2   3
TORSDOF 9
ENDMDL
MODEL      213
REMARK 921   NORMALIZED FREE ENERGY PREDICTED BY IDOCK:   -3.60 KCAL/MOL
REMARK 922        TOTAL FREE ENERGY PREDICTED BY IDOCK:   -7.03 KCAL/MOL
REMARK 923 INTER-LIGAND FREE ENERGY PREDICTED BY IDOCK:   -5.47 KCAL/MOL
REMARK 924 INTRA-LIGAND FREE ENERGY PREDICTED BY IDOCK:   -1.56 KCAL/MOL
REMARK 927      BINDING AFFINITY PREDICTED BY RF-SCORE:    0.00 PKD
ROOT
HETATM    1  C   UNL     1     -10.070   5.590  74.253  1.00  0.00    -0.256 C  
HETATM    2  O   UNL     1     -11.077   5.191  73.333  1.00  0.00    -0.297 OA 
ENDROOT
BRANCH   2   3
HETATM    3  C   UNL     1     -10.952   5.634  72.042  1.00  0.00    -0.243 A  
HETATM    4  C   UNL     1     -11.262   6.980  71.792  1.00  0.00    -0.246 A  
HETATM    5 CL   UNL     1     -11.878   8.008  73.040  1.00  0.00    -0.170 Cl 
HETATM    6  C   UNL     1     -11.095   7.531  70.517  1.00  0.00    -0.275 A  
HETATM    7  C   UNL     1     -10.599   6.749  69.466  1.00  0.00    -0.265 A  
HETATM    8  C   UNL     1     -10.485   4.847  70.985  1.00  0.00    -0.164 A  
HETATM    9  C   UNL     1     -10.319   5.398  69.708  1.00  0.00    -0.375 A  
BRANCH   7  10
HETATM   10  C   UNL     1     -10.419   7.338  68.085  1.00  0.00    -0.198 C  
BRANCH  10  11
HETATM   11  N   UNL     1      -9.004   7.285  67.760  1.00  0.00    -0.127 NA 
HETATM   12  H   UNL     1      -8.407   6.517  68.066  1.00  0.00     0.000 HD 
BRANCH  11  13
HETATM   13  C   UNL     1      -8.507   8.360  66.997  1.00  0.00    -0.122 A  
HETATM   14  C   UNL     1      -8.003   8.123  65.729  1.00  0.00    -0.105 A  
HETATM   15  C   UNL     1      -7.581   9.238  65.043  1.00  0.00    -0.107 A  
HETATM   16  N   UNL     1      -8.588   9.616  67.504  1.00  0.00    -0.125 NA 
HETATM   17  C   UNL     1      -8.168  10.656  66.757  1.00  0.00    -0.130 A  
HETATM   18  N   UNL     1      -7.639  10.494  65.537  1.00  0.00    -0.145 NA 
BRANCH  14  19
HETATM   19  C   UNL     1      -7.855   6.801  65.080  1.00  0.00    -0.119 C  
HETATM   20  O   UNL     1      -8.272   6.641  63.939  1.00  0.00    -0.056 OA 
HETATM   21  N   UNL     1      -7.216   5.812  65.789  1.00  0.00    -0.073 N  
HETATM   22  H   UNL     1      -6.843   6.030  66.713  1.00  0.00     0.000 HD 
BRANCH  21  23
HETATM   23  C   UNL     1      -7.053   4.463  65.267  1.00  0.00    -0.066 C  
BRANCH  23  24
HETATM   24  C   UNL     1      -7.724   3.377  66.090  1.00  0.00    -0.081 A  
HETATM   25  N   UNL     1      -7.558   3.436  67.430  1.00  0.00    -0.076 NA 
HETATM   26  C   UNL     1      -8.189   2.499  68.163  1.00  0.00    -0.058 A  
HETATM   27  N   UNL     1      -8.452   2.428  65.458  1.00  0.00    -0.099 NA 
HETATM   28  C   UNL     1      -9.068   1.523  66.246  1.00  0.00    -0.036 A  
HETATM   29  C   UNL     1      -8.969   1.511  67.617  1.00  0.00    -0.159 A  
ENDBRANCH  23  24
ENDBRANCH  21  23
ENDBRANCH  14  19
BRANCH  17  30
HETATM   30  N   UNL     1      -8.275  11.926  67.251  1.00  0.00    -0.162 NA 
HETATM   31  C   UNL     1      -7.626  14.208  67.271  1.00  0.00    -0.104 C  
HETATM   32  C   UNL     1      -9.519  12.662  67.280  1.00  0.00    -0.199 C  
HETATM   33  C   UNL     1      -7.107  12.776  67.481  1.00  0.00    -0.148 C  
HETATM   34  C   UNL     1      -9.114  14.095  66.954  1.00  0.00    -0.260 C  
BRANCH  33  35
HETATM   35  C   UNL     1      -6.582  12.566  68.916  1.00  0.00    -0.095 C  
HETATM   36  O   UNL     1      -7.107  13.547  69.815  1.00  0.00    -0.327 OA 
HETATM   37  H   UNL     1      -6.784  13.418  70.699  1.00  0.00     0.000 HD 
ENDBRANCH  33  35
ENDBRANCH  17  30
ENDBRANCH  11  13
ENDBRANCH  10  11
ENDBRANCH   7  10
ENDBRANCH   2   3
TORSDOF 9
ENDMDL
MODEL      214
REMARK 921   NORMALIZED FREE ENERGY PREDICTED BY IDOCK:   -3.58 KCAL/MOL
REMARK 922        TOTAL FREE ENERGY PREDICTED BY IDOCK:   -7.00 KCAL/MOL
REMARK 923 INTER-LIGAND FREE ENERGY PREDICTED BY IDOCK:   -5.52 KCAL/MOL
REMARK 924 INTRA-LIGAND FREE ENERGY PREDICTED BY IDOCK:   -1.48 KCAL/MOL
REMARK 927      BINDING AFFINITY PREDICTED BY RF-SCORE:    0.00 PKD
ROOT
HETATM    1  C   UNL     1      -9.781   6.619  73.518  1.00  0.00    -0.191 C  
HETATM    2  O   UNL     1     -10.160   6.499  72.154  1.00  0.00    -0.180 OA 
ENDROOT
BRANCH   2   3
HETATM    3  C   UNL     1     -10.226   7.655  71.421  1.00  0.00    -0.185 A  
HETATM    4  C   UNL     1      -9.016   8.176  70.934  1.00  0.00    -0.146 A  
HETATM    5 CL   UNL     1      -7.498   7.448  71.333  1.00  0.00    -0.079 Cl 
HETATM    6  C   UNL     1      -8.999   9.314  70.120  1.00  0.00    -0.239 A  
HETATM    7  C   UNL     1     -10.196   9.947  69.762  1.00  0.00    -0.278 A  
HETATM    8  C   UNL     1     -11.417   8.306  71.087  1.00  0.00    -0.307 A  
HETATM    9  C   UNL     1     -11.400   9.445  70.272  1.00  0.00    -0.261 A  
BRANCH   7  10
HETATM   10  C   UNL     1     -10.185  11.178  68.883  1.00  0.00    -0.194 C  
BRANCH  10  11
HETATM   11  N   UNL     1      -9.329  10.902  67.743  1.00  0.00    -0.155 NA 
HETATM   12  H   UNL     1      -9.529  10.149  67.084  1.00  0.00     0.000 HD 
BRANCH  11  13
HETATM   13  C   UNL     1      -8.203  11.737  67.604  1.00  0.00    -0.145 A  
HETATM   14  C   UNL     1      -6.961  11.176  67.350  1.00  0.00    -0.093 A  
HETATM   15  C   UNL     1      -5.931  12.071  67.186  1.00  0.00    -0.153 A  
HETATM   16  N   UNL     1      -8.373  13.082  67.665  1.00  0.00    -0.167 NA 
HETATM   17  C   UNL     1      -7.311  13.890  67.475  1.00  0.00    -0.166 A  
HETATM   18  N   UNL     1      -6.078  13.413  67.260  1.00  0.00    -0.286 NA 
BRANCH  14  19
HETATM   19  C   UNL     1      -6.656   9.730  67.275  1.00  0.00    -0.070 C  
HETATM   20  O   UNL     1      -5.808   9.255  68.022  1.00  0.00    -0.038 OA 
HETATM   21  N   UNL     1      -7.373   8.973  66.379  1.00  0.00    -0.087 N  
HETATM   22  H   UNL     1      -8.103   9.423  65.828  1.00  0.00     0.000 HD 
BRANCH  21  23
HETATM   23  C   UNL     1      -7.126   7.551  66.191  1.00  0.00    -0.070 C  
BRANCH  23  24
HETATM   24  C   UNL     1      -7.516   7.014  64.825  1.00  0.00    -0.096 A  
HETATM   25  N   UNL     1      -6.960   7.617  63.750  1.00  0.00    -0.058 NA 
HETATM   26  C   UNL     1      -7.272   7.112  62.542  1.00  0.00    -0.078 A  
HETATM   27  N   UNL     1      -8.374   5.971  64.749  1.00  0.00    -0.120 NA 
HETATM   28  C   UNL     1      -8.640   5.503  63.513  1.00  0.00     0.047 A  
HETATM   29  C   UNL     1      -8.112   6.041  62.362  1.00  0.00    -0.101 A  
ENDBRANCH  23  24
ENDBRANCH  21  23
ENDBRANCH  14  19
BRANCH  17  30
HETATM   30  N   UNL     1      -7.482  15.245  67.506  1.00  0.00    -0.173 NA 
HETATM   31  C   UNL     1      -8.636  17.176  68.259  1.00  0.00    -0.241 C  
HETATM   32  C   UNL     1      -6.440  16.165  67.903  1.00  0.00    -0.142 C  
HETATM   33  C   UNL     1      -8.805  15.868  67.470  1.00  0.00    -0.189 C  
HETATM   34  C   UNL     1      -7.174  17.247  68.688  1.00  0.00    -0.231 C  
BRANCH  33  35
HETATM   35  C   UNL     1      -9.218  16.134  66.008  1.00  0.00    -0.328 C  
HETATM   36  O   UNL     1     -10.553  16.640  65.925  1.00  0.00    -0.316 OA 
HETATM   37  H   UNL     1     -10.808  16.804  65.024  1.00  0.00     0.000 HD 
ENDBRANCH  33  35
ENDBRANCH  17  30
ENDBRANCH  11  13
ENDBRANCH  10  11
ENDBRANCH   7  10
ENDBRANCH   2   3
TORSDOF 9
ENDMDL
MODEL      215
REMARK 921   NORMALIZED FREE ENERGY PREDICTED BY IDOCK:   -3.47 KCAL/MOL
REMARK 922        TOTAL FREE ENERGY PREDICTED BY IDOCK:   -6.83 KCAL/MOL
REMARK 923 INTER-LIGAND FREE ENERGY PREDICTED BY IDOCK:   -5.28 KCAL/MOL
REMARK 924 INTRA-LIGAND FREE ENERGY PREDICTED BY IDOCK:   -1.55 KCAL/MOL
REMARK 927      BINDING AFFINITY PREDICTED BY RF-SCORE:    0.00 PKD
ROOT
HETATM    1  C   UNL     1      -8.771   6.177  74.288  1.00  0.00    -0.126 C  
HETATM    2  O   UNL     1      -8.531   5.662  72.986  1.00  0.00    -0.118 OA 
ENDROOT
BRANCH   2   3
HETATM    3  C   UNL     1      -9.248   6.212  71.956  1.00  0.00    -0.146 A  
HETATM    4  C   UNL     1      -8.835   7.468  71.485  1.00  0.00    -0.124 A  
HETATM    5 CL   UNL     1      -7.543   8.333  72.245  1.00  0.00    -0.150 Cl 
HETATM    6  C   UNL     1      -9.468   8.070  70.392  1.00  0.00    -0.166 A  
HETATM    7  C   UNL     1     -10.520   7.418  69.735  1.00  0.00    -0.235 A  
HETATM    8  C   UNL     1     -10.317   5.577  71.318  1.00  0.00    -0.297 A  
HETATM    9  C   UNL     1     -10.951   6.178  70.224  1.00  0.00    -0.417 A  
BRANCH   7  10
HETATM   10  C   UNL     1     -11.210   8.064  68.554  1.00  0.00     0.571 C  
BRANCH  10  11
HETATM   11  N   UNL     1     -10.484   7.685  67.355  1.00  0.00    -0.278 NA 
HETATM   12  H   UNL     1     -10.645   6.796  66.882  1.00  0.00     0.000 HD 
BRANCH  11  13
HETATM   13  C   UNL     1      -9.543   8.622  66.885  1.00  0.00    -0.194 A  
HETATM   14  C   UNL     1      -8.452   8.186  66.149  1.00  0.00    -0.143 A  
HETATM   15  C   UNL     1      -7.612   9.175  65.695  1.00  0.00    -0.094 A  
HETATM   16  N   UNL     1      -9.758   9.941  67.117  1.00  0.00    -0.171 NA 
HETATM   17  C   UNL     1      -8.893  10.847  66.621  1.00  0.00    -0.159 A  
HETATM   18  N   UNL     1      -7.801  10.492  65.930  1.00  0.00    -0.148 NA 
BRANCH  14  19
HETATM   19  C   UNL     1      -8.110   6.778  65.845  1.00  0.00    -0.123 C  
HETATM   20  O   UNL     1      -7.991   5.976  66.764  1.00  0.00    -0.100 OA 
HETATM   21  N   UNL     1      -7.974   6.426  64.523  1.00  0.00    -0.121 N  
HETATM   22  H   UNL     1      -8.143   7.132  63.806  1.00  0.00     0.000 HD 
BRANCH  21  23
HETATM   23  C   UNL     1      -7.598   5.082  64.112  1.00  0.00    -0.067 C  
BRANCH  23  24
HETATM   24  C   UNL     1      -8.766   4.159  63.813  1.00  0.00    -0.119 A  
HETATM   25  N   UNL     1      -9.620   4.548  62.841  1.00  0.00    -0.075 NA 
HETATM   26  C   UNL     1     -10.630   3.708  62.546  1.00  0.00    -0.196 A  
HETATM   27  N   UNL     1      -8.888   3.006  64.511  1.00  0.00    -0.104 NA 
HETATM   28  C   UNL     1      -9.913   2.202  64.164  1.00  0.00    -0.047 A  
HETATM   29  C   UNL     1     -10.824   2.506  63.180  1.00  0.00    -0.238 A  
ENDBRANCH  23  24
ENDBRANCH  21  23
ENDBRANCH  14  19
BRANCH  17  30
HETATM   30  N   UNL     1      -9.121  12.179  66.826  1.00  0.00    -0.202 NA 
HETATM   31  C   UNL     1     -10.353  13.946  67.822  1.00  0.00    -0.240 C  
HETATM   32  C   UNL     1      -8.117  13.084  67.340  1.00  0.00    -0.180 C  
HETATM   33  C   UNL     1     -10.470  12.744  66.870  1.00  0.00    -0.240 C  
HETATM   34  C   UNL     1      -8.894  14.022  68.258  1.00  0.00    -0.184 C  
BRANCH  33  35
HETATM   35  C   UNL     1     -10.900  13.178  65.454  1.00  0.00    -0.282 C  
HETATM   36  O   UNL     1     -11.813  12.243  64.874  1.00  0.00    -0.367 OA 
HETATM   37  H   UNL     1     -12.078  12.510  64.002  1.00  0.00     0.000 HD 
ENDBRANCH  33  35
ENDBRANCH  17  30
ENDBRANCH  11  13
ENDBRANCH  10  11
ENDBRANCH   7  10
ENDBRANCH   2   3
TORSDOF 9
ENDMDL
MODEL      216
REMARK 921   NORMALIZED FREE ENERGY PREDICTED BY IDOCK:   -3.41 KCAL/MOL
REMARK 922        TOTAL FREE ENERGY PREDICTED BY IDOCK:   -6.74 KCAL/MOL
REMARK 923 INTER-LIGAND FREE ENERGY PREDICTED BY IDOCK:   -6.50 KCAL/MOL
REMARK 924 INTRA-LIGAND FREE ENERGY PREDICTED BY IDOCK:   -0.23 KCAL/MOL
REMARK 927      BINDING AFFINITY PREDICTED BY RF-SCORE:    0.00 PKD
ROOT
HETATM    1  C   UNL     1      -5.564   6.953  63.333  1.00  0.00    -0.036 C  
HETATM    2  O   UNL     1      -5.508   6.092  64.462  1.00  0.00    -0.016 OA 
ENDROOT
BRANCH   2   3
HETATM    3  C   UNL     1      -6.690   5.825  65.101  1.00  0.00    -0.044 A  
HETATM    4  C   UNL     1      -7.772   6.678  64.832  1.00  0.00    -0.109 A  
HETATM    5 CL   UNL     1      -7.591   8.070  63.820  1.00  0.00    -0.121 Cl 
HETATM    6  C   UNL     1      -9.034   6.436  65.388  1.00  0.00     0.106 A  
HETATM    7  C   UNL     1      -9.243   5.325  66.215  1.00  0.00    -0.152 A  
HETATM    8  C   UNL     1      -6.894   4.733  65.950  1.00  0.00    -0.061 A  
HETATM    9  C   UNL     1      -8.156   4.491  66.507  1.00  0.00    -0.103 A  
BRANCH   7  10
HETATM   10  C   UNL     1     -10.603   5.060  66.821  1.00  0.00    -0.157 C  
BRANCH  10  11
HETATM   11  N   UNL     1     -11.032   6.271  67.497  1.00  0.00    -0.393 NA 
HETATM   12  H   UNL     1     -11.765   6.872  67.121  1.00  0.00     0.000 HD 
BRANCH  11  13
HETATM   13  C   UNL     1     -10.371   6.567  68.706  1.00  0.00    -0.193 A  
HETATM   14  C   UNL     1      -9.807   7.820  68.889  1.00  0.00    -0.166 A  
HETATM   15  C   UNL     1      -9.222   8.031  70.115  1.00  0.00    -0.152 A  
HETATM   16  N   UNL     1     -10.351   5.632  69.688  1.00  0.00    -0.249 NA 
HETATM   17  C   UNL     1      -9.772   5.927  70.869  1.00  0.00    -0.172 A  
HETATM   18  N   UNL     1      -9.179   7.106  71.100  1.00  0.00    -0.157 NA 
BRANCH  14  19
HETATM   19  C   UNL     1      -9.757   8.910  67.889  1.00  0.00    -0.160 C  
HETATM   20  O   UNL     1      -8.680   9.227  67.399  1.00  0.00    -0.118 OA 
HETATM   21  N   UNL     1     -10.945   9.499  67.528  1.00  0.00    -0.433 N  
HETATM   22  H   UNL     1     -11.813   9.147  67.934  1.00  0.00     0.000 HD 
BRANCH  21  23
HETATM   23  C   UNL     1     -11.009  10.607  66.587  1.00  0.00    -0.074 C  
BRANCH  23  24
HETATM   24  C   UNL     1     -11.331  11.953  67.212  1.00  0.00    -0.329 A  
HETATM   25  N   UNL     1     -10.887  12.165  68.470  1.00  0.00    -0.226 NA 
HETATM   26  C   UNL     1     -11.135  13.374  69.007  1.00  0.00    -0.249 A  
HETATM   27  N   UNL     1     -12.023  12.865  66.489  1.00  0.00    -0.416 NA 
HETATM   28  C   UNL     1     -12.232  14.060  67.076  1.00  0.00    -0.352 A  
HETATM   29  C   UNL     1     -11.806  14.373  68.347  1.00  0.00    -0.354 A  
ENDBRANCH  23  24
ENDBRANCH  21  23
ENDBRANCH  14  19
BRANCH  17  30
HETATM   30  N   UNL     1      -9.776   4.999  71.872  1.00  0.00    -0.155 NA 
HETATM   31  C   UNL     1     -10.902   3.771  73.561  1.00  0.00    -0.324 C  
HETATM   32  C   UNL     1      -9.338   3.634  71.688  1.00  0.00    -0.133 C  
HETATM   33  C   UNL     1     -10.524   5.193  73.114  1.00  0.00    -0.211 C  
HETATM   34  C   UNL     1     -10.304   2.813  72.536  1.00  0.00    -0.196 C  
BRANCH  33  35
HETATM   35  C   UNL     1      -9.632   5.899  74.156  1.00  0.00    -0.170 C  
HETATM   36  O   UNL     1     -10.159   7.180  74.513  1.00  0.00    -0.430 OA 
HETATM   37  H   UNL     1      -9.611   7.616  75.155  1.00  0.00     0.000 HD 
ENDBRANCH  33  35
ENDBRANCH  17  30
ENDBRANCH  11  13
ENDBRANCH  10  11
ENDBRANCH   7  10
ENDBRANCH   2   3
TORSDOF 9
ENDMDL
MODEL      217
REMARK 921   NORMALIZED FREE ENERGY PREDICTED BY IDOCK:   -3.39 KCAL/MOL
REMARK 922        TOTAL FREE ENERGY PREDICTED BY IDOCK:   -6.71 KCAL/MOL
REMARK 923 INTER-LIGAND FREE ENERGY PREDICTED BY IDOCK:   -5.80 KCAL/MOL
REMARK 924 INTRA-LIGAND FREE ENERGY PREDICTED BY IDOCK:   -0.91 KCAL/MOL
REMARK 927      BINDING AFFINITY PREDICTED BY RF-SCORE:    0.00 PKD
ROOT
HETATM    1  C   UNL     1     -13.730   8.013  72.495  1.00  0.00     0.142 C  
HETATM    2  O   UNL     1     -12.690   8.978  72.551  1.00  0.00    -0.379 OA 
ENDROOT
BRANCH   2   3
HETATM    3  C   UNL     1     -12.314   9.559  71.368  1.00  0.00    -0.364 A  
HETATM    4  C   UNL     1     -11.512   8.797  70.505  1.00  0.00    -0.196 A  
HETATM    5 CL   UNL     1     -10.934   7.231  70.962  1.00  0.00    -0.264 Cl 
HETATM    6  C   UNL     1     -11.142   9.287  69.247  1.00  0.00    -0.031 A  
HETATM    7  C   UNL     1     -11.579  10.547  68.821  1.00  0.00    -0.252 A  
HETATM    8  C   UNL     1     -12.726  10.829  70.952  1.00  0.00    -0.478 A  
HETATM    9  C   UNL     1     -12.355  11.320  69.695  1.00  0.00    -0.262 A  
BRANCH   7  10
HETATM   10  C   UNL     1     -11.181  11.083  67.464  1.00  0.00    -0.302 C  
BRANCH  10  11
HETATM   11  N   UNL     1      -9.746  10.909  67.322  1.00  0.00    -0.164 NA 
HETATM   12  H   UNL     1      -9.340  10.070  66.908  1.00  0.00     0.000 HD 
BRANCH  11  13
HETATM   13  C   UNL     1      -8.949  11.972  67.792  1.00  0.00    -0.176 A  
HETATM   14  C   UNL     1      -7.720  11.701  68.372  1.00  0.00    -0.130 A  
HETATM   15  C   UNL     1      -6.994  12.802  68.761  1.00  0.00    -0.096 A  
HETATM   16  N   UNL     1      -9.382  13.245  67.614  1.00  0.00    -0.203 NA 
HETATM   17  C   UNL     1      -8.599  14.269  68.009  1.00  0.00    -0.169 A  
HETATM   18  N   UNL     1      -7.415  14.076  68.606  1.00  0.00    -0.121 NA 
BRANCH  14  19
HETATM   19  C   UNL     1      -7.152  10.358  68.629  1.00  0.00    -0.076 C  
HETATM   20  O   UNL     1      -7.901   9.438  68.939  1.00  0.00    -0.081 OA 
HETATM   21  N   UNL     1      -5.797  10.198  68.470  1.00  0.00    -0.041 N  
HETATM   22  H   UNL     1      -5.240  10.993  68.155  1.00  0.00     0.000 HD 
BRANCH  21  23
HETATM   23  C   UNL     1      -5.126   8.934  68.737  1.00  0.00    -0.033 C  
BRANCH  23  24
HETATM   24  C   UNL     1      -5.626   8.197  69.967  1.00  0.00    -0.022 A  
HETATM   25  N   UNL     1      -5.305   8.725  71.169  1.00  0.00    -0.032 NA 
HETATM   26  C   UNL     1      -5.785   8.096  72.258  1.00  0.00    -0.040 A  
HETATM   27  N   UNL     1      -6.366   7.076  69.806  1.00  0.00    -0.038 NA 
HETATM   28  C   UNL     1      -6.827   6.496  70.933  1.00  0.00    -0.063 A  
HETATM   29  C   UNL     1      -6.564   6.967  72.198  1.00  0.00    -0.057 A  
ENDBRANCH  23  24
ENDBRANCH  21  23
ENDBRANCH  14  19
BRANCH  17  30
HETATM   30  N   UNL     1      -9.017  15.554  67.804  1.00  0.00    -0.172 NA 
HETATM   31  C   UNL     1     -10.537  17.332  68.202  1.00  0.00    -0.386 C  
HETATM   32  C   UNL     1      -8.179  16.707  68.048  1.00  0.00    -0.185 C  
HETATM   33  C   UNL     1     -10.429  15.902  67.648  1.00  0.00    -0.289 C  
HETATM   34  C   UNL     1      -9.132  17.746  68.627  1.00  0.00    -0.262 C  
BRANCH  33  35
HETATM   35  C   UNL     1     -10.821  15.837  66.158  1.00  0.00    -0.240 C  
HETATM   36  O   UNL     1      -9.791  15.232  65.371  1.00  0.00    -0.332 OA 
HETATM   37  H   UNL     1     -10.032  15.192  64.453  1.00  0.00     0.000 HD 
ENDBRANCH  33  35
ENDBRANCH  17  30
ENDBRANCH  11  13
ENDBRANCH  10  11
ENDBRANCH   7  10
ENDBRANCH   2   3
TORSDOF 9
ENDMDL
MODEL      218
REMARK 921   NORMALIZED FREE ENERGY PREDICTED BY IDOCK:   -3.36 KCAL/MOL
REMARK 922        TOTAL FREE ENERGY PREDICTED BY IDOCK:   -6.66 KCAL/MOL
REMARK 923 INTER-LIGAND FREE ENERGY PREDICTED BY IDOCK:   -5.16 KCAL/MOL
REMARK 924 INTRA-LIGAND FREE ENERGY PREDICTED BY IDOCK:   -1.50 KCAL/MOL
REMARK 927      BINDING AFFINITY PREDICTED BY RF-SCORE:    0.00 PKD
ROOT
HETATM    1  C   UNL     1     -10.862   3.982  65.042  1.00  0.00     0.038 C  
HETATM    2  O   UNL     1     -11.068   4.948  66.064  1.00  0.00    -0.154 OA 
ENDROOT
BRANCH   2   3
HETATM    3  C   UNL     1      -9.971   5.650  66.488  1.00  0.00    -0.176 A  
HETATM    4  C   UNL     1      -9.258   5.130  67.580  1.00  0.00    -0.117 A  
HETATM    5 CL   UNL     1      -9.806   3.721  68.423  1.00  0.00    -0.081 Cl 
HETATM    6  C   UNL     1      -8.086   5.747  68.033  1.00  0.00    -0.104 A  
HETATM    7  C   UNL     1      -7.593   6.890  67.391  1.00  0.00    -0.109 A  
HETATM    8  C   UNL     1      -9.492   6.807  65.867  1.00  0.00     0.120 A  
HETATM    9  C   UNL     1      -8.320   7.425  66.320  1.00  0.00    -0.132 A  
BRANCH   7  10
HETATM   10  C   UNL     1      -6.328   7.562  67.877  1.00  0.00    -0.053 C  
BRANCH  10  11
HETATM   11  N   UNL     1      -6.690   8.871  68.390  1.00  0.00    -0.060 NA 
HETATM   12  H   UNL     1      -6.291   9.731  68.012  1.00  0.00     0.000 HD 
BRANCH  11  13
HETATM   13  C   UNL     1      -7.628   8.882  69.442  1.00  0.00    -0.081 A  
HETATM   14  C   UNL     1      -8.777   9.648  69.326  1.00  0.00    -0.159 A  
HETATM   15  C   UNL     1      -9.653   9.561  70.383  1.00  0.00    -0.269 A  
HETATM   16  N   UNL     1      -7.408   8.093  70.523  1.00  0.00    -0.055 NA 
HETATM   17  C   UNL     1      -8.329   8.052  71.507  1.00  0.00    -0.116 A  
HETATM   18  N   UNL     1      -9.444   8.793  71.475  1.00  0.00    -0.248 NA 
BRANCH  14  19
HETATM   19  C   UNL     1      -9.115  10.552  68.204  1.00  0.00    -0.141 C  
HETATM   20  O   UNL     1      -8.311  11.411  67.861  1.00  0.00    -0.127 OA 
HETATM   21  N   UNL     1     -10.319  10.359  67.571  1.00  0.00    -0.209 N  
HETATM   22  H   UNL     1     -10.916   9.588  67.872  1.00  0.00     0.000 HD 
BRANCH  21  23
HETATM   23  C   UNL     1     -10.773  11.215  66.485  1.00  0.00    -0.260 C  
BRANCH  23  24
HETATM   24  C   UNL     1     -10.908  12.683  66.848  1.00  0.00    -0.254 A  
HETATM   25  N   UNL     1     -11.884  13.008  67.724  1.00  0.00    -0.358 NA 
HETATM   26  C   UNL     1     -11.975  14.304  68.080  1.00  0.00    -0.318 A  
HETATM   27  N   UNL     1     -10.055  13.578  66.298  1.00  0.00    -0.291 NA 
HETATM   28  C   UNL     1     -10.189  14.858  66.699  1.00  0.00    -0.261 A  
HETATM   29  C   UNL     1     -11.142  15.282  67.596  1.00  0.00    -0.323 A  
ENDBRANCH  23  24
ENDBRANCH  21  23
ENDBRANCH  14  19
BRANCH  17  30
HETATM   30  N   UNL     1      -8.127   7.236  72.585  1.00  0.00    -0.101 NA 
HETATM   31  C   UNL     1      -6.997   5.441  73.648  1.00  0.00    -0.085 C  
HETATM   32  C   UNL     1      -7.806   7.733  73.904  1.00  0.00    -0.170 C  
HETATM   33  C   UNL     1      -7.884   5.801  72.445  1.00  0.00    -0.103 C  
HETATM   34  C   UNL     1      -6.803   6.723  74.451  1.00  0.00    -0.091 C  
BRANCH  33  35
HETATM   35  C   UNL     1      -9.224   5.039  72.477  1.00  0.00    -0.132 C  
HETATM   36  O   UNL     1     -10.305   5.895  72.859  1.00  0.00    -0.185 OA 
HETATM   37  H   UNL     1     -11.130   5.426  72.879  1.00  0.00     0.000 HD 
ENDBRANCH  33  35
ENDBRANCH  17  30
ENDBRANCH  11  13
ENDBRANCH  10  11
ENDBRANCH   7  10
ENDBRANCH   2   3
TORSDOF 9
ENDMDL
MODEL      219
REMARK 921   NORMALIZED FREE ENERGY PREDICTED BY IDOCK:   -3.34 KCAL/MOL
REMARK 922        TOTAL FREE ENERGY PREDICTED BY IDOCK:   -6.62 KCAL/MOL
REMARK 923 INTER-LIGAND FREE ENERGY PREDICTED BY IDOCK:   -5.75 KCAL/MOL
REMARK 924 INTRA-LIGAND FREE ENERGY PREDICTED BY IDOCK:   -0.87 KCAL/MOL
REMARK 927      BINDING AFFINITY PREDICTED BY RF-SCORE:    0.00 PKD
ROOT
HETATM    1  C   UNL     1     -10.389  18.294  68.529  1.00  0.00    -0.317 C  
HETATM    2  O   UNL     1      -9.041  18.132  68.110  1.00  0.00    -0.275 OA 
ENDROOT
BRANCH   2   3
HETATM    3  C   UNL     1      -8.525  16.863  68.145  1.00  0.00    -0.217 A  
HETATM    4  C   UNL     1      -7.247  16.674  67.595  1.00  0.00    -0.138 A  
HETATM    5 CL   UNL     1      -6.405  17.966  66.810  1.00  0.00    -0.195 Cl 
HETATM    6  C   UNL     1      -6.618  15.426  67.652  1.00  0.00    -0.195 A  
HETATM    7  C   UNL     1      -7.249  14.341  68.276  1.00  0.00    -0.117 A  
HETATM    8  C   UNL     1      -9.165  15.773  68.741  1.00  0.00    -0.216 A  
HETATM    9  C   UNL     1      -8.536  14.523  68.798  1.00  0.00    -0.145 A  
BRANCH   7  10
HETATM   10  C   UNL     1      -6.575  12.989  68.339  1.00  0.00    -0.090 C  
BRANCH  10  11
HETATM   11  N   UNL     1      -6.743  12.348  67.047  1.00  0.00    -0.352 NA 
HETATM   12  H   UNL     1      -5.996  12.323  66.353  1.00  0.00     0.000 HD 
BRANCH  11  13
HETATM   13  C   UNL     1      -8.003  11.764  66.811  1.00  0.00    -0.116 A  
HETATM   14  C   UNL     1      -8.265  10.489  67.286  1.00  0.00    -0.119 A  
HETATM   15  C   UNL     1      -9.535  10.018  67.046  1.00  0.00    -0.164 A  
HETATM   16  N   UNL     1      -8.952  12.489  66.169  1.00  0.00    -0.011 NA 
HETATM   17  C   UNL     1     -10.179  11.959  65.990  1.00  0.00    -0.229 A  
HETATM   18  N   UNL     1     -10.489  10.720  66.395  1.00  0.00    -0.247 NA 
BRANCH  14  19
HETATM   19  C   UNL     1      -7.308   9.603  67.986  1.00  0.00    -0.082 C  
HETATM   20  O   UNL     1      -6.488  10.091  68.755  1.00  0.00    -0.045 OA 
HETATM   21  N   UNL     1      -7.409   8.251  67.760  1.00  0.00    -0.091 N  
HETATM   22  H   UNL     1      -8.152   7.907  67.151  1.00  0.00     0.000 HD 
BRANCH  21  23
HETATM   23  C   UNL     1      -6.494   7.292  68.361  1.00  0.00    -0.044 C  
BRANCH  23  24
HETATM   24  C   UNL     1      -6.481   5.926  67.699  1.00  0.00    -0.047 A  
HETATM   25  N   UNL     1      -5.907   4.917  68.392  1.00  0.00    -0.020 NA 
HETATM   26  C   UNL     1      -5.936   3.696  67.824  1.00  0.00    -0.027 A  
HETATM   27  N   UNL     1      -7.045   5.781  66.478  1.00  0.00    -0.068 NA 
HETATM   28  C   UNL     1      -7.051   4.534  65.966  1.00  0.00    -0.071 A  
HETATM   29  C   UNL     1      -6.505   3.443  66.601  1.00  0.00    -0.036 A  
ENDBRANCH  23  24
ENDBRANCH  21  23
ENDBRANCH  14  19
BRANCH  17  30
HETATM   30  N   UNL     1     -11.148  12.697  65.370  1.00  0.00    -0.285 NA 
HETATM   31  C   UNL     1     -11.818  14.524  64.013  1.00  0.00    -0.178 C  
HETATM   32  C   UNL     1     -12.095  12.133  64.436  1.00  0.00    -0.357 C  
HETATM   33  C   UNL     1     -11.111  14.158  65.329  1.00  0.00    -0.331 C  
HETATM   34  C   UNL     1     -12.260  13.213  63.372  1.00  0.00    -0.521 C  
BRANCH  33  35
HETATM   35  C   UNL     1     -11.853  14.734  66.553  1.00  0.00    -0.228 C  
HETATM   36  O   UNL     1     -13.063  14.019  66.817  1.00  0.00    -0.177 OA 
HETATM   37  H   UNL     1     -13.520  14.373  67.570  1.00  0.00     0.000 HD 
ENDBRANCH  33  35
ENDBRANCH  17  30
ENDBRANCH  11  13
ENDBRANCH  10  11
ENDBRANCH   7  10
ENDBRANCH   2   3
TORSDOF 9
ENDMDL
MODEL      220
REMARK 921   NORMALIZED FREE ENERGY PREDICTED BY IDOCK:   -3.28 KCAL/MOL
REMARK 922        TOTAL FREE ENERGY PREDICTED BY IDOCK:   -6.54 KCAL/MOL
REMARK 923 INTER-LIGAND FREE ENERGY PREDICTED BY IDOCK:   -6.22 KCAL/MOL
REMARK 924 INTRA-LIGAND FREE ENERGY PREDICTED BY IDOCK:   -0.32 KCAL/MOL
REMARK 927      BINDING AFFINITY PREDICTED BY RF-SCORE:    0.00 PKD
ROOT
HETATM    1  C   UNL     1     -13.171   9.008  72.557  1.00  0.00    -0.406 C  
HETATM    2  O   UNL     1     -12.831  10.301  72.078  1.00  0.00    -0.417 OA 
ENDROOT
BRANCH   2   3
HETATM    3  C   UNL     1     -12.300  10.379  70.817  1.00  0.00    -0.367 A  
HETATM    4  C   UNL     1     -12.119  11.661  70.274  1.00  0.00    -0.358 A  
HETATM    5 CL   UNL     1     -12.645  13.078  71.119  1.00  0.00    -0.440 Cl 
HETATM    6  C   UNL     1     -11.520  11.834  69.022  1.00  0.00    -0.358 A  
HETATM    7  C   UNL     1     -11.073  10.726  68.291  1.00  0.00    -0.327 A  
HETATM    8  C   UNL     1     -11.880   9.273  70.073  1.00  0.00     0.168 A  
HETATM    9  C   UNL     1     -11.280   9.445  68.819  1.00  0.00     0.112 A  
BRANCH   7  10
HETATM   10  C   UNL     1     -10.426  10.906  66.936  1.00  0.00    -0.249 C  
BRANCH  10  11
HETATM   11  N   UNL     1      -9.575   9.754  66.694  1.00  0.00    -0.177 NA 
HETATM   12  H   UNL     1      -9.645   9.198  65.842  1.00  0.00     0.000 HD 
BRANCH  11  13
HETATM   13  C   UNL     1      -8.647   9.452  67.709  1.00  0.00    -0.116 A  
HETATM   14  C   UNL     1      -7.753  10.424  68.130  1.00  0.00    -0.092 A  
HETATM   15  C   UNL     1      -6.915  10.052  69.155  1.00  0.00    -0.059 A  
HETATM   16  N   UNL     1      -8.688   8.228  68.293  1.00  0.00    -0.136 NA 
HETATM   17  C   UNL     1      -7.842   7.951  69.305  1.00  0.00    -0.115 A  
HETATM   18  N   UNL     1      -6.931   8.832  69.737  1.00  0.00    -0.049 NA 
BRANCH  14  19
HETATM   19  C   UNL     1      -7.609  11.783  67.562  1.00  0.00    -0.135 C  
HETATM   20  O   UNL     1      -7.477  11.917  66.351  1.00  0.00     0.069 OA 
HETATM   21  N   UNL     1      -7.664  12.846  68.431  1.00  0.00    -0.131 N  
HETATM   22  H   UNL     1      -7.832  12.665  69.421  1.00  0.00     0.000 HD 
BRANCH  21  23
HETATM   23  C   UNL     1      -7.491  14.221  67.988  1.00  0.00    -0.142 C  
BRANCH  23  24
HETATM   24  C   UNL     1      -8.741  15.079  68.074  1.00  0.00    -0.159 A  
HETATM   25  N   UNL     1      -9.625  14.974  67.057  1.00  0.00    -0.219 NA 
HETATM   26  C   UNL     1     -10.754  15.701  67.156  1.00  0.00    -0.314 A  
HETATM   27  N   UNL     1      -8.915  15.882  69.149  1.00  0.00    -0.244 NA 
HETATM   28  C   UNL     1     -10.069  16.578  69.196  1.00  0.00    -0.287 A  
HETATM   29  C   UNL     1     -11.033  16.526  68.217  1.00  0.00    -0.346 A  
ENDBRANCH  23  24
ENDBRANCH  21  23
ENDBRANCH  14  19
BRANCH  17  30
HETATM   30  N   UNL     1      -7.900   6.730  69.916  1.00  0.00    -0.112 NA 
HETATM   31  C   UNL     1      -8.788   4.538  70.096  1.00  0.00    -0.129 C  
HETATM   32  C   UNL     1      -6.745   5.878  70.092  1.00  0.00    -0.048 C  
HETATM   33  C   UNL     1      -9.163   6.028  70.144  1.00  0.00    -0.154 C  
HETATM   34  C   UNL     1      -7.282   4.468  69.869  1.00  0.00    -0.050 C  
BRANCH  33  35
HETATM   35  C   UNL     1      -9.742   6.427  71.516  1.00  0.00    -0.168 C  
HETATM   36  O   UNL     1     -11.116   6.050  71.634  1.00  0.00    -0.262 OA 
HETATM   37  H   UNL     1     -11.473   6.295  72.479  1.00  0.00     0.000 HD 
ENDBRANCH  33  35
ENDBRANCH  17  30
ENDBRANCH  11  13
ENDBRANCH  10  11
ENDBRANCH   7  10
ENDBRANCH   2   3
TORSDOF 9
ENDMDL
MODEL      221
REMARK 921   NORMALIZED FREE ENERGY PREDICTED BY IDOCK:   -3.26 KCAL/MOL
REMARK 922        TOTAL FREE ENERGY PREDICTED BY IDOCK:   -6.51 KCAL/MOL
REMARK 923 INTER-LIGAND FREE ENERGY PREDICTED BY IDOCK:   -5.56 KCAL/MOL
REMARK 924 INTRA-LIGAND FREE ENERGY PREDICTED BY IDOCK:   -0.95 KCAL/MOL
REMARK 927      BINDING AFFINITY PREDICTED BY RF-SCORE:    0.00 PKD
ROOT
HETATM    1  C   UNL     1      -5.268  12.138  69.900  1.00  0.00    -0.082 C  
HETATM    2  O   UNL     1      -5.133  10.724  69.955  1.00  0.00    -0.041 OA 
ENDROOT
BRANCH   2   3
HETATM    3  C   UNL     1      -6.286   9.986  69.910  1.00  0.00    -0.066 A  
HETATM    4  C   UNL     1      -6.495   9.191  68.772  1.00  0.00    -0.049 A  
HETATM    5 CL   UNL     1      -5.394   9.224  67.436  1.00  0.00    -0.037 Cl 
HETATM    6  C   UNL     1      -7.612   8.353  68.675  1.00  0.00    -0.102 A  
HETATM    7  C   UNL     1      -8.538   8.282  69.724  1.00  0.00    -0.129 A  
HETATM    8  C   UNL     1      -7.227   9.936  70.942  1.00  0.00     0.180 A  
HETATM    9  C   UNL     1      -8.345   9.099  70.846  1.00  0.00    -0.231 A  
BRANCH   7  10
HETATM   10  C   UNL     1      -9.748   7.381  69.625  1.00  0.00    -0.163 C  
BRANCH  10  11
HETATM   11  N   UNL     1     -10.870   8.191  69.186  1.00  0.00    -0.412 NA 
HETATM   12  H   UNL     1     -11.785   8.139  69.635  1.00  0.00     0.000 HD 
BRANCH  11  13
HETATM   13  C   UNL     1     -10.618   9.055  68.102  1.00  0.00    -0.171 A  
HETATM   14  C   UNL     1     -10.437   8.526  66.834  1.00  0.00    -0.345 A  
HETATM   15  C   UNL     1     -10.240   9.447  65.832  1.00  0.00    -0.053 A  
HETATM   16  N   UNL     1     -10.615  10.394  68.317  1.00  0.00    -0.197 NA 
HETATM   17  C   UNL     1     -10.432  11.229  67.274  1.00  0.00    -0.214 A  
HETATM   18  N   UNL     1     -10.218  10.783  66.029  1.00  0.00    -0.247 NA 
BRANCH  14  19
HETATM   19  C   UNL     1     -10.407   7.088  66.483  1.00  0.00    -0.037 C  
HETATM   20  O   UNL     1     -11.333   6.365  66.832  1.00  0.00    -0.304 OA 
HETATM   21  N   UNL     1      -9.342   6.635  65.742  1.00  0.00    -0.386 N  
HETATM   22  H   UNL     1      -8.634   7.303  65.436  1.00  0.00     0.000 HD 
BRANCH  21  23
HETATM   23  C   UNL     1      -9.189   5.234  65.378  1.00  0.00    -0.080 C  
BRANCH  23  24
HETATM   24  C   UNL     1      -7.944   4.566  65.933  1.00  0.00    -0.099 A  
HETATM   25  N   UNL     1      -6.935   5.378  66.319  1.00  0.00    -0.062 NA 
HETATM   26  C   UNL     1      -5.848   4.787  66.851  1.00  0.00    -0.026 A  
HETATM   27  N   UNL     1      -7.907   3.216  66.025  1.00  0.00    -0.084 NA 
HETATM   28  C   UNL     1      -6.797   2.684  66.575  1.00  0.00    -0.044 A  
HETATM   29  C   UNL     1      -5.726   3.429  67.010  1.00  0.00    -0.022 A  
ENDBRANCH  23  24
ENDBRANCH  21  23
ENDBRANCH  14  19
BRANCH  17  30
HETATM   30  N   UNL     1     -10.458  12.580  67.481  1.00  0.00    -0.218 NA 
HETATM   31  C   UNL     1     -11.593  14.663  67.457  1.00  0.00    -0.396 C  
HETATM   32  C   UNL     1     -10.129  13.192  68.748  1.00  0.00    -0.061 C  
HETATM   33  C   UNL     1     -11.133  13.498  66.565  1.00  0.00    -0.300 C  
HETATM   34  C   UNL     1     -11.113  14.351  68.871  1.00  0.00    -0.277 C  
BRANCH  33  35
HETATM   35  C   UNL     1     -10.147  13.969  65.476  1.00  0.00    -0.320 C  
HETATM   36  O   UNL     1      -8.948  14.498  66.049  1.00  0.00    -0.488 OA 
HETATM   37  H   UNL     1      -8.341  14.789  65.380  1.00  0.00     0.000 HD 
ENDBRANCH  33  35
ENDBRANCH  17  30
ENDBRANCH  11  13
ENDBRANCH  10  11
ENDBRANCH   7  10
ENDBRANCH   2   3
TORSDOF 9
ENDMDL
MODEL      222
REMARK 921   NORMALIZED FREE ENERGY PREDICTED BY IDOCK:   -3.26 KCAL/MOL
REMARK 922        TOTAL FREE ENERGY PREDICTED BY IDOCK:   -6.50 KCAL/MOL
REMARK 923 INTER-LIGAND FREE ENERGY PREDICTED BY IDOCK:   -5.68 KCAL/MOL
REMARK 924 INTRA-LIGAND FREE ENERGY PREDICTED BY IDOCK:   -0.82 KCAL/MOL
REMARK 927      BINDING AFFINITY PREDICTED BY RF-SCORE:    0.00 PKD
ROOT
HETATM    1  C   UNL     1      -6.570  20.563  68.366  1.00  0.00    -0.257 C  
HETATM    2  O   UNL     1      -5.338  19.867  68.251  1.00  0.00    -0.194 OA 
ENDROOT
BRANCH   2   3
HETATM    3  C   UNL     1      -5.396  18.498  68.216  1.00  0.00    -0.172 A  
HETATM    4  C   UNL     1      -5.501  17.829  69.445  1.00  0.00    -0.201 A  
HETATM    5 CL   UNL     1      -5.448  18.690  70.946  1.00  0.00    -0.230 Cl 
HETATM    6  C   UNL     1      -5.636  16.437  69.497  1.00  0.00    -0.150 A  
HETATM    7  C   UNL     1      -5.685  15.685  68.316  1.00  0.00    -0.119 A  
HETATM    8  C   UNL     1      -5.416  17.743  67.040  1.00  0.00    -0.167 A  
HETATM    9  C   UNL     1      -5.551  16.350  67.091  1.00  0.00    -0.111 A  
BRANCH   7  10
HETATM   10  C   UNL     1      -5.829  14.180  68.366  1.00  0.00    -0.104 C  
BRANCH  10  11
HETATM   11  N   UNL     1      -6.660  13.777  67.245  1.00  0.00    -0.439 NA 
HETATM   12  H   UNL     1      -6.762  14.355  66.410  1.00  0.00     0.000 HD 
BRANCH  11  13
HETATM   13  C   UNL     1      -7.316  12.538  67.382  1.00  0.00    -0.147 A  
HETATM   14  C   UNL     1      -8.675  12.511  67.652  1.00  0.00    -0.177 A  
HETATM   15  C   UNL     1      -9.238  11.258  67.725  1.00  0.00    -0.156 A  
HETATM   16  N   UNL     1      -6.610  11.397  67.188  1.00  0.00    -0.106 NA 
HETATM   17  C   UNL     1      -7.244  10.209  67.259  1.00  0.00    -0.089 A  
HETATM   18  N   UNL     1      -8.547  10.110  67.551  1.00  0.00    -0.119 NA 
BRANCH  14  19
HETATM   19  C   UNL     1      -9.542  13.686  67.894  1.00  0.00    -0.223 C  
HETATM   20  O   UNL     1      -9.980  14.317  66.939  1.00  0.00    -0.252 OA 
HETATM   21  N   UNL     1      -9.845  13.996  69.198  1.00  0.00    -0.426 N  
HETATM   22  H   UNL     1      -9.492  13.394  69.943  1.00  0.00     0.000 HD 
BRANCH  21  23
HETATM   23  C   UNL     1     -10.652  15.154  69.554  1.00  0.00    -0.270 C  
BRANCH  23  24
HETATM   24  C   UNL     1     -10.383  16.396  68.723  1.00  0.00    -0.275 A  
HETATM   25  N   UNL     1      -9.202  17.021  68.923  1.00  0.00    -0.248 NA 
HETATM   26  C   UNL     1      -8.945  18.096  68.155  1.00  0.00    -0.290 A  
HETATM   27  N   UNL     1     -11.314  16.804  67.830  1.00  0.00    -0.075 NA 
HETATM   28  C   UNL     1     -10.996  17.881  67.084  1.00  0.00     0.006 A  
HETATM   29  C   UNL     1      -9.814  18.573  67.205  1.00  0.00    -0.329 A  
ENDBRANCH  23  24
ENDBRANCH  21  23
ENDBRANCH  14  19
BRANCH  17  30
HETATM   30  N   UNL     1      -6.543   9.057  67.035  1.00  0.00    -0.061 NA 
HETATM   31  C   UNL     1      -6.384   6.861  66.153  1.00  0.00    -0.050 C  
HETATM   32  C   UNL     1      -5.269   9.027  66.352  1.00  0.00    -0.033 C  
HETATM   33  C   UNL     1      -7.153   7.734  67.158  1.00  0.00    -0.085 C  
HETATM   34  C   UNL     1      -5.324   7.753  65.515  1.00  0.00    -0.029 C  
BRANCH  33  35
HETATM   35  C   UNL     1      -6.992   7.216  68.602  1.00  0.00    -0.082 C  
HETATM   36  O   UNL     1      -5.696   7.520  69.126  1.00  0.00    -0.024 OA 
HETATM   37  H   UNL     1      -5.596   7.202  70.015  1.00  0.00     0.000 HD 
ENDBRANCH  33  35
ENDBRANCH  17  30
ENDBRANCH  11  13
ENDBRANCH  10  11
ENDBRANCH   7  10
ENDBRANCH   2   3
TORSDOF 9
ENDMDL
MODEL      223
REMARK 921   NORMALIZED FREE ENERGY PREDICTED BY IDOCK:   -3.20 KCAL/MOL
REMARK 922        TOTAL FREE ENERGY PREDICTED BY IDOCK:   -6.41 KCAL/MOL
REMARK 923 INTER-LIGAND FREE ENERGY PREDICTED BY IDOCK:   -5.62 KCAL/MOL
REMARK 924 INTRA-LIGAND FREE ENERGY PREDICTED BY IDOCK:   -0.79 KCAL/MOL
REMARK 927      BINDING AFFINITY PREDICTED BY RF-SCORE:    0.00 PKD
ROOT
HETATM    1  C   UNL     1      -6.611  20.589  68.378  1.00  0.00    -0.257 C  
HETATM    2  O   UNL     1      -5.374  19.903  68.239  1.00  0.00    -0.194 OA 
ENDROOT
BRANCH   2   3
HETATM    3  C   UNL     1      -5.428  18.539  68.123  1.00  0.00    -0.171 A  
HETATM    4  C   UNL     1      -5.597  17.801  69.304  1.00  0.00    -0.202 A  
HETATM    5 CL   UNL     1      -5.628  18.574  70.852  1.00  0.00    -0.170 Cl 
HETATM    6  C   UNL     1      -5.731  16.408  69.269  1.00  0.00    -0.137 A  
HETATM    7  C   UNL     1      -5.715  15.725  68.046  1.00  0.00    -0.141 A  
HETATM    8  C   UNL     1      -5.382  17.853  66.906  1.00  0.00    -0.167 A  
HETATM    9  C   UNL     1      -5.516  16.459  66.870  1.00  0.00     0.068 A  
BRANCH   7  10
HETATM   10  C   UNL     1      -5.857  14.220  68.001  1.00  0.00    -0.134 C  
BRANCH  10  11
HETATM   11  N   UNL     1      -6.764  13.893  66.915  1.00  0.00    -0.147 NA 
HETATM   12  H   UNL     1      -6.854  14.482  66.087  1.00  0.00     0.000 HD 
BRANCH  11  13
HETATM   13  C   UNL     1      -7.512  12.710  67.075  1.00  0.00     0.038 A  
HETATM   14  C   UNL     1      -8.776  12.771  67.639  1.00  0.00    -0.180 A  
HETATM   15  C   UNL     1      -9.449  11.574  67.715  1.00  0.00    -0.168 A  
HETATM   16  N   UNL     1      -6.997  11.541  66.619  1.00  0.00    -0.109 NA 
HETATM   17  C   UNL     1      -7.731  10.415  66.715  1.00  0.00    -0.114 A  
HETATM   18  N   UNL     1      -8.945  10.398  67.280  1.00  0.00    -0.135 NA 
BRANCH  14  19
HETATM   19  C   UNL     1      -9.433  13.982  68.182  1.00  0.00    -0.215 C  
HETATM   20  O   UNL     1      -9.018  14.476  69.224  1.00  0.00    -0.037 OA 
HETATM   21  N   UNL     1     -10.471  14.521  67.460  1.00  0.00    -0.252 N  
HETATM   22  H   UNL     1     -10.729  14.091  66.571  1.00  0.00     0.000 HD 
BRANCH  21  23
HETATM   23  C   UNL     1     -11.216  15.683  67.920  1.00  0.00    -0.328 C  
BRANCH  23  24
HETATM   24  C   UNL     1     -11.692  15.604  69.360  1.00  0.00    -0.383 A  
HETATM   25  N   UNL     1     -12.725  14.772  69.618  1.00  0.00    -0.056 NA 
HETATM   26  C   UNL     1     -13.117  14.669  70.901  1.00  0.00    -0.358 A  
HETATM   27  N   UNL     1     -11.065  16.347  70.302  1.00  0.00    -0.335 NA 
HETATM   28  C   UNL     1     -11.496  16.194  71.570  1.00  0.00    -0.339 A  
HETATM   29  C   UNL     1     -12.529  15.361  71.931  1.00  0.00    -0.452 A  
ENDBRANCH  23  24
ENDBRANCH  21  23
ENDBRANCH  14  19
BRANCH  17  30
HETATM   30  N   UNL     1      -7.228   9.240  66.230  1.00  0.00    -0.087 NA 
HETATM   31  C   UNL     1      -7.509   7.162  65.120  1.00  0.00    -0.094 C  
HETATM   32  C   UNL     1      -6.137   9.177  65.284  1.00  0.00    -0.063 C  
HETATM   33  C   UNL     1      -7.947   7.972  66.351  1.00  0.00    -0.102 C  
HETATM   34  C   UNL     1      -6.510   8.025  64.357  1.00  0.00    -0.061 C  
BRANCH  33  35
HETATM   35  C   UNL     1      -7.551   7.270  67.666  1.00  0.00    -0.110 C  
HETATM   36  O   UNL     1      -6.149   7.394  67.923  1.00  0.00    -0.033 OA 
HETATM   37  H   UNL     1      -5.904   6.962  68.733  1.00  0.00     0.000 HD 
ENDBRANCH  33  35
ENDBRANCH  17  30
ENDBRANCH  11  13
ENDBRANCH  10  11
ENDBRANCH   7  10
ENDBRANCH   2   3
TORSDOF 9
ENDMDL
MODEL      224
REMARK 921   NORMALIZED FREE ENERGY PREDICTED BY IDOCK:   -3.17 KCAL/MOL
REMARK 922        TOTAL FREE ENERGY PREDICTED BY IDOCK:   -6.37 KCAL/MOL
REMARK 923 INTER-LIGAND FREE ENERGY PREDICTED BY IDOCK:   -5.61 KCAL/MOL
REMARK 924 INTRA-LIGAND FREE ENERGY PREDICTED BY IDOCK:   -0.77 KCAL/MOL
REMARK 927      BINDING AFFINITY PREDICTED BY RF-SCORE:    0.00 PKD
ROOT
HETATM    1  C   UNL     1      -5.459   6.748  71.254  1.00  0.00    -0.027 C  
HETATM    2  O   UNL     1      -5.217   6.755  69.854  1.00  0.00    -0.014 OA 
ENDROOT
BRANCH   2   3
HETATM    3  C   UNL     1      -6.086   7.473  69.075  1.00  0.00    -0.034 A  
HETATM    4  C   UNL     1      -6.197   7.100  67.727  1.00  0.00    -0.042 A  
HETATM    5 CL   UNL     1      -5.200   5.857  67.052  1.00  0.00    -0.005 Cl 
HETATM    6  C   UNL     1      -7.111   7.734  66.878  1.00  0.00    -0.081 A  
HETATM    7  C   UNL     1      -7.946   8.748  67.366  1.00  0.00    -0.098 A  
HETATM    8  C   UNL     1      -6.899   8.504  69.553  1.00  0.00    -0.044 A  
HETATM    9  C   UNL     1      -7.814   9.140  68.705  1.00  0.00    -0.097 A  
BRANCH   7  10
HETATM   10  C   UNL     1      -8.935   9.439  66.454  1.00  0.00    -0.152 C  
BRANCH  10  11
HETATM   11  N   UNL     1     -10.009   8.503  66.174  1.00  0.00    -0.468 NA 
HETATM   12  H   UNL     1     -10.408   8.399  65.241  1.00  0.00     0.000 HD 
BRANCH  11  13
HETATM   13  C   UNL     1     -10.468   7.748  67.272  1.00  0.00    -0.322 A  
HETATM   14  C   UNL     1     -10.469   6.364  67.197  1.00  0.00    -0.342 A  
HETATM   15  C   UNL     1     -10.892   5.711  68.331  1.00  0.00    -0.086 A  
HETATM   16  N   UNL     1     -10.846   8.396  68.401  1.00  0.00    -0.001 NA 
HETATM   17  C   UNL     1     -11.230   7.678  69.476  1.00  0.00     0.082 A  
HETATM   18  N   UNL     1     -11.287   6.340  69.460  1.00  0.00    -0.430 NA 
BRANCH  14  19
HETATM   19  C   UNL     1     -10.092   5.552  66.018  1.00  0.00    -0.022 C  
HETATM   20  O   UNL     1      -8.958   5.643  65.563  1.00  0.00    -0.158 OA 
HETATM   21  N   UNL     1     -11.038   4.697  65.505  1.00  0.00    -0.942 N  
HETATM   22  H   UNL     1     -11.945   4.629  65.968  1.00  0.00     0.000 HD 
BRANCH  21  23
HETATM   23  C   UNL     1     -10.791   3.884  64.323  1.00  0.00    -0.143 C  
BRANCH  23  24
HETATM   24  C   UNL     1      -9.556   3.005  64.403  1.00  0.00    -0.150 A  
HETATM   25  N   UNL     1      -8.671   3.101  63.387  1.00  0.00    -0.089 NA 
HETATM   26  C   UNL     1      -7.554   2.354  63.480  1.00  0.00    -0.059 A  
HETATM   27  N   UNL     1      -9.396   2.192  65.473  1.00  0.00    -0.030 NA 
HETATM   28  C   UNL     1      -8.254   1.476  65.515  1.00  0.00    -0.079 A  
HETATM   29  C   UNL     1      -7.289   1.518  64.536  1.00  0.00    -0.053 A  
ENDBRANCH  23  24
ENDBRANCH  21  23
ENDBRANCH  14  19
BRANCH  17  30
HETATM   30  N   UNL     1     -11.583   8.326  70.627  1.00  0.00    -0.240 NA 
HETATM   31  C   UNL     1     -13.222   9.262  72.064  1.00  0.00    -0.519 C  
HETATM   32  C   UNL     1     -11.236   7.843  71.945  1.00  0.00    -0.271 C  
HETATM   33  C   UNL     1     -12.613   9.364  70.656  1.00  0.00     0.052 C  
HETATM   34  C   UNL     1     -12.462   8.160  72.794  1.00  0.00    -0.053 C  
BRANCH  33  35
HETATM   35  C   UNL     1     -11.971  10.744  70.411  1.00  0.00    -0.357 C  
HETATM   36  O   UNL     1     -12.018  11.106  69.028  1.00  0.00    -0.333 OA 
HETATM   37  H   UNL     1     -11.623  11.956  68.877  1.00  0.00     0.000 HD 
ENDBRANCH  33  35
ENDBRANCH  17  30
ENDBRANCH  11  13
ENDBRANCH  10  11
ENDBRANCH   7  10
ENDBRANCH   2   3
TORSDOF 9
ENDMDL
MODEL      225
REMARK 921   NORMALIZED FREE ENERGY PREDICTED BY IDOCK:   -3.03 KCAL/MOL
REMARK 922        TOTAL FREE ENERGY PREDICTED BY IDOCK:   -6.16 KCAL/MOL
REMARK 923 INTER-LIGAND FREE ENERGY PREDICTED BY IDOCK:   -6.33 KCAL/MOL
REMARK 924 INTRA-LIGAND FREE ENERGY PREDICTED BY IDOCK:    0.17 KCAL/MOL
REMARK 927      BINDING AFFINITY PREDICTED BY RF-SCORE:    0.00 PKD
ROOT
HETATM    1  C   UNL     1      -5.125   8.865  63.368  1.00  0.00    -0.062 C  
HETATM    2  O   UNL     1      -5.924   8.115  64.272  1.00  0.00    -0.055 OA 
ENDROOT
BRANCH   2   3
HETATM    3  C   UNL     1      -7.055   8.719  64.753  1.00  0.00    -0.077 A  
HETATM    4  C   UNL     1      -6.993  10.101  64.992  1.00  0.00    -0.135 A  
HETATM    5 CL   UNL     1      -5.518  10.984  64.789  1.00  0.00     0.057 Cl 
HETATM    6  C   UNL     1      -8.122  10.809  65.417  1.00  0.00    -0.050 A  
HETATM    7  C   UNL     1      -9.345  10.151  65.599  1.00  0.00    -0.250 A  
HETATM    8  C   UNL     1      -8.269   8.059  64.963  1.00  0.00    -0.144 A  
HETATM    9  C   UNL     1      -9.400   8.767  65.389  1.00  0.00    -0.095 A  
BRANCH   7  10
HETATM   10  C   UNL     1     -10.569  10.910  66.060  1.00  0.00    -0.189 C  
BRANCH  10  11
HETATM   11  N   UNL     1     -10.190  11.701  67.217  1.00  0.00    -0.199 NA 
HETATM   12  H   UNL     1     -10.411  12.694  67.291  1.00  0.00     0.000 HD 
BRANCH  11  13
HETATM   13  C   UNL     1      -9.498  11.012  68.233  1.00  0.00    -0.172 A  
HETATM   14  C   UNL     1      -8.368  11.582  68.798  1.00  0.00    -0.069 A  
HETATM   15  C   UNL     1      -7.784  10.857  69.810  1.00  0.00     0.182 A  
HETATM   16  N   UNL     1      -9.990   9.828  68.674  1.00  0.00    -0.162 NA 
HETATM   17  C   UNL     1      -9.366   9.191  69.685  1.00  0.00    -0.172 A  
HETATM   18  N   UNL     1      -8.250   9.668  70.253  1.00  0.00    -0.190 NA 
BRANCH  14  19
HETATM   19  C   UNL     1      -7.735  12.857  68.390  1.00  0.00    -0.133 C  
HETATM   20  O   UNL     1      -7.394  13.013  67.224  1.00  0.00    -0.138 OA 
HETATM   21  N   UNL     1      -7.591  13.831  69.349  1.00  0.00    -0.322 N  
HETATM   22  H   UNL     1      -7.950  13.655  70.288  1.00  0.00     0.000 HD 
BRANCH  21  23
HETATM   23  C   UNL     1      -6.946  15.105  69.071  1.00  0.00    -0.131 C  
BRANCH  23  24
HETATM   24  C   UNL     1      -7.898  16.247  68.763  1.00  0.00    -0.216 A  
HETATM   25  N   UNL     1      -7.380  17.495  68.774  1.00  0.00    -0.255 NA 
HETATM   26  C   UNL     1      -8.215  18.503  68.458  1.00  0.00    -0.335 A  
HETATM   27  N   UNL     1      -9.193  15.967  68.486  1.00  0.00    -0.193 NA 
HETATM   28  C   UNL     1      -9.977  17.016  68.167  1.00  0.00    -0.287 A  
HETATM   29  C   UNL     1      -9.537  18.319  68.138  1.00  0.00    -0.316 A  
ENDBRANCH  23  24
ENDBRANCH  21  23
ENDBRANCH  14  19
BRANCH  17  30
HETATM   30  N   UNL     1      -9.874   8.012  70.154  1.00  0.00    -0.184 NA 
HETATM   31  C   UNL     1     -11.605   6.393  70.260  1.00  0.00    -0.451 C  
HETATM   32  C   UNL     1      -9.200   6.742  69.999  1.00  0.00    -0.158 C  
HETATM   33  C   UNL     1     -11.275   7.866  70.549  1.00  0.00    -0.253 C  
HETATM   34  C   UNL     1     -10.327   5.751  69.730  1.00  0.00    -0.332 C  
BRANCH  33  35
HETATM   35  C   UNL     1     -11.434   8.202  72.045  1.00  0.00    -0.320 C  
HETATM   36  O   UNL     1     -12.035   7.122  72.764  1.00  0.00    -0.520 OA 
HETATM   37  H   UNL     1     -12.133   7.328  73.686  1.00  0.00     0.000 HD 
ENDBRANCH  33  35
ENDBRANCH  17  30
ENDBRANCH  11  13
ENDBRANCH  10  11
ENDBRANCH   7  10
ENDBRANCH   2   3
TORSDOF 9
ENDMDL
MODEL      226
REMARK 921   NORMALIZED FREE ENERGY PREDICTED BY IDOCK:   -2.82 KCAL/MOL
REMARK 922        TOTAL FREE ENERGY PREDICTED BY IDOCK:   -5.83 KCAL/MOL
REMARK 923 INTER-LIGAND FREE ENERGY PREDICTED BY IDOCK:   -4.31 KCAL/MOL
REMARK 924 INTRA-LIGAND FREE ENERGY PREDICTED BY IDOCK:   -1.53 KCAL/MOL
REMARK 927      BINDING AFFINITY PREDICTED BY RF-SCORE:    0.00 PKD
ROOT
HETATM    1  C   UNL     1      -9.897   4.664  69.348  1.00  0.00    -0.202 C  
HETATM    2  O   UNL     1     -10.084   5.876  70.065  1.00  0.00    -0.175 OA 
ENDROOT
BRANCH   2   3
HETATM    3  C   UNL     1      -9.183   6.882  69.833  1.00  0.00    -0.147 A  
HETATM    4  C   UNL     1      -9.116   7.395  68.528  1.00  0.00    -0.136 A  
HETATM    5 CL   UNL     1     -10.053   6.713  67.243  1.00  0.00    -0.198 Cl 
HETATM    6  C   UNL     1      -8.273   8.470  68.220  1.00  0.00    -0.123 A  
HETATM    7  C   UNL     1      -7.490   9.065  69.218  1.00  0.00    -0.075 A  
HETATM    8  C   UNL     1      -8.379   7.459  70.820  1.00  0.00    -0.119 A  
HETATM    9  C   UNL     1      -7.536   8.533  70.513  1.00  0.00    -0.062 A  
BRANCH   7  10
HETATM   10  C   UNL     1      -6.577  10.225  68.892  1.00  0.00    -0.052 C  
BRANCH  10  11
HETATM   11  N   UNL     1      -7.169  10.959  67.787  1.00  0.00    -0.089 NA 
HETATM   12  H   UNL     1      -7.227  10.570  66.846  1.00  0.00     0.000 HD 
BRANCH  11  13
HETATM   13  C   UNL     1      -7.658  12.244  68.096  1.00  0.00    -0.127 A  
HETATM   14  C   UNL     1      -9.017  12.429  68.292  1.00  0.00    -0.178 A  
HETATM   15  C   UNL     1      -9.397  13.706  68.632  1.00  0.00    -0.057 A  
HETATM   16  N   UNL     1      -6.776  13.262  68.250  1.00  0.00    -0.091 NA 
HETATM   17  C   UNL     1      -7.230  14.481  68.603  1.00  0.00    -0.124 A  
HETATM   18  N   UNL     1      -8.534  14.737  68.775  1.00  0.00    -0.166 NA 
BRANCH  14  19
HETATM   19  C   UNL     1     -10.070  11.400  68.139  1.00  0.00    -0.189 C  
HETATM   20  O   UNL     1     -10.352  10.989  67.019  1.00  0.00    -0.209 OA 
HETATM   21  N   UNL     1     -10.666  10.923  69.282  1.00  0.00    -0.224 N  
HETATM   22  H   UNL     1     -10.343  11.268  70.187  1.00  0.00     0.000 HD 
BRANCH  21  23
HETATM   23  C   UNL     1     -11.741   9.943  69.247  1.00  0.00     0.185 C  
BRANCH  23  24
HETATM   24  C   UNL     1     -11.815   9.037  70.463  1.00  0.00    -0.073 A  
HETATM   25  N   UNL     1     -11.217   9.479  71.592  1.00  0.00    -0.366 NA 
HETATM   26  C   UNL     1     -11.320   8.696  72.682  1.00  0.00    -0.052 A  
HETATM   27  N   UNL     1     -12.473   7.858  70.367  1.00  0.00     0.368 NA 
HETATM   28  C   UNL     1     -12.551   7.122  71.494  1.00  0.00    -0.390 A  
HETATM   29  C   UNL     1     -11.987   7.496  72.691  1.00  0.00    -0.155 A  
ENDBRANCH  23  24
ENDBRANCH  21  23
ENDBRANCH  14  19
BRANCH  17  30
HETATM   30  N   UNL     1      -6.342  15.503  68.789  1.00  0.00    -0.101 NA 
HETATM   31  C   UNL     1      -5.864  17.789  69.204  1.00  0.00    -0.209 C  
HETATM   32  C   UNL     1      -5.319  15.486  69.810  1.00  0.00    -0.104 C  
HETATM   33  C   UNL     1      -6.547  16.832  68.214  1.00  0.00    -0.152 C  
HETATM   34  C   UNL     1      -5.261  16.926  70.307  1.00  0.00    -0.210 C  
BRANCH  33  35
HETATM   35  C   UNL     1      -5.900  16.901  66.815  1.00  0.00    -0.154 C  
HETATM   36  O   UNL     1      -5.852  18.245  66.327  1.00  0.00    -0.148 OA 
HETATM   37  H   UNL     1      -5.454  18.288  65.466  1.00  0.00     0.000 HD 
ENDBRANCH  33  35
ENDBRANCH  17  30
ENDBRANCH  11  13
ENDBRANCH  10  11
ENDBRANCH   7  10
ENDBRANCH   2   3
TORSDOF 9
ENDMDL
MODEL      227
REMARK 921   NORMALIZED FREE ENERGY PREDICTED BY IDOCK:   -2.60 KCAL/MOL
REMARK 922        TOTAL FREE ENERGY PREDICTED BY IDOCK:   -5.49 KCAL/MOL
REMARK 923 INTER-LIGAND FREE ENERGY PREDICTED BY IDOCK:   -5.67 KCAL/MOL
REMARK 924 INTRA-LIGAND FREE ENERGY PREDICTED BY IDOCK:    0.18 KCAL/MOL
REMARK 927      BINDING AFFINITY PREDICTED BY RF-SCORE:    0.00 PKD
ROOT
HETATM    1  C   UNL     1      -5.158   7.759  63.646  1.00  0.00    -0.037 C  
HETATM    2  O   UNL     1      -5.501   6.917  64.737  1.00  0.00    -0.030 OA 
ENDROOT
BRANCH   2   3
HETATM    3  C   UNL     1      -6.713   7.136  65.337  1.00  0.00    -0.051 A  
HETATM    4  C   UNL     1      -7.308   8.392  65.141  1.00  0.00    -0.081 A  
HETATM    5 CL   UNL     1      -6.495   9.647  64.269  1.00  0.00    -0.100 Cl 
HETATM    6  C   UNL     1      -8.577   8.676  65.660  1.00  0.00    -0.191 A  
HETATM    7  C   UNL     1      -9.284   7.701  66.374  1.00  0.00    -0.223 A  
HETATM    8  C   UNL     1      -7.409   6.174  66.075  1.00  0.00    -0.080 A  
HETATM    9  C   UNL     1      -8.678   6.457  66.595  1.00  0.00    -0.127 A  
BRANCH   7  10
HETATM   10  C   UNL     1     -10.654   8.001  66.939  1.00  0.00    -0.254 C  
BRANCH  10  11
HETATM   11  N   UNL     1     -10.569   9.254  67.669  1.00  0.00    -0.341 NA 
HETATM   12  H   UNL     1     -11.081  10.087  67.379  1.00  0.00     0.000 HD 
BRANCH  11  13
HETATM   13  C   UNL     1      -9.733   9.249  68.803  1.00  0.00    -0.157 A  
HETATM   14  C   UNL     1      -8.826  10.280  68.990  1.00  0.00    -0.170 A  
HETATM   15  C   UNL     1      -8.084  10.213  70.146  1.00  0.00     0.035 A  
HETATM   16  N   UNL     1      -9.875   8.257  69.718  1.00  0.00    -0.184 NA 
HETATM   17  C   UNL     1      -9.120   8.277  70.834  1.00  0.00    -0.152 A  
HETATM   18  N   UNL     1      -8.202   9.225  71.061  1.00  0.00    -0.304 NA 
BRANCH  14  19
HETATM   19  C   UNL     1      -8.576  11.402  68.058  1.00  0.00    -0.147 C  
HETATM   20  O   UNL     1      -7.747  11.268  67.165  1.00  0.00    -0.132 OA 
HETATM   21  N   UNL     1      -9.321  12.545  68.221  1.00  0.00    -0.236 N  
HETATM   22  H   UNL     1     -10.034  12.568  68.951  1.00  0.00     0.000 HD 
BRANCH  21  23
HETATM   23  C   UNL     1      -9.128  13.724  67.390  1.00  0.00    -0.221 C  
BRANCH  23  24
HETATM   24  C   UNL     1      -8.436  14.884  68.084  1.00  0.00    -0.146 A  
HETATM   25  N   UNL     1      -7.546  14.574  69.052  1.00  0.00    -0.131 NA 
HETATM   26  C   UNL     1      -6.899  15.600  69.636  1.00  0.00    -0.173 A  
HETATM   27  N   UNL     1      -8.726  16.149  67.699  1.00  0.00    -0.176 NA 
HETATM   28  C   UNL     1      -8.040  17.133  68.313  1.00  0.00    -0.239 A  
HETATM   29  C   UNL     1      -7.106  16.915  69.299  1.00  0.00    -0.192 A  
ENDBRANCH  23  24
ENDBRANCH  21  23
ENDBRANCH  14  19
BRANCH  17  30
HETATM   30  N   UNL     1      -9.281   7.297  71.773  1.00  0.00    -0.142 NA 
HETATM   31  C   UNL     1     -10.498   6.304  73.552  1.00  0.00    -0.288 C  
HETATM   32  C   UNL     1      -9.326   5.889  71.448  1.00  0.00    -0.149 C  
HETATM   33  C   UNL     1      -9.755   7.582  73.128  1.00  0.00    -0.247 C  
HETATM   34  C   UNL     1     -10.377   5.319  72.394  1.00  0.00    -0.259 C  
BRANCH  33  35
HETATM   35  C   UNL     1      -8.554   7.875  74.050  1.00  0.00    -0.264 C  
HETATM   36  O   UNL     1      -7.343   7.322  73.525  1.00  0.00    -0.078 OA 
HETATM   37  H   UNL     1      -6.604   7.502  74.093  1.00  0.00     0.000 HD 
ENDBRANCH  33  35
ENDBRANCH  17  30
ENDBRANCH  11  13
ENDBRANCH  10  11
ENDBRANCH   7  10
ENDBRANCH   2   3
TORSDOF 9
ENDMDL
MODEL      228
REMARK 921   NORMALIZED FREE ENERGY PREDICTED BY IDOCK:   -2.46 KCAL/MOL
REMARK 922        TOTAL FREE ENERGY PREDICTED BY IDOCK:   -5.28 KCAL/MOL
REMARK 923 INTER-LIGAND FREE ENERGY PREDICTED BY IDOCK:   -4.92 KCAL/MOL
REMARK 924 INTRA-LIGAND FREE ENERGY PREDICTED BY IDOCK:   -0.36 KCAL/MOL
REMARK 927      BINDING AFFINITY PREDICTED BY RF-SCORE:    0.00 PKD
ROOT
HETATM    1  C   UNL     1      -8.872   7.511  70.161  1.00  0.00    -0.147 C  
HETATM    2  O   UNL     1     -10.035   7.814  69.403  1.00  0.00    -0.180 OA 
ENDROOT
BRANCH   2   3
HETATM    3  C   UNL     1     -10.253   9.132  69.098  1.00  0.00    -0.207 A  
HETATM    4  C   UNL     1      -9.970   9.543  67.786  1.00  0.00    -0.174 A  
HETATM    5 CL   UNL     1      -9.272   8.457  66.633  1.00  0.00    -0.206 Cl 
HETATM    6  C   UNL     1     -10.230  10.854  67.371  1.00  0.00    -0.236 A  
HETATM    7  C   UNL     1     -10.794  11.780  68.259  1.00  0.00    -0.259 A  
HETATM    8  C   UNL     1     -10.789  10.065  69.990  1.00  0.00    -0.352 A  
HETATM    9  C   UNL     1     -11.049  11.377  69.576  1.00  0.00    -0.274 A  
BRANCH   7  10
HETATM   10  C   UNL     1     -11.075  13.198  67.817  1.00  0.00    -0.262 C  
BRANCH  10  11
HETATM   11  N   UNL     1     -10.159  13.517  66.737  1.00  0.00    -0.262 NA 
HETATM   12  H   UNL     1     -10.095  12.947  65.894  1.00  0.00     0.000 HD 
BRANCH  11  13
HETATM   13  C   UNL     1      -9.362  14.664  66.926  1.00  0.00    -0.243 A  
HETATM   14  C   UNL     1      -7.988  14.531  67.040  1.00  0.00    -0.074 A  
HETATM   15  C   UNL     1      -7.290  15.708  67.178  1.00  0.00    -0.212 A  
HETATM   16  N   UNL     1      -9.959  15.882  66.934  1.00  0.00    -0.243 NA 
HETATM   17  C   UNL     1      -9.197  16.988  67.055  1.00  0.00    -0.236 A  
HETATM   18  N   UNL     1      -7.867  16.929  67.204  1.00  0.00    -0.166 NA 
BRANCH  14  19
HETATM   19  C   UNL     1      -7.232  13.259  67.058  1.00  0.00     0.332 C  
HETATM   20  O   UNL     1      -7.726  12.258  66.551  1.00  0.00     0.096 OA 
HETATM   21  N   UNL     1      -5.977  13.270  67.619  1.00  0.00    -0.144 N  
HETATM   22  H   UNL     1      -5.604  14.152  67.972  1.00  0.00     0.000 HD 
BRANCH  21  23
HETATM   23  C   UNL     1      -5.164  12.069  67.729  1.00  0.00    -0.068 C  
BRANCH  23  24
HETATM   24  C   UNL     1      -5.707  11.018  68.681  1.00  0.00    -0.043 A  
HETATM   25  N   UNL     1      -5.264   9.753  68.512  1.00  0.00    -0.033 NA 
HETATM   26  C   UNL     1      -5.711   8.830  69.384  1.00  0.00    -0.034 A  
HETATM   27  N   UNL     1      -6.582  11.392  69.643  1.00  0.00    -0.132 NA 
HETATM   28  C   UNL     1      -6.987  10.426  70.492  1.00  0.00     0.112 A  
HETATM   29  C   UNL     1      -6.580   9.114  70.408  1.00  0.00    -0.054 A  
ENDBRANCH  23  24
ENDBRANCH  21  23
ENDBRANCH  14  19
BRANCH  17  30
HETATM   30  N   UNL     1      -9.790  18.220  67.034  1.00  0.00    -0.311 NA 
HETATM   31  C   UNL     1      -9.743  20.539  66.541  1.00  0.00    -0.345 C  
HETATM   32  C   UNL     1     -11.048  18.481  66.370  1.00  0.00     0.437 C  
HETATM   33  C   UNL     1      -9.066  19.443  67.379  1.00  0.00    -0.299 C  
HETATM   34  C   UNL     1     -10.870  19.868  65.764  1.00  0.00    -0.333 C  
BRANCH  33  35
HETATM   35  C   UNL     1      -9.198  19.719  68.891  1.00  0.00    -0.166 C  
HETATM   36  O   UNL     1      -9.946  18.692  69.548  1.00  0.00    -0.207 OA 
HETATM   37  H   UNL     1     -10.027  18.861  70.479  1.00  0.00     0.000 HD 
ENDBRANCH  33  35
ENDBRANCH  17  30
ENDBRANCH  11  13
ENDBRANCH  10  11
ENDBRANCH   7  10
ENDBRANCH   2   3
TORSDOF 9
ENDMDL
MODEL      229
REMARK 921   NORMALIZED FREE ENERGY PREDICTED BY IDOCK:   -2.43 KCAL/MOL
REMARK 922        TOTAL FREE ENERGY PREDICTED BY IDOCK:   -5.24 KCAL/MOL
REMARK 923 INTER-LIGAND FREE ENERGY PREDICTED BY IDOCK:   -5.66 KCAL/MOL
REMARK 924 INTRA-LIGAND FREE ENERGY PREDICTED BY IDOCK:    0.41 KCAL/MOL
REMARK 927      BINDING AFFINITY PREDICTED BY RF-SCORE:    0.00 PKD
ROOT
HETATM    1  C   UNL     1      -5.204  16.867  69.541  1.00  0.00    -0.144 C  
HETATM    2  O   UNL     1      -5.757  15.858  70.374  1.00  0.00    -0.163 OA 
ENDROOT
BRANCH   2   3
HETATM    3  C   UNL     1      -6.465  14.860  69.757  1.00  0.00    -0.164 A  
HETATM    4  C   UNL     1      -7.681  15.215  69.152  1.00  0.00    -0.195 A  
HETATM    5 CL   UNL     1      -8.310  16.823  69.272  1.00  0.00    -0.073 Cl 
HETATM    6  C   UNL     1      -8.432  14.273  68.441  1.00  0.00    -0.166 A  
HETATM    7  C   UNL     1      -7.975  12.956  68.308  1.00  0.00    -0.151 A  
HETATM    8  C   UNL     1      -6.025  13.538  69.648  1.00  0.00    -0.117 A  
HETATM    9  C   UNL     1      -6.777  12.594  68.938  1.00  0.00    -0.098 A  
BRANCH   7  10
HETATM   10  C   UNL     1      -8.784  11.932  67.543  1.00  0.00    -0.163 C  
BRANCH  10  11
HETATM   11  N   UNL     1      -7.995  10.715  67.460  1.00  0.00    -0.109 NA 
HETATM   12  H   UNL     1      -7.049  10.707  67.078  1.00  0.00     0.000 HD 
BRANCH  11  13
HETATM   13  C   UNL     1      -8.618   9.546  67.939  1.00  0.00    -0.119 A  
HETATM   14  C   UNL     1      -9.978   9.366  67.743  1.00  0.00    -0.228 A  
HETATM   15  C   UNL     1     -10.489   8.176  68.206  1.00  0.00    -0.160 A  
HETATM   16  N   UNL     1      -7.857   8.594  68.534  1.00  0.00    -0.106 NA 
HETATM   17  C   UNL     1      -8.435   7.448  68.943  1.00  0.00    -0.129 A  
HETATM   18  N   UNL     1      -9.749   7.223  68.815  1.00  0.00    -0.149 NA 
BRANCH  14  19
HETATM   19  C   UNL     1     -10.907  10.336  67.121  1.00  0.00    -0.212 C  
HETATM   20  O   UNL     1     -11.826  10.800  67.787  1.00  0.00    -0.538 OA 
HETATM   21  N   UNL     1     -10.669  10.700  65.818  1.00  0.00    -0.094 N  
HETATM   22  H   UNL     1      -9.852  10.318  65.340  1.00  0.00     0.000 HD 
BRANCH  21  23
HETATM   23  C   UNL     1     -11.542  11.612  65.094  1.00  0.00    -0.052 C  
BRANCH  23  24
HETATM   24  C   UNL     1     -11.312  13.083  65.393  1.00  0.00    -0.297 A  
HETATM   25  N   UNL     1     -10.623  13.793  64.473  1.00  0.00    -0.423 NA 
HETATM   26  C   UNL     1     -10.458  15.107  64.717  1.00  0.00    -0.209 A  
HETATM   27  N   UNL     1     -11.809  13.608  66.537  1.00  0.00    -0.381 NA 
HETATM   28  C   UNL     1     -11.620  14.930  66.722  1.00  0.00    -0.269 A  
HETATM   29  C   UNL     1     -10.944  15.736  65.836  1.00  0.00    -0.191 A  
ENDBRANCH  23  24
ENDBRANCH  21  23
ENDBRANCH  14  19
BRANCH  17  30
HETATM   30  N   UNL     1      -7.667   6.473  69.516  1.00  0.00    -0.098 NA 
HETATM   31  C   UNL     1      -7.143   4.188  69.882  1.00  0.00    -0.042 C  
HETATM   32  C   UNL     1      -6.233   6.392  69.344  1.00  0.00    -0.034 C  
HETATM   33  C   UNL     1      -8.242   5.247  70.068  1.00  0.00    -0.084 C  
HETATM   34  C   UNL     1      -5.953   4.897  69.244  1.00  0.00    -0.018 C  
BRANCH  33  35
HETATM   35  C   UNL     1      -8.586   5.456  71.557  1.00  0.00    -0.131 C  
HETATM   36  O   UNL     1      -9.240   6.709  71.773  1.00  0.00    -0.149 OA 
HETATM   37  H   UNL     1      -9.452   6.838  72.690  1.00  0.00     0.000 HD 
ENDBRANCH  33  35
ENDBRANCH  17  30
ENDBRANCH  11  13
ENDBRANCH  10  11
ENDBRANCH   7  10
ENDBRANCH   2   3
TORSDOF 9
ENDMDL
MODEL      230
REMARK 921   NORMALIZED FREE ENERGY PREDICTED BY IDOCK:   -2.42 KCAL/MOL
REMARK 922        TOTAL FREE ENERGY PREDICTED BY IDOCK:   -5.23 KCAL/MOL
REMARK 923 INTER-LIGAND FREE ENERGY PREDICTED BY IDOCK:   -4.70 KCAL/MOL
REMARK 924 INTRA-LIGAND FREE ENERGY PREDICTED BY IDOCK:   -0.52 KCAL/MOL
REMARK 927      BINDING AFFINITY PREDICTED BY RF-SCORE:    0.00 PKD
ROOT
HETATM    1  C   UNL     1      -8.616   6.720  74.542  1.00  0.00    -0.173 C  
HETATM    2  O   UNL     1      -8.205   6.177  73.296  1.00  0.00    -0.114 OA 
ENDROOT
BRANCH   2   3
HETATM    3  C   UNL     1      -8.940   6.522  72.192  1.00  0.00    -0.139 A  
HETATM    4  C   UNL     1      -9.409   7.843  72.121  1.00  0.00    -0.169 A  
HETATM    5 CL   UNL     1      -9.161   8.958  73.421  1.00  0.00     0.574 Cl 
HETATM    6  C   UNL     1     -10.109   8.298  70.997  1.00  0.00    -0.230 A  
HETATM    7  C   UNL     1     -10.341   7.442  69.912  1.00  0.00    -0.222 A  
HETATM    8  C   UNL     1      -9.198   5.662  71.121  1.00  0.00    -0.169 A  
HETATM    9  C   UNL     1      -9.899   6.116  69.997  1.00  0.00    -0.207 A  
BRANCH   7  10
HETATM   10  C   UNL     1     -11.097   7.927  68.696  1.00  0.00     0.331 C  
BRANCH  10  11
HETATM   11  N   UNL     1     -10.185   7.901  67.566  1.00  0.00    -0.220 NA 
HETATM   12  H   UNL     1      -9.978   7.043  67.057  1.00  0.00     0.000 HD 
BRANCH  11  13
HETATM   13  C   UNL     1      -9.604   9.137  67.218  1.00  0.00    -0.154 A  
HETATM   14  C   UNL     1      -8.224   9.258  67.186  1.00  0.00    -0.117 A  
HETATM   15  C   UNL     1      -7.748  10.487  66.794  1.00  0.00    -0.118 A  
HETATM   16  N   UNL     1     -10.414  10.166  66.866  1.00  0.00    -0.234 NA 
HETATM   17  C   UNL     1      -9.864  11.333  66.475  1.00  0.00    -0.208 A  
HETATM   18  N   UNL     1      -8.539  11.529  66.454  1.00  0.00    -0.177 NA 
BRANCH  14  19
HETATM   19  C   UNL     1      -7.246   8.212  67.560  1.00  0.00    -0.091 C  
HETATM   20  O   UNL     1      -7.420   7.565  68.586  1.00  0.00    -0.096 OA 
HETATM   21  N   UNL     1      -6.191   7.992  66.707  1.00  0.00    -0.053 N  
HETATM   22  H   UNL     1      -6.137   8.529  65.841  1.00  0.00     0.000 HD 
BRANCH  21  23
HETATM   23  C   UNL     1      -5.148   7.019  66.996  1.00  0.00    -0.013 C  
BRANCH  23  24
HETATM   24  C   UNL     1      -5.558   5.570  66.800  1.00  0.00    -0.017 A  
HETATM   25  N   UNL     1      -5.879   4.871  67.910  1.00  0.00    -0.021 NA 
HETATM   26  C   UNL     1      -6.285   3.599  67.732  1.00  0.00    -0.033 A  
HETATM   27  N   UNL     1      -5.593   5.061  65.547  1.00  0.00    -0.013 NA 
HETATM   28  C   UNL     1      -6.017   3.786  65.431  1.00  0.00    -0.023 A  
HETATM   29  C   UNL     1      -6.378   3.000  66.500  1.00  0.00    -0.028 A  
ENDBRANCH  23  24
ENDBRANCH  21  23
ENDBRANCH  14  19
BRANCH  17  30
HETATM   30  N   UNL     1     -10.675  12.364  66.091  1.00  0.00    -0.254 NA 
HETATM   31  C   UNL     1     -12.783  13.199  65.392  1.00  0.00    -0.422 C  
HETATM   32  C   UNL     1     -10.888  13.546  66.896  1.00  0.00    -0.282 C  
HETATM   33  C   UNL     1     -11.652  12.230  65.011  1.00  0.00    -0.343 C  
HETATM   34  C   UNL     1     -12.362  13.878  66.691  1.00  0.00    -0.411 C  
BRANCH  33  35
HETATM   35  C   UNL     1     -11.001  12.614  63.667  1.00  0.00    -0.416 C  
HETATM   36  O   UNL     1     -11.701  13.689  63.034  1.00  0.00    -0.445 OA 
HETATM   37  H   UNL     1     -11.301  13.927  62.206  1.00  0.00     0.000 HD 
ENDBRANCH  33  35
ENDBRANCH  17  30
ENDBRANCH  11  13
ENDBRANCH  10  11
ENDBRANCH   7  10
ENDBRANCH   2   3
TORSDOF 9
ENDMDL
MODEL      231
REMARK 921   NORMALIZED FREE ENERGY PREDICTED BY IDOCK:   -2.41 KCAL/MOL
REMARK 922        TOTAL FREE ENERGY PREDICTED BY IDOCK:   -5.21 KCAL/MOL
REMARK 923 INTER-LIGAND FREE ENERGY PREDICTED BY IDOCK:   -5.35 KCAL/MOL
REMARK 924 INTRA-LIGAND FREE ENERGY PREDICTED BY IDOCK:    0.14 KCAL/MOL
REMARK 927      BINDING AFFINITY PREDICTED BY RF-SCORE:    0.00 PKD
ROOT
HETATM    1  C   UNL     1     -12.409  12.511  65.216  1.00  0.00    -0.403 C  
HETATM    2  O   UNL     1     -12.052  13.208  66.402  1.00  0.00    -0.403 OA 
ENDROOT
BRANCH   2   3
HETATM    3  C   UNL     1     -11.744  12.451  67.501  1.00  0.00    -0.357 A  
HETATM    4  C   UNL     1     -10.787  11.437  67.335  1.00  0.00    -0.254 A  
HETATM    5 CL   UNL     1     -10.104  11.090  65.783  1.00  0.00    -0.292 Cl 
HETATM    6  C   UNL     1     -10.364  10.663  68.422  1.00  0.00    -0.197 A  
HETATM    7  C   UNL     1     -10.880  10.898  69.703  1.00  0.00    -0.271 A  
HETATM    8  C   UNL     1     -12.279  12.663  68.775  1.00  0.00     0.018 A  
HETATM    9  C   UNL     1     -11.857  11.889  69.862  1.00  0.00    -0.418 A  
BRANCH   7  10
HETATM   10  C   UNL     1     -10.428  10.063  70.880  1.00  0.00     0.033 C  
BRANCH  10  11
HETATM   11  N   UNL     1      -9.787   8.869  70.359  1.00  0.00    -0.179 NA 
HETATM   12  H   UNL     1     -10.287   7.985  70.258  1.00  0.00     0.000 HD 
BRANCH  11  13
HETATM   13  C   UNL     1      -8.432   9.006  69.999  1.00  0.00    -0.145 A  
HETATM   14  C   UNL     1      -7.791   7.971  69.338  1.00  0.00    -0.113 A  
HETATM   15  C   UNL     1      -6.483   8.212  68.989  1.00  0.00    -0.040 A  
HETATM   16  N   UNL     1      -7.800  10.177  70.261  1.00  0.00    -0.174 NA 
HETATM   17  C   UNL     1      -6.520  10.338  69.868  1.00  0.00    -0.096 A  
HETATM   18  N   UNL     1      -5.832   9.366  69.255  1.00  0.00    -0.035 NA 
BRANCH  14  19
HETATM   19  C   UNL     1      -8.374   6.650  69.012  1.00  0.00    -0.120 C  
HETATM   20  O   UNL     1      -7.759   5.887  68.276  1.00  0.00    -0.097 OA 
HETATM   21  N   UNL     1      -9.579   6.325  69.587  1.00  0.00    -0.145 N  
HETATM   22  H   UNL     1     -10.009   6.985  70.236  1.00  0.00     0.000 HD 
BRANCH  21  23
HETATM   23  C   UNL     1     -10.263   5.072  69.304  1.00  0.00    -0.174 C  
BRANCH  23  24
HETATM   24  C   UNL     1      -9.751   3.877  70.088  1.00  0.00    -0.172 A  
HETATM   25  N   UNL     1      -9.765   3.979  71.436  1.00  0.00    -0.174 NA 
HETATM   26  C   UNL     1      -9.353   2.902  72.131  1.00  0.00    -0.107 A  
HETATM   27  N   UNL     1      -9.324   2.783  69.416  1.00  0.00    -0.136 NA 
HETATM   28  C   UNL     1      -8.932   1.734  70.167  1.00  0.00    -0.079 A  
HETATM   29  C   UNL     1      -8.925   1.739  71.542  1.00  0.00    -0.123 A  
ENDBRANCH  23  24
ENDBRANCH  21  23
ENDBRANCH  14  19
BRANCH  17  30
HETATM   30  N   UNL     1      -5.888  11.527  70.103  1.00  0.00    -0.134 NA 
HETATM   31  C   UNL     1      -5.909  13.894  70.264  1.00  0.00    -0.150 C  
HETATM   32  C   UNL     1      -5.182  11.819  71.330  1.00  0.00    -0.022 C  
HETATM   33  C   UNL     1      -6.143  12.721  69.298  1.00  0.00    -0.099 C  
HETATM   34  C   UNL     1      -5.488  13.288  71.599  1.00  0.00    -0.093 C  
BRANCH  33  35
HETATM   35  C   UNL     1      -5.170  12.764  68.103  1.00  0.00    -0.077 C  
HETATM   36  O   UNL     1      -5.594  11.893  67.050  1.00  0.00    -0.117 OA 
HETATM   37  H   UNL     1      -4.995  11.919  66.314  1.00  0.00     0.000 HD 
ENDBRANCH  33  35
ENDBRANCH  17  30
ENDBRANCH  11  13
ENDBRANCH  10  11
ENDBRANCH   7  10
ENDBRANCH   2   3
TORSDOF 9
ENDMDL
MODEL      232
REMARK 921   NORMALIZED FREE ENERGY PREDICTED BY IDOCK:   -2.34 KCAL/MOL
REMARK 922        TOTAL FREE ENERGY PREDICTED BY IDOCK:   -5.10 KCAL/MOL
REMARK 923 INTER-LIGAND FREE ENERGY PREDICTED BY IDOCK:   -4.87 KCAL/MOL
REMARK 924 INTRA-LIGAND FREE ENERGY PREDICTED BY IDOCK:   -0.23 KCAL/MOL
REMARK 927      BINDING AFFINITY PREDICTED BY RF-SCORE:    0.00 PKD
ROOT
HETATM    1  C   UNL     1     -12.579   8.073  70.530  1.00  0.00     0.474 C  
HETATM    2  O   UNL     1     -11.203   8.270  70.239  1.00  0.00    -0.249 OA 
ENDROOT
BRANCH   2   3
HETATM    3  C   UNL     1     -10.879   9.356  69.468  1.00  0.00    -0.213 A  
HETATM    4  C   UNL     1     -11.084  10.626  70.029  1.00  0.00    -0.289 A  
HETATM    5 CL   UNL     1     -11.816  10.814  71.587  1.00  0.00     0.079 Cl 
HETATM    6  C   UNL     1     -10.716  11.786  69.338  1.00  0.00    -0.049 A  
HETATM    7  C   UNL     1     -10.118  11.698  68.074  1.00  0.00    -0.198 A  
HETATM    8  C   UNL     1     -10.309   9.272  68.194  1.00  0.00    -0.261 A  
HETATM    9  C   UNL     1      -9.941  10.432  67.502  1.00  0.00    -0.215 A  
BRANCH   7  10
HETATM   10  C   UNL     1      -9.720  12.947  67.321  1.00  0.00    -0.220 C  
BRANCH  10  11
HETATM   11  N   UNL     1      -8.302  12.852  67.022  1.00  0.00    -0.337 NA 
HETATM   12  H   UNL     1      -7.931  13.032  66.089  1.00  0.00     0.000 HD 
BRANCH  11  13
HETATM   13  C   UNL     1      -7.469  12.494  68.100  1.00  0.00    -0.117 A  
HETATM   14  C   UNL     1      -6.828  13.483  68.828  1.00  0.00    -0.108 A  
HETATM   15  C   UNL     1      -6.071  13.042  69.888  1.00  0.00    -0.125 A  
HETATM   16  N   UNL     1      -7.359  11.184  68.437  1.00  0.00    -0.088 NA 
HETATM   17  C   UNL     1      -6.611  10.838  69.504  1.00  0.00    -0.099 A  
HETATM   18  N   UNL     1      -5.938  11.741  70.229  1.00  0.00    -0.162 NA 
BRANCH  14  19
HETATM   19  C   UNL     1      -6.863  14.936  68.546  1.00  0.00    -0.106 C  
HETATM   20  O   UNL     1      -7.033  15.724  69.470  1.00  0.00    -0.187 OA 
HETATM   21  N   UNL     1      -6.667  15.338  67.247  1.00  0.00    -0.115 N  
HETATM   22  H   UNL     1      -6.475  14.632  66.536  1.00  0.00     0.000 HD 
BRANCH  21  23
HETATM   23  C   UNL     1      -6.724  16.737  66.849  1.00  0.00    -0.220 C  
BRANCH  23  24
HETATM   24  C   UNL     1      -8.085  17.390  67.016  1.00  0.00    -0.216 A  
HETATM   25  N   UNL     1      -8.168  18.414  67.894  1.00  0.00    -0.255 NA 
HETATM   26  C   UNL     1      -9.364  19.021  68.010  1.00  0.00    -0.317 A  
HETATM   27  N   UNL     1      -9.127  16.935  66.283  1.00  0.00    -0.361 NA 
HETATM   28  C   UNL     1     -10.296  17.590  66.434  1.00  0.00    -0.334 A  
HETATM   29  C   UNL     1     -10.474  18.650  67.293  1.00  0.00    -0.468 A  
ENDBRANCH  23  24
ENDBRANCH  21  23
ENDBRANCH  14  19
BRANCH  17  30
HETATM   30  N   UNL     1      -6.522   9.523  69.866  1.00  0.00    -0.048 NA 
HETATM   31  C   UNL     1      -7.505   7.391  70.206  1.00  0.00    -0.083 C  
HETATM   32  C   UNL     1      -5.606   8.593  69.245  1.00  0.00    -0.035 C  
HETATM   33  C   UNL     1      -7.553   8.859  70.661  1.00  0.00    -0.099 C  
HETATM   34  C   UNL     1      -6.393   7.289  69.167  1.00  0.00    -0.036 C  
BRANCH  33  35
HETATM   35  C   UNL     1      -7.228   9.001  72.162  1.00  0.00     0.238 C  
HETATM   36  O   UNL     1      -6.273   8.024  72.586  1.00  0.00    -0.056 OA 
HETATM   37  H   UNL     1      -6.072   8.111  73.510  1.00  0.00     0.000 HD 
ENDBRANCH  33  35
ENDBRANCH  17  30
ENDBRANCH  11  13
ENDBRANCH  10  11
ENDBRANCH   7  10
ENDBRANCH   2   3
TORSDOF 9
ENDMDL
MODEL      233
REMARK 921   NORMALIZED FREE ENERGY PREDICTED BY IDOCK:   -2.11 KCAL/MOL
REMARK 922        TOTAL FREE ENERGY PREDICTED BY IDOCK:   -4.75 KCAL/MOL
REMARK 923 INTER-LIGAND FREE ENERGY PREDICTED BY IDOCK:   -5.25 KCAL/MOL
REMARK 924 INTRA-LIGAND FREE ENERGY PREDICTED BY IDOCK:    0.50 KCAL/MOL
REMARK 927      BINDING AFFINITY PREDICTED BY RF-SCORE:    0.00 PKD
ROOT
HETATM    1  C   UNL     1     -12.844   7.896  70.491  1.00  0.00     0.594 C  
HETATM    2  O   UNL     1     -11.557   8.495  70.442  1.00  0.00    -0.204 OA 
ENDROOT
BRANCH   2   3
HETATM    3  C   UNL     1     -11.423   9.622  69.676  1.00  0.00    -0.001 A  
HETATM    4  C   UNL     1     -11.790  10.844  70.263  1.00  0.00    -0.361 A  
HETATM    5 CL   UNL     1     -12.484  10.909  71.847  1.00  0.00    -0.231 Cl 
HETATM    6  C   UNL     1     -11.620  12.051  69.576  1.00  0.00    -0.389 A  
HETATM    7  C   UNL     1     -11.063  12.063  68.290  1.00  0.00    -0.290 A  
HETATM    8  C   UNL     1     -10.894   9.634  68.382  1.00  0.00    -0.212 A  
HETATM    9  C   UNL     1     -10.724  10.842  67.694  1.00  0.00    -0.305 A  
BRANCH   7  10
HETATM   10  C   UNL     1     -10.878  13.364  67.542  1.00  0.00    -0.263 C  
BRANCH  10  11
HETATM   11  N   UNL     1      -9.642  13.270  66.786  1.00  0.00    -0.251 NA 
HETATM   12  H   UNL     1      -9.581  13.553  65.808  1.00  0.00     0.000 HD 
BRANCH  11  13
HETATM   13  C   UNL     1      -8.530  12.762  67.488  1.00  0.00    -0.181 A  
HETATM   14  C   UNL     1      -7.887  13.561  68.421  1.00  0.00    -0.143 A  
HETATM   15  C   UNL     1      -6.841  12.966  69.087  1.00  0.00    -0.054 A  
HETATM   16  N   UNL     1      -8.149  11.479  67.273  1.00  0.00    -0.145 NA 
HETATM   17  C   UNL     1      -7.124  10.967  67.983  1.00  0.00    -0.077 A  
HETATM   18  N   UNL     1      -6.438  11.694  68.875  1.00  0.00    -0.064 NA 
BRANCH  14  19
HETATM   19  C   UNL     1      -8.205  14.973  68.729  1.00  0.00    -0.168 C  
HETATM   20  O   UNL     1      -9.355  15.280  69.023  1.00  0.00    -0.205 OA 
HETATM   21  N   UNL     1      -7.172  15.879  68.703  1.00  0.00    -0.132 N  
HETATM   22  H   UNL     1      -6.228  15.544  68.506  1.00  0.00     0.000 HD 
BRANCH  21  23
HETATM   23  C   UNL     1      -7.377  17.299  68.948  1.00  0.00    -0.243 C  
BRANCH  23  24
HETATM   24  C   UNL     1      -7.234  18.182  67.721  1.00  0.00    -0.213 A  
HETATM   25  N   UNL     1      -6.712  17.610  66.614  1.00  0.00    -0.187 NA 
HETATM   26  C   UNL     1      -6.627  18.381  65.513  1.00  0.00    -0.252 A  
HETATM   27  N   UNL     1      -7.640  19.471  67.787  1.00  0.00    -0.265 NA 
HETATM   28  C   UNL     1      -7.539  20.190  66.652  1.00  0.00    -0.280 A  
HETATM   29  C   UNL     1      -7.034  19.691  65.474  1.00  0.00    -0.317 A  
ENDBRANCH  23  24
ENDBRANCH  21  23
ENDBRANCH  14  19
BRANCH  17  30
HETATM   30  N   UNL     1      -6.755   9.665  67.791  1.00  0.00    -0.066 NA 
HETATM   31  C   UNL     1      -7.256   7.346  67.775  1.00  0.00    -0.091 C  
HETATM   32  C   UNL     1      -6.193   9.176  66.552  1.00  0.00    -0.065 C  
HETATM   33  C   UNL     1      -7.196   8.589  68.678  1.00  0.00    -0.080 C  
HETATM   34  C   UNL     1      -6.801   7.787  66.388  1.00  0.00    -0.062 C  
BRANCH  33  35
HETATM   35  C   UNL     1      -6.183   8.410  69.827  1.00  0.00    -0.032 C  
HETATM   36  O   UNL     1      -5.154   7.481  69.478  1.00  0.00    -0.015 OA 
HETATM   37  H   UNL     1      -4.529   7.370  70.185  1.00  0.00     0.000 HD 
ENDBRANCH  33  35
ENDBRANCH  17  30
ENDBRANCH  11  13
ENDBRANCH  10  11
ENDBRANCH   7  10
ENDBRANCH   2   3
TORSDOF 9
ENDMDL
MODEL      234
REMARK 921   NORMALIZED FREE ENERGY PREDICTED BY IDOCK:   -1.96 KCAL/MOL
REMARK 922        TOTAL FREE ENERGY PREDICTED BY IDOCK:   -4.52 KCAL/MOL
REMARK 923 INTER-LIGAND FREE ENERGY PREDICTED BY IDOCK:   -2.92 KCAL/MOL
REMARK 924 INTRA-LIGAND FREE ENERGY PREDICTED BY IDOCK:   -1.60 KCAL/MOL
REMARK 927      BINDING AFFINITY PREDICTED BY RF-SCORE:    0.00 PKD
ROOT
HETATM    1  C   UNL     1     -12.578   7.120  73.170  1.00  0.00     1.572 C  
HETATM    2  O   UNL     1     -11.237   7.067  72.704  1.00  0.00    -0.266 OA 
ENDROOT
BRANCH   2   3
HETATM    3  C   UNL     1     -11.043   7.165  71.351  1.00  0.00    -0.242 A  
HETATM    4  C   UNL     1      -9.963   7.947  70.913  1.00  0.00    -0.182 A  
HETATM    5 CL   UNL     1      -8.984   8.837  72.030  1.00  0.00    -0.284 Cl 
HETATM    6  C   UNL     1      -9.651   8.045  69.552  1.00  0.00    -0.164 A  
HETATM    7  C   UNL     1     -10.406   7.348  68.600  1.00  0.00    -0.215 A  
HETATM    8  C   UNL     1     -11.813   6.494  70.397  1.00  0.00    -0.378 A  
HETATM    9  C   UNL     1     -11.502   6.592  69.035  1.00  0.00    -0.195 A  
BRANCH   7  10
HETATM   10  C   UNL     1     -10.076   7.451  67.128  1.00  0.00    -0.244 C  
BRANCH  10  11
HETATM   11  N   UNL     1      -9.499   6.184  66.713  1.00  0.00    -0.141 NA 
HETATM   12  H   UNL     1      -9.912   5.289  66.974  1.00  0.00     0.000 HD 
BRANCH  11  13
HETATM   13  C   UNL     1      -8.333   6.268  65.927  1.00  0.00    -0.142 A  
HETATM   14  C   UNL     1      -7.369   5.278  66.025  1.00  0.00    -0.081 A  
HETATM   15  C   UNL     1      -6.286   5.422  65.189  1.00  0.00    -0.034 A  
HETATM   16  N   UNL     1      -8.207   7.294  65.048  1.00  0.00    -0.127 NA 
HETATM   17  C   UNL     1      -7.122   7.349  64.251  1.00  0.00    -0.066 A  
HETATM   18  N   UNL     1      -6.137   6.444  64.318  1.00  0.00    -0.026 NA 
BRANCH  14  19
HETATM   19  C   UNL     1      -7.392   4.125  66.953  1.00  0.00    -0.073 C  
HETATM   20  O   UNL     1      -8.107   3.163  66.699  1.00  0.00    -0.083 OA 
HETATM   21  N   UNL     1      -6.571   4.177  68.054  1.00  0.00    -0.042 N  
HETATM   22  H   UNL     1      -5.959   4.984  68.175  1.00  0.00     0.000 HD 
BRANCH  21  23
HETATM   23  C   UNL     1      -6.545   3.120  69.054  1.00  0.00    -0.033 C  
BRANCH  23  24
HETATM   24  C   UNL     1      -6.730   3.594  70.485  1.00  0.00    -0.033 A  
HETATM   25  N   UNL     1      -7.278   4.818  70.657  1.00  0.00    -0.048 NA 
HETATM   26  C   UNL     1      -7.482   5.219  71.926  1.00  0.00    -0.096 A  
HETATM   27  N   UNL     1      -6.358   2.782  71.501  1.00  0.00    -0.018 NA 
HETATM   28  C   UNL     1      -6.597   3.234  72.748  1.00  0.00    -0.025 A  
HETATM   29  C   UNL     1      -7.162   4.458  73.022  1.00  0.00    -0.074 A  
ENDBRANCH  23  24
ENDBRANCH  21  23
ENDBRANCH  14  19
BRANCH  17  30
HETATM   30  N   UNL     1      -7.005   8.364  63.342  1.00  0.00    -0.088 NA 
HETATM   31  C   UNL     1      -6.907  10.673  62.808  1.00  0.00    -0.023 C  
HETATM   32  C   UNL     1      -5.890   8.484  62.429  1.00  0.00    -0.084 C  
HETATM   33  C   UNL     1      -7.801   9.587  63.429  1.00  0.00    -0.132 C  
HETATM   34  C   UNL     1      -5.624   9.983  62.359  1.00  0.00    -0.098 C  
BRANCH  33  35
HETATM   35  C   UNL     1      -9.115   9.412  62.641  1.00  0.00    -0.128 C  
HETATM   36  O   UNL     1      -9.978  10.542  62.803  1.00  0.00    -0.633 OA 
HETATM   37  H   UNL     1     -10.787  10.435  62.318  1.00  0.00     0.000 HD 
ENDBRANCH  33  35
ENDBRANCH  17  30
ENDBRANCH  11  13
ENDBRANCH  10  11
ENDBRANCH   7  10
ENDBRANCH   2   3
TORSDOF 9
ENDMDL
MODEL      235
REMARK 921   NORMALIZED FREE ENERGY PREDICTED BY IDOCK:   -1.63 KCAL/MOL
REMARK 922        TOTAL FREE ENERGY PREDICTED BY IDOCK:   -4.01 KCAL/MOL
REMARK 923 INTER-LIGAND FREE ENERGY PREDICTED BY IDOCK:   -5.13 KCAL/MOL
REMARK 924 INTRA-LIGAND FREE ENERGY PREDICTED BY IDOCK:    1.12 KCAL/MOL
REMARK 927      BINDING AFFINITY PREDICTED BY RF-SCORE:    0.00 PKD
ROOT
HETATM    1  C   UNL     1     -12.067   7.120  71.155  1.00  0.00    -0.358 C  
HETATM    2  O   UNL     1     -11.883   8.526  71.064  1.00  0.00    -0.284 OA 
ENDROOT
BRANCH   2   3
HETATM    3  C   UNL     1     -11.491   9.027  69.851  1.00  0.00     0.086 A  
HETATM    4  C   UNL     1     -10.484   8.330  69.164  1.00  0.00    -0.206 A  
HETATM    5 CL   UNL     1      -9.696   6.960  69.869  1.00  0.00    -0.162 Cl 
HETATM    6  C   UNL     1     -10.074   8.733  67.888  1.00  0.00    -0.257 A  
HETATM    7  C   UNL     1     -10.675   9.834  67.264  1.00  0.00    -0.296 A  
HETATM    8  C   UNL     1     -12.069  10.143  69.239  1.00  0.00     0.209 A  
HETATM    9  C   UNL     1     -11.659  10.546  67.962  1.00  0.00    -0.107 A  
BRANCH   7  10
HETATM   10  C   UNL     1     -10.235  10.275  65.886  1.00  0.00    -0.223 C  
BRANCH  10  11
HETATM   11  N   UNL     1      -8.952  10.942  66.022  1.00  0.00    -0.180 NA 
HETATM   12  H   UNL     1      -8.102  10.575  65.595  1.00  0.00     0.000 HD 
BRANCH  11  13
HETATM   13  C   UNL     1      -8.955  12.129  66.782  1.00  0.00    -0.203 A  
HETATM   14  C   UNL     1      -8.130  12.234  67.890  1.00  0.00    -0.155 A  
HETATM   15  C   UNL     1      -8.167  13.444  68.543  1.00  0.00    -0.093 A  
HETATM   16  N   UNL     1      -9.728  13.166  66.374  1.00  0.00    -0.267 NA 
HETATM   17  C   UNL     1      -9.692  14.325  67.062  1.00  0.00    -0.253 A  
HETATM   18  N   UNL     1      -8.942  14.483  68.161  1.00  0.00    -0.175 NA 
BRANCH  14  19
HETATM   19  C   UNL     1      -7.257  11.169  68.433  1.00  0.00    -0.083 C  
HETATM   20  O   UNL     1      -7.599  10.570  69.447  1.00  0.00    -0.123 OA 
HETATM   21  N   UNL     1      -6.105  10.875  67.744  1.00  0.00    -0.046 N  
HETATM   22  H   UNL     1      -5.910  11.374  66.875  1.00  0.00     0.000 HD 
BRANCH  21  23
HETATM   23  C   UNL     1      -5.153   9.878  68.210  1.00  0.00    -0.036 C  
BRANCH  23  24
HETATM   24  C   UNL     1      -5.566   9.148  69.476  1.00  0.00    -0.034 A  
HETATM   25  N   UNL     1      -5.137   9.667  70.647  1.00  0.00    -0.034 NA 
HETATM   26  C   UNL     1      -5.540   9.045  71.772  1.00  0.00    -0.060 A  
HETATM   27  N   UNL     1      -6.338   8.042  69.375  1.00  0.00    -0.034 NA 
HETATM   28  C   UNL     1      -6.717   7.468  70.535  1.00  0.00    -0.047 A  
HETATM   29  C   UNL     1      -6.343   7.932  71.775  1.00  0.00    -0.040 A  
ENDBRANCH  23  24
ENDBRANCH  21  23
ENDBRANCH  14  19
BRANCH  17  30
HETATM   30  N   UNL     1     -10.446  15.383  66.637  1.00  0.00    -0.287 NA 
HETATM   31  C   UNL     1     -10.636  17.559  65.712  1.00  0.00    -0.176 C  
HETATM   32  C   UNL     1     -11.479  15.266  65.632  1.00  0.00    -0.123 C  
HETATM   33  C   UNL     1     -10.065  16.771  66.902  1.00  0.00    -0.286 C  
HETATM   34  C   UNL     1     -11.360  16.553  64.823  1.00  0.00    -0.078 C  
BRANCH  33  35
HETATM   35  C   UNL     1     -10.678  17.235  68.239  1.00  0.00    -0.349 C  
HETATM   36  O   UNL     1      -9.958  18.343  68.788  1.00  0.00    -0.369 OA 
HETATM   37  H   UNL     1     -10.335  18.629  69.611  1.00  0.00     0.000 HD 
ENDBRANCH  33  35
ENDBRANCH  17  30
ENDBRANCH  11  13
ENDBRANCH  10  11
ENDBRANCH   7  10
ENDBRANCH   2   3
TORSDOF 9
ENDMDL
MODEL      236
REMARK 921   NORMALIZED FREE ENERGY PREDICTED BY IDOCK:   -1.56 KCAL/MOL
REMARK 922        TOTAL FREE ENERGY PREDICTED BY IDOCK:   -3.91 KCAL/MOL
REMARK 923 INTER-LIGAND FREE ENERGY PREDICTED BY IDOCK:   -5.39 KCAL/MOL
REMARK 924 INTRA-LIGAND FREE ENERGY PREDICTED BY IDOCK:    1.48 KCAL/MOL
REMARK 927      BINDING AFFINITY PREDICTED BY RF-SCORE:    0.00 PKD
ROOT
HETATM    1  C   UNL     1     -14.172  13.409  72.166  1.00  0.00    -0.231 C  
HETATM    2  O   UNL     1     -13.735  14.239  71.100  1.00  0.00    -0.315 OA 
ENDROOT
BRANCH   2   3
HETATM    3  C   UNL     1     -12.646  13.814  70.385  1.00  0.00    -0.256 A  
HETATM    4  C   UNL     1     -11.754  14.797  69.928  1.00  0.00    -0.306 A  
HETATM    5 CL   UNL     1     -12.072  16.482  70.166  1.00  0.00     0.521 Cl 
HETATM    6  C   UNL     1     -10.582  14.445  69.250  1.00  0.00    -0.190 A  
HETATM    7  C   UNL     1     -10.269  13.098  69.028  1.00  0.00     0.086 A  
HETATM    8  C   UNL     1     -12.347  12.472  70.136  1.00  0.00    -0.210 A  
HETATM    9  C   UNL     1     -11.174  12.119  69.457  1.00  0.00    -0.201 A  
BRANCH   7  10
HETATM   10  C   UNL     1      -9.004  12.711  68.294  1.00  0.00    -0.176 C  
BRANCH  10  11
HETATM   11  N   UNL     1      -8.425  11.570  68.980  1.00  0.00    -0.370 NA 
HETATM   12  H   UNL     1      -7.473  11.584  69.348  1.00  0.00     0.000 HD 
BRANCH  11  13
HETATM   13  C   UNL     1      -9.258  10.440  69.106  1.00  0.00    -0.191 A  
HETATM   14  C   UNL     1      -9.798   9.859  67.971  1.00  0.00    -0.170 A  
HETATM   15  C   UNL     1     -10.563   8.736  68.188  1.00  0.00    -0.147 A  
HETATM   16  N   UNL     1      -9.466   9.914  70.339  1.00  0.00    -0.134 NA 
HETATM   17  C   UNL     1     -10.214   8.799  70.462  1.00  0.00    -0.202 A  
HETATM   18  N   UNL     1     -10.794   8.206  69.410  1.00  0.00    -0.148 NA 
BRANCH  14  19
HETATM   19  C   UNL     1      -9.651  10.351  66.582  1.00  0.00    -0.177 C  
HETATM   20  O   UNL     1      -8.725   9.937  65.893  1.00  0.00    -0.133 OA 
HETATM   21  N   UNL     1     -10.594  11.235  66.116  1.00  0.00    -0.258 N  
HETATM   22  H   UNL     1     -11.370  11.494  66.725  1.00  0.00     0.000 HD 
BRANCH  21  23
HETATM   23  C   UNL     1     -10.523  11.815  64.784  1.00  0.00    -0.293 C  
BRANCH  23  24
HETATM   24  C   UNL     1     -10.950  13.270  64.701  1.00  0.00    -0.370 A  
HETATM   25  N   UNL     1     -12.278  13.517  64.676  1.00  0.00    -0.454 NA 
HETATM   26  C   UNL     1     -12.656  14.809  64.648  1.00  0.00    -0.100 A  
HETATM   27  N   UNL     1     -10.000  14.234  64.669  1.00  0.00    -0.121 NA 
HETATM   28  C   UNL     1     -10.439  15.508  64.650  1.00  0.00     0.071 A  
HETATM   29  C   UNL     1     -11.770  15.857  64.638  1.00  0.00    -0.117 A  
ENDBRANCH  23  24
ENDBRANCH  21  23
ENDBRANCH  14  19
BRANCH  17  30
HETATM   30  N   UNL     1     -10.402   8.248  71.698  1.00  0.00    -0.208 NA 
HETATM   31  C   UNL     1     -10.340   6.393  73.176  1.00  0.00    -0.245 C  
HETATM   32  C   UNL     1      -9.766   8.752  72.894  1.00  0.00     0.312 C  
HETATM   33  C   UNL     1     -10.982   6.917  71.881  1.00  0.00    -0.235 C  
HETATM   34  C   UNL     1      -9.426   7.498  73.694  1.00  0.00    -0.338 C  
BRANCH  33  35
HETATM   35  C   UNL     1     -12.515   7.028  72.009  1.00  0.00    -0.244 C  
HETATM   36  O   UNL     1     -13.123   5.741  72.154  1.00  0.00     0.161 OA 
HETATM   37  H   UNL     1     -14.067   5.809  72.233  1.00  0.00     0.000 HD 
ENDBRANCH  33  35
ENDBRANCH  17  30
ENDBRANCH  11  13
ENDBRANCH  10  11
ENDBRANCH   7  10
ENDBRANCH   2   3
TORSDOF 9
ENDMDL
MODEL      237
REMARK 921   NORMALIZED FREE ENERGY PREDICTED BY IDOCK:   -1.46 KCAL/MOL
REMARK 922        TOTAL FREE ENERGY PREDICTED BY IDOCK:   -3.76 KCAL/MOL
REMARK 923 INTER-LIGAND FREE ENERGY PREDICTED BY IDOCK:   -4.45 KCAL/MOL
REMARK 924 INTRA-LIGAND FREE ENERGY PREDICTED BY IDOCK:    0.69 KCAL/MOL
REMARK 927      BINDING AFFINITY PREDICTED BY RF-SCORE:    0.00 PKD
ROOT
HETATM    1  C   UNL     1     -11.623  11.153  65.381  1.00  0.00     0.509 C  
HETATM    2  O   UNL     1     -11.707  11.865  66.607  1.00  0.00    -0.546 OA 
ENDROOT
BRANCH   2   3
HETATM    3  C   UNL     1     -11.237  11.233  67.728  1.00  0.00    -0.291 A  
HETATM    4  C   UNL     1      -9.896  10.819  67.717  1.00  0.00    -0.166 A  
HETATM    5 CL   UNL     1      -8.909  11.002  66.307  1.00  0.00    -0.178 Cl 
HETATM    6  C   UNL     1      -9.317  10.228  68.846  1.00  0.00    -0.180 A  
HETATM    7  C   UNL     1     -10.065  10.054  70.017  1.00  0.00    -0.289 A  
HETATM    8  C   UNL     1     -11.990  11.031  68.888  1.00  0.00    -0.332 A  
HETATM    9  C   UNL     1     -11.411  10.440  70.018  1.00  0.00    -0.382 A  
BRANCH   7  10
HETATM   10  C   UNL     1      -9.445   9.414  71.240  1.00  0.00    -0.043 C  
BRANCH  10  11
HETATM   11  N   UNL     1      -8.392   8.522  70.788  1.00  0.00    -0.126 NA 
HETATM   12  H   UNL     1      -8.455   7.510  70.899  1.00  0.00     0.000 HD 
BRANCH  11  13
HETATM   13  C   UNL     1      -7.278   9.140  70.188  1.00  0.00    -0.070 A  
HETATM   14  C   UNL     1      -6.489   8.421  69.304  1.00  0.00    -0.039 A  
HETATM   15  C   UNL     1      -5.451   9.120  68.735  1.00  0.00    -0.037 A  
HETATM   16  N   UNL     1      -7.035  10.449  70.448  1.00  0.00    -0.296 NA 
HETATM   17  C   UNL     1      -6.006  11.064  69.832  1.00  0.00    -0.099 A  
HETATM   18  N   UNL     1      -5.185  10.419  68.993  1.00  0.00    -0.038 NA 
BRANCH  14  19
HETATM   19  C   UNL     1      -6.650   6.991  68.955  1.00  0.00    -0.048 C  
HETATM   20  O   UNL     1      -5.663   6.265  68.928  1.00  0.00    -0.017 OA 
HETATM   21  N   UNL     1      -7.922   6.534  68.709  1.00  0.00    -0.110 N  
HETATM   22  H   UNL     1      -8.705   7.182  68.804  1.00  0.00     0.000 HD 
BRANCH  21  23
HETATM   23  C   UNL     1      -8.192   5.159  68.316  1.00  0.00    -0.093 C  
BRANCH  23  24
HETATM   24  C   UNL     1      -8.178   4.912  66.817  1.00  0.00    -0.107 A  
HETATM   25  N   UNL     1      -8.823   5.813  66.044  1.00  0.00    -0.145 NA 
HETATM   26  C   UNL     1      -8.773   5.618  64.712  1.00  0.00    -0.000 A  
HETATM   27  N   UNL     1      -7.523   3.831  66.335  1.00  0.00    -0.082 NA 
HETATM   28  C   UNL     1      -7.500   3.694  64.994  1.00  0.00    -0.073 A  
HETATM   29  C   UNL     1      -8.114   4.566  64.126  1.00  0.00    -0.100 A  
ENDBRANCH  23  24
ENDBRANCH  21  23
ENDBRANCH  14  19
BRANCH  17  30
HETATM   30  N   UNL     1      -5.776  12.391  70.068  1.00  0.00    -0.126 NA 
HETATM   31  C   UNL     1      -6.540  14.628  70.267  1.00  0.00    -0.107 C  
HETATM   32  C   UNL     1      -5.159  12.884  71.279  1.00  0.00    -0.171 C  
HETATM   33  C   UNL     1      -6.422  13.447  69.290  1.00  0.00    -0.111 C  
HETATM   34  C   UNL     1      -5.906  14.178  71.580  1.00  0.00    -0.169 C  
BRANCH  33  35
HETATM   35  C   UNL     1      -5.551  13.804  68.068  1.00  0.00    -0.127 C  
HETATM   36  O   UNL     1      -5.289  12.654  67.258  1.00  0.00    -0.265 OA 
HETATM   37  H   UNL     1      -4.753  12.873  66.506  1.00  0.00     0.000 HD 
ENDBRANCH  33  35
ENDBRANCH  17  30
ENDBRANCH  11  13
ENDBRANCH  10  11
ENDBRANCH   7  10
ENDBRANCH   2   3
TORSDOF 9
ENDMDL
MODEL      238
REMARK 921   NORMALIZED FREE ENERGY PREDICTED BY IDOCK:   -1.40 KCAL/MOL
REMARK 922        TOTAL FREE ENERGY PREDICTED BY IDOCK:   -3.67 KCAL/MOL
REMARK 923 INTER-LIGAND FREE ENERGY PREDICTED BY IDOCK:   -4.04 KCAL/MOL
REMARK 924 INTRA-LIGAND FREE ENERGY PREDICTED BY IDOCK:    0.37 KCAL/MOL
REMARK 927      BINDING AFFINITY PREDICTED BY RF-SCORE:    0.00 PKD
ROOT
HETATM    1  C   UNL     1     -12.392  12.251  64.727  1.00  0.00    -0.339 C  
HETATM    2  O   UNL     1     -11.903  11.595  65.888  1.00  0.00    -0.342 OA 
ENDROOT
BRANCH   2   3
HETATM    3  C   UNL     1     -10.697  10.954  65.780  1.00  0.00    -0.109 A  
HETATM    4  C   UNL     1      -9.584  11.734  65.428  1.00  0.00    -0.190 A  
HETATM    5 CL   UNL     1      -9.749  13.413  65.041  1.00  0.00    -0.031 Cl 
HETATM    6  C   UNL     1      -8.304  11.173  65.363  1.00  0.00     0.096 A  
HETATM    7  C   UNL     1      -8.107   9.820  65.666  1.00  0.00    -0.120 A  
HETATM    8  C   UNL     1     -10.502   9.597  66.054  1.00  0.00    -0.047 A  
HETATM    9  C   UNL     1      -9.221   9.035  65.988  1.00  0.00    -0.284 A  
BRANCH   7  10
HETATM   10  C   UNL     1      -6.726   9.207  65.596  1.00  0.00    -0.072 C  
BRANCH  10  11
HETATM   11  N   UNL     1      -6.046   9.502  66.845  1.00  0.00    -0.063 NA 
HETATM   12  H   UNL     1      -5.115   9.918  66.870  1.00  0.00     0.000 HD 
BRANCH  11  13
HETATM   13  C   UNL     1      -6.752   9.178  68.020  1.00  0.00    -0.068 A  
HETATM   14  C   UNL     1      -7.056  10.175  68.932  1.00  0.00    -0.069 A  
HETATM   15  C   UNL     1      -7.785   9.773  70.027  1.00  0.00    -0.171 A  
HETATM   16  N   UNL     1      -7.167   7.900  68.204  1.00  0.00    -0.088 NA 
HETATM   17  C   UNL     1      -7.893   7.594  69.298  1.00  0.00    -0.121 A  
HETATM   18  N   UNL     1      -8.194   8.502  70.235  1.00  0.00    -0.110 NA 
BRANCH  14  19
HETATM   19  C   UNL     1      -6.647  11.595  68.844  1.00  0.00    -0.079 C  
HETATM   20  O   UNL     1      -7.236  12.434  69.515  1.00  0.00     0.132 OA 
HETATM   21  N   UNL     1      -5.586  11.902  68.026  1.00  0.00    -0.046 N  
HETATM   22  H   UNL     1      -5.104  11.146  67.538  1.00  0.00     0.000 HD 
BRANCH  21  23
HETATM   23  C   UNL     1      -5.126  13.269  67.830  1.00  0.00    -0.068 C  
BRANCH  23  24
HETATM   24  C   UNL     1      -6.189  14.333  68.034  1.00  0.00    -0.152 A  
HETATM   25  N   UNL     1      -7.161  14.414  67.099  1.00  0.00    -0.095 NA 
HETATM   26  C   UNL     1      -8.128  15.328  67.303  1.00  0.00    -0.201 A  
HETATM   27  N   UNL     1      -6.124  15.127  69.128  1.00  0.00    -0.098 NA 
HETATM   28  C   UNL     1      -7.125  16.016  69.284  1.00  0.00    -0.220 A  
HETATM   29  C   UNL     1      -8.163  16.162  68.393  1.00  0.00    -0.172 A  
ENDBRANCH  23  24
ENDBRANCH  21  23
ENDBRANCH  14  19
BRANCH  17  30
HETATM   30  N   UNL     1      -8.340   6.314  69.472  1.00  0.00    -0.117 NA 
HETATM   31  C   UNL     1      -9.413   4.649  70.778  1.00  0.00    -0.235 C  
HETATM   32  C   UNL     1      -9.253   5.663  68.560  1.00  0.00    -0.121 C  
HETATM   33  C   UNL     1      -8.212   5.608  70.747  1.00  0.00    -0.118 C  
HETATM   34  C   UNL     1     -10.166   4.843  69.465  1.00  0.00    -0.247 C  
BRANCH  33  35
HETATM   35  C   UNL     1      -6.873   4.845  70.790  1.00  0.00    -0.040 C  
HETATM   36  O   UNL     1      -7.053   3.454  70.508  1.00  0.00    -0.033 OA 
HETATM   37  H   UNL     1      -6.228   2.984  70.535  1.00  0.00     0.000 HD 
ENDBRANCH  33  35
ENDBRANCH  17  30
ENDBRANCH  11  13
ENDBRANCH  10  11
ENDBRANCH   7  10
ENDBRANCH   2   3
TORSDOF 9
ENDMDL
MODEL      239
REMARK 921   NORMALIZED FREE ENERGY PREDICTED BY IDOCK:   -0.32 KCAL/MOL
REMARK 922        TOTAL FREE ENERGY PREDICTED BY IDOCK:   -2.02 KCAL/MOL
REMARK 923 INTER-LIGAND FREE ENERGY PREDICTED BY IDOCK:   -4.59 KCAL/MOL
REMARK 924 INTRA-LIGAND FREE ENERGY PREDICTED BY IDOCK:    2.57 KCAL/MOL
REMARK 927      BINDING AFFINITY PREDICTED BY RF-SCORE:    0.00 PKD
ROOT
HETATM    1  C   UNL     1      -6.404   6.411  63.776  1.00  0.00    -0.029 C  
HETATM    2  O   UNL     1      -5.920   7.742  63.663  1.00  0.00    -0.056 OA 
ENDROOT
BRANCH   2   3
HETATM    3  C   UNL     1      -6.709   8.738  64.175  1.00  0.00    -0.078 A  
HETATM    4  C   UNL     1      -8.011   8.851  63.663  1.00  0.00    -0.154 A  
HETATM    5 CL   UNL     1      -8.560   7.844  62.366  1.00  0.00    -0.035 Cl 
HETATM    6  C   UNL     1      -8.907   9.795  64.178  1.00  0.00    -0.260 A  
HETATM    7  C   UNL     1      -8.521  10.638  65.229  1.00  0.00    -0.152 A  
HETATM    8  C   UNL     1      -6.317   9.599  65.203  1.00  0.00    -0.083 A  
HETATM    9  C   UNL     1      -7.212  10.545  65.718  1.00  0.00    -0.135 A  
BRANCH   7  10
HETATM   10  C   UNL     1      -9.483  11.662  65.788  1.00  0.00    -0.226 C  
BRANCH  10  11
HETATM   11  N   UNL     1     -10.241  11.025  66.851  1.00  0.00    -0.213 NA 
HETATM   12  H   UNL     1     -11.243  10.851  66.772  1.00  0.00     0.000 HD 
BRANCH  11  13
HETATM   13  C   UNL     1      -9.507  10.662  67.997  1.00  0.00    -0.158 A  
HETATM   14  C   UNL     1      -8.690  11.598  68.611  1.00  0.00    -0.083 A  
HETATM   15  C   UNL     1      -8.047  11.167  69.747  1.00  0.00     0.683 A  
HETATM   16  N   UNL     1      -9.662   9.415  68.507  1.00  0.00    -0.147 NA 
HETATM   17  C   UNL     1      -9.007   9.079  69.637  1.00  0.00    -0.153 A  
HETATM   18  N   UNL     1      -8.176   9.924  70.261  1.00  0.00    -0.153 NA 
BRANCH  14  19
HETATM   19  C   UNL     1      -8.435  12.978  68.139  1.00  0.00    -0.176 C  
HETATM   20  O   UNL     1      -7.627  13.678  68.738  1.00  0.00    -0.125 OA 
HETATM   21  N   UNL     1      -9.102  13.400  67.015  1.00  0.00    -0.236 N  
HETATM   22  H   UNL     1      -9.718  12.746  66.532  1.00  0.00     0.000 HD 
BRANCH  21  23
HETATM   23  C   UNL     1      -8.960  14.749  66.488  1.00  0.00    -0.233 C  
BRANCH  23  24
HETATM   24  C   UNL     1      -9.447  15.848  67.416  1.00  0.00    -0.219 A  
HETATM   25  N   UNL     1     -10.728  15.770  67.837  1.00  0.00    -0.293 NA 
HETATM   26  C   UNL     1     -11.146  16.720  68.694  1.00  0.00    -0.247 A  
HETATM   27  N   UNL     1      -8.588  16.829  67.781  1.00  0.00    -0.196 NA 
HETATM   28  C   UNL     1      -9.061  17.746  68.649  1.00  0.00    -0.260 A  
HETATM   29  C   UNL     1     -10.345  17.740  69.143  1.00  0.00    -0.157 A  
ENDBRANCH  23  24
ENDBRANCH  21  23
ENDBRANCH  14  19
BRANCH  17  30
HETATM   30  N   UNL     1      -9.183   7.833  70.172  1.00  0.00    -0.153 NA 
HETATM   31  C   UNL     1      -9.244   6.361  72.031  1.00  0.00    -0.148 C  
HETATM   32  C   UNL     1     -10.388   7.056  69.986  1.00  0.00    -0.202 C  
HETATM   33  C   UNL     1      -8.332   7.314  71.242  1.00  0.00    -0.111 C  
HETATM   34  C   UNL     1     -10.598   6.365  71.329  1.00  0.00    -0.275 C  
BRANCH  33  35
HETATM   35  C   UNL     1      -7.123   6.573  70.634  1.00  0.00    -0.069 C  
HETATM   36  O   UNL     1      -7.051   5.222  71.098  1.00  0.00    -0.056 OA 
HETATM   37  H   UNL     1      -6.307   4.765  70.724  1.00  0.00     0.000 HD 
ENDBRANCH  33  35
ENDBRANCH  17  30
ENDBRANCH  11  13
ENDBRANCH  10  11
ENDBRANCH   7  10
ENDBRANCH   2   3
TORSDOF 9
ENDMDL
MODEL      240
REMARK 921   NORMALIZED FREE ENERGY PREDICTED BY IDOCK:   -0.18 KCAL/MOL
REMARK 922        TOTAL FREE ENERGY PREDICTED BY IDOCK:   -1.80 KCAL/MOL
REMARK 923 INTER-LIGAND FREE ENERGY PREDICTED BY IDOCK:   -3.62 KCAL/MOL
REMARK 924 INTRA-LIGAND FREE ENERGY PREDICTED BY IDOCK:    1.82 KCAL/MOL
REMARK 927      BINDING AFFINITY PREDICTED BY RF-SCORE:    0.00 PKD
ROOT
HETATM    1  C   UNL     1     -12.459   6.683  70.673  1.00  0.00     0.018 C  
HETATM    2  O   UNL     1     -12.105   8.052  70.533  1.00  0.00    -0.061 OA 
ENDROOT
BRANCH   2   3
HETATM    3  C   UNL     1     -11.502   8.422  69.359  1.00  0.00     0.542 A  
HETATM    4  C   UNL     1     -10.823   7.423  68.644  1.00  0.00    -0.034 A  
HETATM    5 CL   UNL     1     -10.663   5.818  69.271  1.00  0.00    -0.381 Cl 
HETATM    6  C   UNL     1     -10.238   7.699  67.402  1.00  0.00    -0.320 A  
HETATM    7  C   UNL     1     -10.335   8.979  66.842  1.00  0.00    -0.324 A  
HETATM    8  C   UNL     1     -11.571   9.706  68.812  1.00  0.00     0.356 A  
HETATM    9  C   UNL     1     -10.986   9.983  67.570  1.00  0.00    -0.276 A  
BRANCH   7  10
HETATM   10  C   UNL     1      -9.704   9.284  65.502  1.00  0.00    -0.177 C  
BRANCH  10  11
HETATM   11  N   UNL     1      -8.298   9.569  65.728  1.00  0.00    -0.125 NA 
HETATM   12  H   UNL     1      -7.561   9.141  65.167  1.00  0.00     0.000 HD 
BRANCH  11  13
HETATM   13  C   UNL     1      -8.013  10.472  66.771  1.00  0.00    -0.121 A  
HETATM   14  C   UNL     1      -7.292  10.041  67.873  1.00  0.00    -0.088 A  
HETATM   15  C   UNL     1      -7.026  11.003  68.819  1.00  0.00    -0.081 A  
HETATM   16  N   UNL     1      -8.406  11.764  66.644  1.00  0.00    -0.165 NA 
HETATM   17  C   UNL     1      -8.088  12.648  67.611  1.00  0.00    -0.173 A  
HETATM   18  N   UNL     1      -7.423  12.290  68.717  1.00  0.00    -0.097 NA 
BRANCH  14  19
HETATM   19  C   UNL     1      -6.824   8.659  68.124  1.00  0.00    -0.069 C  
HETATM   20  O   UNL     1      -7.154   8.091  69.159  1.00  0.00    -0.065 OA 
HETATM   21  N   UNL     1      -6.059   8.059  67.153  1.00  0.00    -0.052 N  
HETATM   22  H   UNL     1      -5.870   8.569  66.290  1.00  0.00     0.000 HD 
BRANCH  21  23
HETATM   23  C   UNL     1      -5.510   6.721  67.312  1.00  0.00    -0.013 C  
BRANCH  23  24
HETATM   24  C   UNL     1      -6.025   5.963  68.523  1.00  0.00    -0.020 A  
HETATM   25  N   UNL     1      -7.180   5.278  68.370  1.00  0.00    -0.066 NA 
HETATM   26  C   UNL     1      -7.613   4.571  69.431  1.00  0.00    -0.055 A  
HETATM   27  N   UNL     1      -5.311   5.996  69.672  1.00  0.00    -0.011 NA 
HETATM   28  C   UNL     1      -5.790   5.261  70.696  1.00  0.00    -0.021 A  
HETATM   29  C   UNL     1      -6.948   4.522  70.630  1.00  0.00    -0.037 A  
ENDBRANCH  23  24
ENDBRANCH  21  23
ENDBRANCH  14  19
BRANCH  17  30
HETATM   30  N   UNL     1      -8.455  13.957  67.474  1.00  0.00    -0.183 NA 
HETATM   31  C   UNL     1      -7.990  16.186  66.808  1.00  0.00    -0.307 C  
HETATM   32  C   UNL     1      -9.631  14.377  66.744  1.00  0.00    -0.268 C  
HETATM   33  C   UNL     1      -7.537  15.061  67.753  1.00  0.00    -0.160 C  
HETATM   34  C   UNL     1      -9.198  15.659  66.042  1.00  0.00    -0.374 C  
BRANCH  33  35
HETATM   35  C   UNL     1      -7.655  15.477  69.233  1.00  0.00    -0.221 C  
HETATM   36  O   UNL     1      -6.427  16.021  69.724  1.00  0.00    -0.193 OA 
HETATM   37  H   UNL     1      -6.499  16.277  70.636  1.00  0.00     0.000 HD 
ENDBRANCH  33  35
ENDBRANCH  17  30
ENDBRANCH  11  13
ENDBRANCH  10  11
ENDBRANCH   7  10
ENDBRANCH   2   3
TORSDOF 9
ENDMDL
MODEL      241
REMARK 921   NORMALIZED FREE ENERGY PREDICTED BY IDOCK:    0.04 KCAL/MOL
REMARK 922        TOTAL FREE ENERGY PREDICTED BY IDOCK:   -1.47 KCAL/MOL
REMARK 923 INTER-LIGAND FREE ENERGY PREDICTED BY IDOCK:   -5.24 KCAL/MOL
REMARK 924 INTRA-LIGAND FREE ENERGY PREDICTED BY IDOCK:    3.77 KCAL/MOL
REMARK 927      BINDING AFFINITY PREDICTED BY RF-SCORE:    0.00 PKD
ROOT
HETATM    1  C   UNL     1     -10.424   5.536  72.459  1.00  0.00    -0.216 C  
HETATM    2  O   UNL     1      -9.727   5.056  71.318  1.00  0.00    -0.157 OA 
ENDROOT
BRANCH   2   3
HETATM    3  C   UNL     1      -8.911   5.944  70.667  1.00  0.00    -0.145 A  
HETATM    4  C   UNL     1      -9.530   6.996  69.975  1.00  0.00    -0.161 A  
HETATM    5 CL   UNL     1     -11.253   7.106  69.858  1.00  0.00    -0.266 Cl 
HETATM    6  C   UNL     1      -8.769   7.986  69.342  1.00  0.00    -0.137 A  
HETATM    7  C   UNL     1      -7.370   7.951  69.402  1.00  0.00    -0.081 A  
HETATM    8  C   UNL     1      -7.515   5.895  70.701  1.00  0.00    -0.087 A  
HETATM    9  C   UNL     1      -6.753   6.885  70.068  1.00  0.00    -0.052 A  
BRANCH   7  10
HETATM   10  C   UNL     1      -6.543   9.017  68.718  1.00  0.00    -0.053 C  
BRANCH  10  11
HETATM   11  N   UNL     1      -7.139   9.277  67.420  1.00  0.00    -0.078 NA 
HETATM   12  H   UNL     1      -6.855  10.068  66.842  1.00  0.00     0.000 HD 
BRANCH  11  13
HETATM   13  C   UNL     1      -8.133   8.368  67.007  1.00  0.00    -0.104 A  
HETATM   14  C   UNL     1      -9.435   8.810  66.833  1.00  0.00    -0.231 A  
HETATM   15  C   UNL     1     -10.326   7.863  66.387  1.00  0.00     0.125 A  
HETATM   16  N   UNL     1      -7.778   7.087  66.734  1.00  0.00    -0.097 NA 
HETATM   17  C   UNL     1      -8.713   6.226  66.284  1.00  0.00    -0.142 A  
HETATM   18  N   UNL     1      -9.995   6.579  66.126  1.00  0.00     0.078 NA 
BRANCH  14  19
HETATM   19  C   UNL     1      -9.938  10.174  67.110  1.00  0.00    -0.196 C  
HETATM   20  O   UNL     1     -11.091  10.323  67.499  1.00  0.00    -0.311 OA 
HETATM   21  N   UNL     1      -9.063  11.222  66.948  1.00  0.00    -0.163 N  
HETATM   22  H   UNL     1      -8.100  11.021  66.677  1.00  0.00     0.000 HD 
BRANCH  21  23
HETATM   23  C   UNL     1      -9.461  12.606  67.151  1.00  0.00    -0.214 C  
BRANCH  23  24
HETATM   24  C   UNL     1     -10.591  13.080  66.254  1.00  0.00    -0.271 A  
HETATM   25  N   UNL     1     -10.324  14.120  65.433  1.00  0.00    -0.344 NA 
HETATM   26  C   UNL     1     -11.312  14.511  64.606  1.00  0.00    -0.370 A  
HETATM   27  N   UNL     1     -11.784  12.445  66.307  1.00  0.00    -0.472 NA 
HETATM   28  C   UNL     1     -12.731  12.875  65.449  1.00  0.00    -0.246 A  
HETATM   29  C   UNL     1     -12.548  13.915  64.568  1.00  0.00    -0.246 A  
ENDBRANCH  23  24
ENDBRANCH  21  23
ENDBRANCH  14  19
BRANCH  17  30
HETATM   30  N   UNL     1      -8.354   4.943  65.979  1.00  0.00    -0.112 NA 
HETATM   31  C   UNL     1      -6.905   3.384  64.930  1.00  0.00    -0.045 C  
HETATM   32  C   UNL     1      -8.118   3.928  66.981  1.00  0.00    -0.096 C  
HETATM   33  C   UNL     1      -7.854   4.563  64.658  1.00  0.00    -0.086 C  
HETATM   34  C   UNL     1      -6.941   3.128  66.433  1.00  0.00    -0.054 C  
BRANCH  33  35
HETATM   35  C   UNL     1      -9.031   4.149  63.752  1.00  0.00    -0.130 C  
HETATM   36  O   UNL     1      -8.633   4.067  62.381  1.00  0.00    -0.080 OA 
HETATM   37  H   UNL     1      -9.358   3.812  61.822  1.00  0.00     0.000 HD 
ENDBRANCH  33  35
ENDBRANCH  17  30
ENDBRANCH  11  13
ENDBRANCH  10  11
ENDBRANCH   7  10
ENDBRANCH   2   3
TORSDOF 9
ENDMDL
MODEL      242
REMARK 921   NORMALIZED FREE ENERGY PREDICTED BY IDOCK:    2.11 KCAL/MOL
REMARK 922        TOTAL FREE ENERGY PREDICTED BY IDOCK:    1.69 KCAL/MOL
REMARK 923 INTER-LIGAND FREE ENERGY PREDICTED BY IDOCK:   -1.19 KCAL/MOL
REMARK 924 INTRA-LIGAND FREE ENERGY PREDICTED BY IDOCK:    2.88 KCAL/MOL
REMARK 927      BINDING AFFINITY PREDICTED BY RF-SCORE:    0.00 PKD
ROOT
HETATM    1  C   UNL     1     -12.851  13.842  65.857  1.00  0.00    -0.339 C  
HETATM    2  O   UNL     1     -12.752  13.155  67.097  1.00  0.00     0.050 OA 
ENDROOT
BRANCH   2   3
HETATM    3  C   UNL     1     -11.552  13.226  67.754  1.00  0.00    -0.342 A  
HETATM    4  C   UNL     1     -11.288  14.396  68.484  1.00  0.00    -0.282 A  
HETATM    5 CL   UNL     1     -12.385  15.735  68.466  1.00  0.00     0.231 Cl 
HETATM    6  C   UNL     1     -10.118  14.523  69.241  1.00  0.00    -0.083 A  
HETATM    7  C   UNL     1      -9.192  13.473  69.296  1.00  0.00     0.707 A  
HETATM    8  C   UNL     1     -10.612  12.192  67.787  1.00  0.00    -0.229 A  
HETATM    9  C   UNL     1      -9.441  12.318  68.543  1.00  0.00    -0.115 A  
BRANCH   7  10
HETATM   10  C   UNL     1      -7.924  13.605  70.110  1.00  0.00     2.138 C  
BRANCH  10  11
HETATM   11  N   UNL     1      -7.332  14.895  69.804  1.00  0.00    -0.320 NA 
HETATM   12  H   UNL     1      -6.708  15.373  70.454  1.00  0.00     0.000 HD 
BRANCH  11  13
HETATM   13  C   UNL     1      -7.673  15.446  68.553  1.00  0.00    -0.132 A  
HETATM   14  C   UNL     1      -7.469  14.704  67.400  1.00  0.00    -0.212 A  
HETATM   15  C   UNL     1      -7.871  15.306  66.231  1.00  0.00     0.905 A  
HETATM   16  N   UNL     1      -8.247  16.674  68.512  1.00  0.00    -0.220 NA 
HETATM   17  C   UNL     1      -8.629  17.184  67.324  1.00  0.00    -0.201 A  
HETATM   18  N   UNL     1      -8.430  16.535  66.169  1.00  0.00    -0.377 NA 
BRANCH  14  19
HETATM   19  C   UNL     1      -6.842  13.365  67.323  1.00  0.00     0.084 C  
HETATM   20  O   UNL     1      -7.223  12.572  66.470  1.00  0.00     0.359 OA 
HETATM   21  N   UNL     1      -5.823  13.087  68.202  1.00  0.00    -0.082 N  
HETATM   22  H   UNL     1      -5.518  13.815  68.849  1.00  0.00     0.000 HD 
BRANCH  21  23
HETATM   23  C   UNL     1      -5.165  11.790  68.243  1.00  0.00    -0.043 C  
BRANCH  23  24
HETATM   24  C   UNL     1      -6.057  10.638  68.674  1.00  0.00    -0.039 A  
HETATM   25  N   UNL     1      -6.228  10.462  70.003  1.00  0.00    -0.078 NA 
HETATM   26  C   UNL     1      -7.053   9.469  70.383  1.00  0.00    -0.120 A  
HETATM   27  N   UNL     1      -6.637   9.865  67.727  1.00  0.00    -0.067 NA 
HETATM   28  C   UNL     1      -7.460   8.893  68.168  1.00  0.00    -0.092 A  
HETATM   29  C   UNL     1      -7.707   8.647  69.499  1.00  0.00    -0.090 A  
ENDBRANCH  23  24
ENDBRANCH  21  23
ENDBRANCH  14  19
BRANCH  17  30
HETATM   30  N   UNL     1      -9.235  18.408  67.280  1.00  0.00    -0.267 NA 
HETATM   31  C   UNL     1     -10.170  20.221  66.068  1.00  0.00    -0.392 C  
HETATM   32  C   UNL     1     -10.481  18.698  67.954  1.00  0.00    -0.385 C  
HETATM   33  C   UNL     1      -8.873  19.426  66.294  1.00  0.00    -0.351 C  
HETATM   34  C   UNL     1     -11.224  19.616  66.989  1.00  0.00    -0.043 C  
BRANCH  33  35
HETATM   35  C   UNL     1      -7.747  20.318  66.853  1.00  0.00    -0.312 C  
HETATM   36  O   UNL     1      -7.161  21.126  65.828  1.00  0.00    -0.449 OA 
HETATM   37  H   UNL     1      -6.467  21.676  66.173  1.00  0.00     0.000 HD 
ENDBRANCH  33  35
ENDBRANCH  17  30
ENDBRANCH  11  13
ENDBRANCH  10  11
ENDBRANCH   7  10
ENDBRANCH   2   3
TORSDOF 9
ENDMDL
MODEL      243
REMARK 921   NORMALIZED FREE ENERGY PREDICTED BY IDOCK:    2.48 KCAL/MOL
REMARK 922        TOTAL FREE ENERGY PREDICTED BY IDOCK:    2.26 KCAL/MOL
REMARK 923 INTER-LIGAND FREE ENERGY PREDICTED BY IDOCK:   -0.43 KCAL/MOL
REMARK 924 INTRA-LIGAND FREE ENERGY PREDICTED BY IDOCK:    2.69 KCAL/MOL
REMARK 927      BINDING AFFINITY PREDICTED BY RF-SCORE:    0.00 PKD
ROOT
HETATM    1  C   UNL     1      -5.483  14.184  66.698  1.00  0.00     2.784 C  
HETATM    2  O   UNL     1      -5.207  12.882  67.196  1.00  0.00    -0.334 OA 
ENDROOT
BRANCH   2   3
HETATM    3  C   UNL     1      -6.216  12.246  67.870  1.00  0.00    -0.089 A  
HETATM    4  C   UNL     1      -6.252  10.844  67.796  1.00  0.00    -0.051 A  
HETATM    5 CL   UNL     1      -5.135   9.965  66.809  1.00  0.00    -0.040 Cl 
HETATM    6  C   UNL     1      -7.207  10.112  68.511  1.00  0.00    -0.080 A  
HETATM    7  C   UNL     1      -8.138  10.767  69.328  1.00  0.00    -0.102 A  
HETATM    8  C   UNL     1      -7.164  12.899  68.662  1.00  0.00    -0.098 A  
HETATM    9  C   UNL     1      -8.120  12.167  69.377  1.00  0.00     0.781 A  
BRANCH   7  10
HETATM   10  C   UNL     1      -9.173   9.981  70.101  1.00  0.00    -0.026 C  
BRANCH  10  11
HETATM   11  N   UNL     1      -8.843   8.572  69.979  1.00  0.00    -0.138 NA 
HETATM   12  H   UNL     1      -8.532   8.017  70.777  1.00  0.00     0.000 HD 
BRANCH  11  13
HETATM   13  C   UNL     1      -8.977   8.018  68.691  1.00  0.00    -0.134 A  
HETATM   14  C   UNL     1     -10.064   8.369  67.906  1.00  0.00    -0.254 A  
HETATM   15  C   UNL     1     -10.089   7.813  66.648  1.00  0.00    -0.224 A  
HETATM   16  N   UNL     1      -8.005   7.194  68.226  1.00  0.00    -0.121 NA 
HETATM   17  C   UNL     1      -8.098   6.707  66.973  1.00  0.00    -0.113 A  
HETATM   18  N   UNL     1      -9.138   6.978  66.174  1.00  0.00    -0.147 NA 
BRANCH  14  19
HETATM   19  C   UNL     1     -11.187   9.245  68.310  1.00  0.00     0.261 C  
HETATM   20  O   UNL     1     -11.774   9.902  67.458  1.00  0.00     0.309 OA 
HETATM   21  N   UNL     1     -11.545   9.251  69.637  1.00  0.00    -0.417 N  
HETATM   22  H   UNL     1     -11.050   8.636  70.283  1.00  0.00     0.000 HD 
BRANCH  21  23
HETATM   23  C   UNL     1     -12.604  10.105  70.152  1.00  0.00     0.003 C  
BRANCH  23  24
HETATM   24  C   UNL     1     -12.278  11.588  70.161  1.00  0.00    -0.308 A  
HETATM   25  N   UNL     1     -11.713  12.096  69.043  1.00  0.00    -0.306 NA 
HETATM   26  C   UNL     1     -11.465  13.419  69.034  1.00  0.00    -0.301 A  
HETATM   27  N   UNL     1     -12.573  12.320  71.260  1.00  0.00    -0.306 NA 
HETATM   28  C   UNL     1     -12.310  13.640  71.188  1.00  0.00    -0.318 A  
HETATM   29  C   UNL     1     -11.750  14.250  70.090  1.00  0.00    -0.357 A  
ENDBRANCH  23  24
ENDBRANCH  21  23
ENDBRANCH  14  19
BRANCH  17  30
HETATM   30  N   UNL     1      -7.106   5.900  66.489  1.00  0.00    -0.068 NA 
HETATM   31  C   UNL     1      -6.303   4.302  64.931  1.00  0.00    -0.034 C  
HETATM   32  C   UNL     1      -5.808   6.396  66.090  1.00  0.00    -0.024 C  
HETATM   33  C   UNL     1      -7.363   4.540  66.018  1.00  0.00    -0.077 C  
HETATM   34  C   UNL     1      -5.452   5.566  64.861  1.00  0.00    -0.013 C  
BRANCH  33  35
HETATM   35  C   UNL     1      -7.214   3.545  67.187  1.00  0.00    -0.063 C  
HETATM   36  O   UNL     1      -6.501   2.371  66.787  1.00  0.00    -0.033 OA 
HETATM   37  H   UNL     1      -6.408   1.758  67.507  1.00  0.00     0.000 HD 
ENDBRANCH  33  35
ENDBRANCH  17  30
ENDBRANCH  11  13
ENDBRANCH  10  11
ENDBRANCH   7  10
ENDBRANCH   2   3
TORSDOF 9
ENDMDL
MODEL      244
REMARK 921   NORMALIZED FREE ENERGY PREDICTED BY IDOCK:    2.73 KCAL/MOL
REMARK 922        TOTAL FREE ENERGY PREDICTED BY IDOCK:    2.64 KCAL/MOL
REMARK 923 INTER-LIGAND FREE ENERGY PREDICTED BY IDOCK:   -2.19 KCAL/MOL
REMARK 924 INTRA-LIGAND FREE ENERGY PREDICTED BY IDOCK:    4.83 KCAL/MOL
REMARK 927      BINDING AFFINITY PREDICTED BY RF-SCORE:    0.00 PKD
ROOT
HETATM    1  C   UNL     1      -5.139  14.021  66.969  1.00  0.00     1.193 C  
HETATM    2  O   UNL     1      -5.553  12.725  67.377  1.00  0.00    -0.232 OA 
ENDROOT
BRANCH   2   3
HETATM    3  C   UNL     1      -6.834  12.600  67.848  1.00  0.00    -0.112 A  
HETATM    4  C   UNL     1      -7.344  11.299  67.983  1.00  0.00    -0.092 A  
HETATM    5 CL   UNL     1      -6.432   9.918  67.476  1.00  0.00    -0.067 Cl 
HETATM    6  C   UNL     1      -8.616  11.078  68.521  1.00  0.00    -0.158 A  
HETATM    7  C   UNL     1      -9.401  12.156  68.951  1.00  0.00     0.195 A  
HETATM    8  C   UNL     1      -7.630  13.676  68.250  1.00  0.00    -0.130 A  
HETATM    9  C   UNL     1      -8.904  13.455  68.788  1.00  0.00     0.122 A  
BRANCH   7  10
HETATM   10  C   UNL     1     -10.778  11.924  69.531  1.00  0.00     0.150 C  
BRANCH  10  11
HETATM   11  N   UNL     1     -11.217  10.602  69.119  1.00  0.00    -0.246 NA 
HETATM   12  H   UNL     1     -11.763   9.997  69.732  1.00  0.00     0.000 HD 
BRANCH  11  13
HETATM   13  C   UNL     1     -10.841  10.208  67.820  1.00  0.00    -0.292 A  
HETATM   14  C   UNL     1     -10.852  11.137  66.793  1.00  0.00    -0.322 A  
HETATM   15  C   UNL     1     -10.429  10.672  65.570  1.00  0.00    -0.176 A  
HETATM   16  N   UNL     1     -10.422   8.934  67.617  1.00  0.00    -0.259 NA 
HETATM   17  C   UNL     1     -10.005   8.564  66.390  1.00  0.00    -0.244 A  
HETATM   18  N   UNL     1     -10.022   9.403  65.345  1.00  0.00    -0.123 NA 
BRANCH  14  19
HETATM   19  C   UNL     1     -11.300  12.545  66.893  1.00  0.00    -0.326 C  
HETATM   20  O   UNL     1     -10.738  13.404  66.223  1.00  0.00    -0.283 OA 
HETATM   21  N   UNL     1     -12.363  12.818  67.720  1.00  0.00     0.104 N  
HETATM   22  H   UNL     1     -12.821  12.046  68.205  1.00  0.00     0.000 HD 
BRANCH  21  23
HETATM   23  C   UNL     1     -12.859  14.170  67.927  1.00  0.00     1.376 C  
BRANCH  23  24
HETATM   24  C   UNL     1     -12.470  14.793  69.257  1.00  0.00    -0.010 A  
HETATM   25  N   UNL     1     -13.216  14.455  70.331  1.00  0.00    -0.080 NA 
HETATM   26  C   UNL     1     -12.844  14.973  71.517  1.00  0.00    -0.347 A  
HETATM   27  N   UNL     1     -11.408  15.630  69.305  1.00  0.00    -0.319 NA 
HETATM   28  C   UNL     1     -11.078  16.109  70.521  1.00  0.00    -0.322 A  
HETATM   29  C   UNL     1     -11.768  15.811  71.673  1.00  0.00    -0.542 A  
ENDBRANCH  23  24
ENDBRANCH  21  23
ENDBRANCH  14  19
BRANCH  17  30
HETATM   30  N   UNL     1      -9.553   7.290  66.187  1.00  0.00    -0.028 NA 
HETATM   31  C   UNL     1      -7.838   5.654  66.291  1.00  0.00    -0.100 C  
HETATM   32  C   UNL     1     -10.191   6.125  66.757  1.00  0.00    -0.206 C  
HETATM   33  C   UNL     1      -8.215   7.009  65.668  1.00  0.00    -0.134 C  
HETATM   34  C   UNL     1      -9.031   5.209  67.131  1.00  0.00    -0.112 C  
BRANCH  33  35
HETATM   35  C   UNL     1      -8.256   6.936  64.128  1.00  0.00     0.059 C  
HETATM   36  O   UNL     1      -7.707   8.115  63.534  1.00  0.00    -0.128 OA 
HETATM   37  H   UNL     1      -7.732   8.071  62.585  1.00  0.00     0.000 HD 
ENDBRANCH  33  35
ENDBRANCH  17  30
ENDBRANCH  11  13
ENDBRANCH  10  11
ENDBRANCH   7  10
ENDBRANCH   2   3
TORSDOF 9
ENDMDL
MODEL      245
REMARK 921   NORMALIZED FREE ENERGY PREDICTED BY IDOCK:    4.14 KCAL/MOL
REMARK 922        TOTAL FREE ENERGY PREDICTED BY IDOCK:    4.79 KCAL/MOL
REMARK 923 INTER-LIGAND FREE ENERGY PREDICTED BY IDOCK:    5.34 KCAL/MOL
REMARK 924 INTRA-LIGAND FREE ENERGY PREDICTED BY IDOCK:   -0.54 KCAL/MOL
REMARK 927      BINDING AFFINITY PREDICTED BY RF-SCORE:    0.00 PKD
ROOT
HETATM    1  C   UNL     1     -13.313  19.884  67.606  1.00  0.00     6.326 C  
HETATM    2  O   UNL     1     -11.894  19.909  67.671  1.00  0.00     0.960 OA 
ENDROOT
BRANCH   2   3
HETATM    3  C   UNL     1     -11.260  18.720  67.922  1.00  0.00     0.379 A  
HETATM    4  C   UNL     1      -9.987  18.783  68.509  1.00  0.00    -0.400 A  
HETATM    5 CL   UNL     1      -9.206  20.299  68.805  1.00  0.00     0.103 Cl 
HETATM    6  C   UNL     1      -9.299  17.616  68.862  1.00  0.00    -0.157 A  
HETATM    7  C   UNL     1      -9.880  16.359  68.648  1.00  0.00    -0.234 A  
HETATM    8  C   UNL     1     -11.825  17.464  67.682  1.00  0.00     1.587 A  
HETATM    9  C   UNL     1     -11.137  16.296  68.035  1.00  0.00    -0.299 A  
BRANCH   7  10
HETATM   10  C   UNL     1      -9.141  15.095  69.026  1.00  0.00    -0.218 C  
BRANCH  10  11
HETATM   11  N   UNL     1      -7.829  15.477  69.517  1.00  0.00    -0.221 NA 
HETATM   12  H   UNL     1      -7.606  15.491  70.513  1.00  0.00     0.000 HD 
BRANCH  11  13
HETATM   13  C   UNL     1      -6.883  15.828  68.534  1.00  0.00    -0.119 A  
HETATM   14  C   UNL     1      -6.211  14.831  67.845  1.00  0.00    -0.171 A  
HETATM   15  C   UNL     1      -5.339  15.267  66.875  1.00  0.00     1.200 A  
HETATM   16  N   UNL     1      -6.694  17.139  68.244  1.00  0.00    -0.163 NA 
HETATM   17  C   UNL     1      -5.834  17.480  67.265  1.00  0.00    -0.132 A  
HETATM   18  N   UNL     1      -5.126  16.570  66.583  1.00  0.00    -0.337 NA 
BRANCH  14  19
HETATM   19  C   UNL     1      -6.326  13.374  68.083  1.00  0.00    -0.114 C  
HETATM   20  O   UNL     1      -5.724  12.869  69.023  1.00  0.00    -0.068 OA 
HETATM   21  N   UNL     1      -7.144  12.655  67.245  1.00  0.00    -0.293 N  
HETATM   22  H   UNL     1      -7.660  13.149  66.516  1.00  0.00     0.000 HD 
BRANCH  21  23
HETATM   23  C   UNL     1      -7.298  11.212  67.359  1.00  0.00    -0.108 C  
BRANCH  23  24
HETATM   24  C   UNL     1      -8.698  10.750  67.722  1.00  0.00    -0.130 A  
HETATM   25  N   UNL     1      -9.074   9.531  67.276  1.00  0.00    -0.130 NA 
HETATM   26  C   UNL     1     -10.299   9.103  67.635  1.00  0.00    -0.255 A  
HETATM   27  N   UNL     1      -9.483  11.557  68.472  1.00  0.00    -0.187 NA 
HETATM   28  C   UNL     1     -10.695  11.070  68.808  1.00  0.00    -0.203 A  
HETATM   29  C   UNL     1     -11.159   9.837  68.413  1.00  0.00    -0.142 A  
ENDBRANCH  23  24
ENDBRANCH  21  23
ENDBRANCH  14  19
BRANCH  17  30
HETATM   30  N   UNL     1      -5.662  18.799  66.949  1.00  0.00    -0.151 NA 
HETATM   31  C   UNL     1      -6.478  20.849  66.077  1.00  0.00    -0.249 C  
HETATM   32  C   UNL     1      -5.255  19.797  67.912  1.00  0.00    -0.176 C  
HETATM   33  C   UNL     1      -6.188  19.383  65.715  1.00  0.00    -0.201 C  
HETATM   34  C   UNL     1      -6.058  21.036  67.531  1.00  0.00    -0.381 C  
BRANCH  33  35
HETATM   35  C   UNL     1      -5.137  19.270  64.593  1.00  0.00    -0.169 C  
HETATM   36  O   UNL     1      -5.150  17.972  63.992  1.00  0.00     0.190 OA 
HETATM   37  H   UNL     1      -4.503  17.902  63.300  1.00  0.00     0.000 HD 
ENDBRANCH  33  35
ENDBRANCH  17  30
ENDBRANCH  11  13
ENDBRANCH  10  11
ENDBRANCH   7  10
ENDBRANCH   2   3
TORSDOF 9
ENDMDL
MODEL      246
REMARK 921   NORMALIZED FREE ENERGY PREDICTED BY IDOCK:    4.15 KCAL/MOL
REMARK 922        TOTAL FREE ENERGY PREDICTED BY IDOCK:    4.80 KCAL/MOL
REMARK 923 INTER-LIGAND FREE ENERGY PREDICTED BY IDOCK:    1.59 KCAL/MOL
REMARK 924 INTRA-LIGAND FREE ENERGY PREDICTED BY IDOCK:    3.22 KCAL/MOL
REMARK 927      BINDING AFFINITY PREDICTED BY RF-SCORE:    0.00 PKD
ROOT
HETATM    1  C   UNL     1      -5.245  14.016  66.983  1.00  0.00     1.220 C  
HETATM    2  O   UNL     1      -5.664  12.787  67.559  1.00  0.00    -0.131 OA 
ENDROOT
BRANCH   2   3
HETATM    3  C   UNL     1      -6.896  12.766  68.156  1.00  0.00    -0.094 A  
HETATM    4  C   UNL     1      -7.403  11.514  68.538  1.00  0.00    -0.104 A  
HETATM    5 CL   UNL     1      -6.555  10.050  68.172  1.00  0.00    -0.055 Cl 
HETATM    6  C   UNL     1      -8.623  11.408  69.216  1.00  0.00     0.302 A  
HETATM    7  C   UNL     1      -9.355  12.558  69.541  1.00  0.00     1.528 A  
HETATM    8  C   UNL     1      -7.643  13.909  68.455  1.00  0.00    -0.134 A  
HETATM    9  C   UNL     1      -8.863  13.804  69.133  1.00  0.00     0.425 A  
BRANCH   7  10
HETATM   10  C   UNL     1     -10.675  12.451  70.272  1.00  0.00     1.783 C  
BRANCH  10  11
HETATM   11  N   UNL     1     -11.235  11.141  69.987  1.00  0.00    -0.451 NA 
HETATM   12  H   UNL     1     -11.761  10.614  70.683  1.00  0.00     0.000 HD 
BRANCH  11  13
HETATM   13  C   UNL     1     -11.005  10.644  68.689  1.00  0.00    -0.246 A  
HETATM   14  C   UNL     1     -11.140  11.489  67.599  1.00  0.00    -0.324 A  
HETATM   15  C   UNL     1     -10.854  10.928  66.377  1.00  0.00    -0.145 A  
HETATM   16  N   UNL     1     -10.601   9.358  68.541  1.00  0.00    -0.213 NA 
HETATM   17  C   UNL     1     -10.323   8.892  67.308  1.00  0.00    -0.280 A  
HETATM   18  N   UNL     1     -10.466   9.644  66.209  1.00  0.00    -0.143 NA 
BRANCH  14  19
HETATM   19  C   UNL     1     -11.586  12.900  67.638  1.00  0.00    -0.355 C  
HETATM   20  O   UNL     1     -11.022  13.728  66.931  1.00  0.00    -0.286 OA 
HETATM   21  N   UNL     1     -12.649  13.211  68.451  1.00  0.00     0.347 N  
HETATM   22  H   UNL     1     -13.108  12.462  68.969  1.00  0.00     0.000 HD 
BRANCH  21  23
HETATM   23  C   UNL     1     -13.142  14.572  68.599  1.00  0.00     2.114 C  
BRANCH  23  24
HETATM   24  C   UNL     1     -12.788  15.236  69.918  1.00  0.00    -0.001 A  
HETATM   25  N   UNL     1     -11.689  16.023  69.930  1.00  0.00    -0.309 NA 
HETATM   26  C   UNL     1     -11.401  16.647  71.087  1.00  0.00     0.159 A  
HETATM   27  N   UNL     1     -13.579  15.024  70.995  1.00  0.00    -0.405 NA 
HETATM   28  C   UNL     1     -13.245  15.684  72.123  1.00  0.00    -0.461 A  
HETATM   29  C   UNL     1     -12.155  16.516  72.227  1.00  0.00    -0.285 A  
ENDBRANCH  23  24
ENDBRANCH  21  23
ENDBRANCH  14  19
BRANCH  17  30
HETATM   30  N   UNL     1      -9.887   7.605  67.156  1.00  0.00    -0.183 NA 
HETATM   31  C   UNL     1     -10.105   5.433  66.227  1.00  0.00    -0.209 C  
HETATM   32  C   UNL     1      -8.560   7.270  66.689  1.00  0.00    -0.128 C  
HETATM   33  C   UNL     1     -10.804   6.466  67.126  1.00  0.00    -0.393 C  
HETATM   34  C   UNL     1      -8.773   6.045  65.806  1.00  0.00    -0.155 C  
BRANCH  33  35
HETATM   35  C   UNL     1     -11.014   5.927  68.555  1.00  0.00    -0.197 C  
HETATM   36  O   UNL     1     -11.849   6.797  69.326  1.00  0.00    -0.606 OA 
HETATM   37  H   UNL     1     -11.979   6.465  70.206  1.00  0.00     0.000 HD 
ENDBRANCH  33  35
ENDBRANCH  17  30
ENDBRANCH  11  13
ENDBRANCH  10  11
ENDBRANCH   7  10
ENDBRANCH   2   3
TORSDOF 9
ENDMDL
MODEL      247
REMARK 921   NORMALIZED FREE ENERGY PREDICTED BY IDOCK:    5.49 KCAL/MOL
REMARK 922        TOTAL FREE ENERGY PREDICTED BY IDOCK:    6.85 KCAL/MOL
REMARK 923 INTER-LIGAND FREE ENERGY PREDICTED BY IDOCK:    6.61 KCAL/MOL
REMARK 924 INTRA-LIGAND FREE ENERGY PREDICTED BY IDOCK:    0.24 KCAL/MOL
REMARK 927      BINDING AFFINITY PREDICTED BY RF-SCORE:    0.00 PKD
ROOT
HETATM    1  C   UNL     1     -13.497  19.894  67.669  1.00  0.00     6.500 C  
HETATM    2  O   UNL     1     -12.086  20.054  67.725  1.00  0.00     1.731 OA 
ENDROOT
BRANCH   2   3
HETATM    3  C   UNL     1     -11.339  18.927  67.945  1.00  0.00     0.655 A  
HETATM    4  C   UNL     1     -10.041  19.105  68.448  1.00  0.00    -0.418 A  
HETATM    5 CL   UNL     1      -9.374  20.685  68.678  1.00  0.00     0.406 Cl 
HETATM    6  C   UNL     1      -9.236  18.005  68.767  1.00  0.00    -0.229 A  
HETATM    7  C   UNL     1      -9.721  16.701  68.603  1.00  0.00    -0.248 A  
HETATM    8  C   UNL     1     -11.810  17.624  67.755  1.00  0.00     1.753 A  
HETATM    9  C   UNL     1     -11.005  16.523  68.073  1.00  0.00    -0.320 A  
BRANCH   7  10
HETATM   10  C   UNL     1      -8.856  15.508  68.943  1.00  0.00    -0.217 C  
BRANCH  10  11
HETATM   11  N   UNL     1      -7.541  16.004  69.310  1.00  0.00    -0.231 NA 
HETATM   12  H   UNL     1      -7.240  16.076  70.282  1.00  0.00     0.000 HD 
BRANCH  11  13
HETATM   13  C   UNL     1      -6.705  16.379  68.239  1.00  0.00    -0.132 A  
HETATM   14  C   UNL     1      -5.877  15.435  67.654  1.00  0.00    -0.115 A  
HETATM   15  C   UNL     1      -5.131  15.882  66.589  1.00  0.00     1.049 A  
HETATM   16  N   UNL     1      -6.774  17.649  67.768  1.00  0.00    -0.180 NA 
HETATM   17  C   UNL     1      -6.021  18.000  66.706  1.00  0.00    -0.154 A  
HETATM   18  N   UNL     1      -5.174  17.147  66.115  1.00  0.00    -0.353 NA 
BRANCH  14  19
HETATM   19  C   UNL     1      -5.710  14.030  68.089  1.00  0.00    -0.128 C  
HETATM   20  O   UNL     1      -5.247  13.795  69.200  1.00  0.00    -0.077 OA 
HETATM   21  N   UNL     1      -6.120  13.042  67.226  1.00  0.00    -0.164 N  
HETATM   22  H   UNL     1      -6.549  13.310  66.339  1.00  0.00     0.000 HD 
BRANCH  21  23
HETATM   23  C   UNL     1      -5.963  11.628  67.532  1.00  0.00    -0.079 C  
BRANCH  23  24
HETATM   24  C   UNL     1      -7.113  10.748  67.075  1.00  0.00    -0.104 A  
HETATM   25  N   UNL     1      -8.191  11.374  66.552  1.00  0.00    -0.167 NA 
HETATM   26  C   UNL     1      -9.192  10.591  66.107  1.00  0.00    -0.170 A  
HETATM   27  N   UNL     1      -7.003   9.405  67.198  1.00  0.00    -0.084 NA 
HETATM   28  C   UNL     1      -8.032   8.674  66.725  1.00  0.00    -0.094 A  
HETATM   29  C   UNL     1      -9.164   9.220  66.165  1.00  0.00    -0.249 A  
ENDBRANCH  23  24
ENDBRANCH  21  23
ENDBRANCH  14  19
BRANCH  17  30
HETATM   30  N   UNL     1      -6.109  19.270  66.209  1.00  0.00    -0.165 NA 
HETATM   31  C   UNL     1      -5.126  21.357  65.655  1.00  0.00    -0.178 C  
HETATM   32  C   UNL     1      -6.600  19.568  64.882  1.00  0.00    -0.127 C  
HETATM   33  C   UNL     1      -5.416  20.401  66.824  1.00  0.00    -0.169 C  
HETATM   34  C   UNL     1      -5.715  20.715  64.404  1.00  0.00    -0.283 C  
BRANCH  33  35
HETATM   35  C   UNL     1      -6.324  21.057  67.884  1.00  0.00    -0.335 C  
HETATM   36  O   UNL     1      -6.578  20.171  68.977  1.00  0.00    -0.312 OA 
HETATM   37  H   UNL     1      -7.138  20.574  69.630  1.00  0.00     0.000 HD 
ENDBRANCH  33  35
ENDBRANCH  17  30
ENDBRANCH  11  13
ENDBRANCH  10  11
ENDBRANCH   7  10
ENDBRANCH   2   3
TORSDOF 9
ENDMDL
MODEL      248
REMARK 921   NORMALIZED FREE ENERGY PREDICTED BY IDOCK:    6.19 KCAL/MOL
REMARK 922        TOTAL FREE ENERGY PREDICTED BY IDOCK:    7.91 KCAL/MOL
REMARK 923 INTER-LIGAND FREE ENERGY PREDICTED BY IDOCK:    4.62 KCAL/MOL
REMARK 924 INTRA-LIGAND FREE ENERGY PREDICTED BY IDOCK:    3.29 KCAL/MOL
REMARK 927      BINDING AFFINITY PREDICTED BY RF-SCORE:    0.00 PKD
ROOT
HETATM    1  C   UNL     1     -13.516  12.423  66.806  1.00  0.00     6.401 C  
HETATM    2  O   UNL     1     -12.992  11.442  67.690  1.00  0.00     2.460 OA 
ENDROOT
BRANCH   2   3
HETATM    3  C   UNL     1     -11.654  11.511  67.975  1.00  0.00    -0.300 A  
HETATM    4  C   UNL     1     -11.050  12.778  67.920  1.00  0.00    -0.246 A  
HETATM    5 CL   UNL     1     -11.935  14.175  67.408  1.00  0.00    -0.446 Cl 
HETATM    6  C   UNL     1      -9.705  12.949  68.264  1.00  0.00    -0.217 A  
HETATM    7  C   UNL     1      -8.937  11.856  68.687  1.00  0.00    -0.044 A  
HETATM    8  C   UNL     1     -10.878  10.418  68.369  1.00  0.00    -0.289 A  
HETATM    9  C   UNL     1      -9.531  10.588  68.713  1.00  0.00    -0.181 A  
BRANCH   7  10
HETATM   10  C   UNL     1      -7.482  12.034  69.058  1.00  0.00     0.017 C  
BRANCH  10  11
HETATM   11  N   UNL     1      -7.316  13.382  69.572  1.00  0.00    -0.293 NA 
HETATM   12  H   UNL     1      -7.692  13.668  70.477  1.00  0.00     0.000 HD 
BRANCH  11  13
HETATM   13  C   UNL     1      -6.605  14.273  68.744  1.00  0.00    -0.092 A  
HETATM   14  C   UNL     1      -5.783  13.771  67.747  1.00  0.00    -0.085 A  
HETATM   15  C   UNL     1      -5.165  14.715  66.961  1.00  0.00     1.231 A  
HETATM   16  N   UNL     1      -6.788  15.607  68.906  1.00  0.00    -0.119 NA 
HETATM   17  C   UNL     1      -6.157  16.464  68.079  1.00  0.00    -0.118 A  
HETATM   18  N   UNL     1      -5.322  16.048  67.118  1.00  0.00    -0.343 NA 
BRANCH  14  19
HETATM   19  C   UNL     1      -5.499  12.342  67.486  1.00  0.00    -0.124 C  
HETATM   20  O   UNL     1      -5.351  11.960  66.331  1.00  0.00    -0.324 OA 
HETATM   21  N   UNL     1      -5.380  11.508  68.571  1.00  0.00    -0.043 N  
HETATM   22  H   UNL     1      -5.459  11.903  69.508  1.00  0.00     0.000 HD 
BRANCH  21  23
HETATM   23  C   UNL     1      -5.144  10.079  68.430  1.00  0.00    -0.036 C  
BRANCH  23  24
HETATM   24  C   UNL     1      -5.369   9.270  69.696  1.00  0.00    -0.034 A  
HETATM   25  N   UNL     1      -5.372   9.950  70.863  1.00  0.00    -0.054 NA 
HETATM   26  C   UNL     1      -5.615   9.239  71.981  1.00  0.00    -0.068 A  
HETATM   27  N   UNL     1      -5.565   7.935  69.597  1.00  0.00    -0.023 NA 
HETATM   28  C   UNL     1      -5.813   7.279  70.748  1.00  0.00    -0.031 A  
HETATM   29  C   UNL     1      -5.850   7.887  71.981  1.00  0.00    -0.036 A  
ENDBRANCH  23  24
ENDBRANCH  21  23
ENDBRANCH  14  19
BRANCH  17  30
HETATM   30  N   UNL     1      -6.361  17.808  68.219  1.00  0.00    -0.185 NA 
HETATM   31  C   UNL     1      -7.597  19.643  69.076  1.00  0.00    -0.320 C  
HETATM   32  C   UNL     1      -5.362  18.709  68.750  1.00  0.00    -0.193 C  
HETATM   33  C   UNL     1      -7.694  18.407  68.168  1.00  0.00    -0.290 C  
HETATM   34  C   UNL     1      -6.161  19.703  69.586  1.00  0.00    -0.339 C  
BRANCH  33  35
HETATM   35  C   UNL     1      -8.038  18.793  66.715  1.00  0.00    -0.265 C  
HETATM   36  O   UNL     1      -8.351  20.184  66.602  1.00  0.00    -0.351 OA 
HETATM   37  H   UNL     1      -8.562  20.422  65.708  1.00  0.00     0.000 HD 
ENDBRANCH  33  35
ENDBRANCH  17  30
ENDBRANCH  11  13
ENDBRANCH  10  11
ENDBRANCH   7  10
ENDBRANCH   2   3
TORSDOF 9
ENDMDL
MODEL      249
REMARK 921   NORMALIZED FREE ENERGY PREDICTED BY IDOCK:    7.30 KCAL/MOL
REMARK 922        TOTAL FREE ENERGY PREDICTED BY IDOCK:    9.61 KCAL/MOL
REMARK 923 INTER-LIGAND FREE ENERGY PREDICTED BY IDOCK:    4.34 KCAL/MOL
REMARK 924 INTRA-LIGAND FREE ENERGY PREDICTED BY IDOCK:    5.27 KCAL/MOL
REMARK 927      BINDING AFFINITY PREDICTED BY RF-SCORE:    0.00 PKD
ROOT
HETATM    1  C   UNL     1     -13.516  12.423  66.806  1.00  0.00     6.401 C  
HETATM    2  O   UNL     1     -12.989  11.448  67.694  1.00  0.00     2.460 OA 
ENDROOT
BRANCH   2   3
HETATM    3  C   UNL     1     -11.657  11.538  68.000  1.00  0.00    -0.300 A  
HETATM    4  C   UNL     1     -11.073  12.814  67.957  1.00  0.00    -0.250 A  
HETATM    5 CL   UNL     1     -11.973  14.198  67.436  1.00  0.00    -0.446 Cl 
HETATM    6  C   UNL     1      -9.736  13.006  68.322  1.00  0.00    -0.221 A  
HETATM    7  C   UNL     1      -8.956  11.925  68.753  1.00  0.00     0.045 A  
HETATM    8  C   UNL     1     -10.869  10.456  68.402  1.00  0.00    -0.289 A  
HETATM    9  C   UNL     1      -9.531  10.647  68.767  1.00  0.00    -0.186 A  
BRANCH   7  10
HETATM   10  C   UNL     1      -7.510  12.125  69.146  1.00  0.00     0.121 C  
BRANCH  10  11
HETATM   11  N   UNL     1      -7.374  13.474  69.666  1.00  0.00    -0.231 NA 
HETATM   12  H   UNL     1      -7.767  13.750  70.566  1.00  0.00     0.000 HD 
BRANCH  11  13
HETATM   13  C   UNL     1      -6.666  14.378  68.851  1.00  0.00    -0.098 A  
HETATM   14  C   UNL     1      -5.821  13.893  67.865  1.00  0.00    -0.132 A  
HETATM   15  C   UNL     1      -5.206  14.849  67.091  1.00  0.00     0.826 A  
HETATM   16  N   UNL     1      -6.872  15.709  69.014  1.00  0.00    -0.130 NA 
HETATM   17  C   UNL     1      -6.242  16.578  68.199  1.00  0.00    -0.128 A  
HETATM   18  N   UNL     1      -5.387  16.179  67.249  1.00  0.00    -0.309 NA 
BRANCH  14  19
HETATM   19  C   UNL     1      -5.510  12.470  67.604  1.00  0.00    -0.123 C  
HETATM   20  O   UNL     1      -5.338  12.093  66.450  1.00  0.00    -0.276 OA 
HETATM   21  N   UNL     1      -5.393  11.634  68.689  1.00  0.00    -0.043 N  
HETATM   22  H   UNL     1      -5.492  12.025  69.626  1.00  0.00     0.000 HD 
BRANCH  21  23
HETATM   23  C   UNL     1      -5.132  10.209  68.547  1.00  0.00    -0.035 C  
BRANCH  23  24
HETATM   24  C   UNL     1      -6.082   9.479  67.615  1.00  0.00    -0.053 A  
HETATM   25  N   UNL     1      -6.370   8.194  67.920  1.00  0.00    -0.051 NA 
HETATM   26  C   UNL     1      -7.246   7.560  67.118  1.00  0.00    -0.086 A  
HETATM   27  N   UNL     1      -6.596  10.138  66.551  1.00  0.00    -0.073 NA 
HETATM   28  C   UNL     1      -7.475   9.454  65.790  1.00  0.00    -0.099 A  
HETATM   29  C   UNL     1      -7.840   8.150  66.029  1.00  0.00    -0.093 A  
ENDBRANCH  23  24
ENDBRANCH  21  23
ENDBRANCH  14  19
BRANCH  17  30
HETATM   30  N   UNL     1      -6.470  17.919  68.340  1.00  0.00    -0.192 NA 
HETATM   31  C   UNL     1      -7.840  19.733  69.020  1.00  0.00    -0.194 C  
HETATM   32  C   UNL     1      -5.581  18.801  69.062  1.00  0.00    -0.205 C  
HETATM   33  C   UNL     1      -7.776  18.523  68.074  1.00  0.00    -0.265 C  
HETATM   34  C   UNL     1      -6.515  19.773  69.774  1.00  0.00    -0.382 C  
BRANCH  33  35
HETATM   35  C   UNL     1      -7.862  18.951  66.595  1.00  0.00    -0.259 C  
HETATM   36  O   UNL     1      -7.021  18.144  65.766  1.00  0.00    -0.364 OA 
HETATM   37  H   UNL     1      -7.074  18.407  64.855  1.00  0.00     0.000 HD 
ENDBRANCH  33  35
ENDBRANCH  17  30
ENDBRANCH  11  13
ENDBRANCH  10  11
ENDBRANCH   7  10
ENDBRANCH   2   3
TORSDOF 9
ENDMDL
MODEL      250
REMARK 921   NORMALIZED FREE ENERGY PREDICTED BY IDOCK:    8.68 KCAL/MOL
REMARK 922        TOTAL FREE ENERGY PREDICTED BY IDOCK:   11.71 KCAL/MOL
REMARK 923 INTER-LIGAND FREE ENERGY PREDICTED BY IDOCK:    4.13 KCAL/MOL
REMARK 924 INTRA-LIGAND FREE ENERGY PREDICTED BY IDOCK:    7.58 KCAL/MOL
REMARK 927      BINDING AFFINITY PREDICTED BY RF-SCORE:    0.00 PKD
ROOT
HETATM    1  C   UNL     1      -7.454  20.839  67.292  1.00  0.00    -0.328 C  
HETATM    2  O   UNL     1      -6.521  19.784  67.106  1.00  0.00    -0.192 OA 
ENDROOT
BRANCH   2   3
HETATM    3  C   UNL     1      -6.984  18.505  67.275  1.00  0.00    -0.203 A  
HETATM    4  C   UNL     1      -6.820  17.926  68.543  1.00  0.00    -0.236 A  
HETATM    5 CL   UNL     1      -5.974  18.751  69.807  1.00  0.00    -0.269 Cl 
HETATM    6  C   UNL     1      -7.326  16.651  68.822  1.00  0.00    -0.220 A  
HETATM    7  C   UNL     1      -8.021  15.934  67.839  1.00  0.00    -0.146 A  
HETATM    8  C   UNL     1      -7.652  17.776  66.288  1.00  0.00    -0.322 A  
HETATM    9  C   UNL     1      -8.158  16.500  66.565  1.00  0.00    -0.341 A  
BRANCH   7  10
HETATM   10  C   UNL     1      -8.568  14.555  68.133  1.00  0.00    -0.169 C  
BRANCH  10  11
HETATM   11  N   UNL     1     -10.015  14.621  68.034  1.00  0.00    -0.217 NA 
HETATM   12  H   UNL     1     -10.486  14.963  67.196  1.00  0.00     0.000 HD 
BRANCH  11  13
HETATM   13  C   UNL     1     -10.730  14.184  69.167  1.00  0.00    -0.194 A  
HETATM   14  C   UNL     1     -11.455  15.099  69.913  1.00  0.00    -0.315 A  
HETATM   15  C   UNL     1     -12.154  14.574  70.974  1.00  0.00    -0.344 A  
HETATM   16  N   UNL     1     -10.736  12.862  69.468  1.00  0.00     0.198 NA 
HETATM   17  C   UNL     1     -11.465  12.428  70.516  1.00  0.00     0.584 A  
HETATM   18  N   UNL     1     -12.160  13.263  71.299  1.00  0.00    -0.015 NA 
BRANCH  14  19
HETATM   19  C   UNL     1     -11.511  16.561  69.688  1.00  0.00     0.030 C  
HETATM   20  O   UNL     1     -11.170  17.322  70.586  1.00  0.00     0.551 OA 
HETATM   21  N   UNL     1     -11.918  17.000  68.451  1.00  0.00     0.714 N  
HETATM   22  H   UNL     1     -12.134  16.311  67.730  1.00  0.00     0.000 HD 
BRANCH  21  23
HETATM   23  C   UNL     1     -12.052  18.414  68.133  1.00  0.00     3.713 C  
BRANCH  23  24
HETATM   24  C   UNL     1     -11.041  18.937  67.128  1.00  0.00    -0.010 A  
HETATM   25  N   UNL     1     -10.040  19.705  67.612  1.00  0.00    -0.389 NA 
HETATM   26  C   UNL     1      -9.119  20.133  66.728  1.00  0.00    -0.340 A  
HETATM   27  N   UNL     1     -11.179  18.608  65.823  1.00  0.00     0.328 NA 
HETATM   28  C   UNL     1     -10.221  19.057  64.987  1.00  0.00     1.781 A  
HETATM   29  C   UNL     1      -9.158  19.832  65.389  1.00  0.00     0.740 A  
ENDBRANCH  23  24
ENDBRANCH  21  23
ENDBRANCH  14  19
BRANCH  17  30
HETATM   30  N   UNL     1     -11.499  11.092  70.805  1.00  0.00     0.013 NA 
HETATM   31  C   UNL     1     -12.210   8.881  70.325  1.00  0.00     0.411 C  
HETATM   32  C   UNL     1     -10.309  10.284  70.949  1.00  0.00     0.602 C  
HETATM   33  C   UNL     1     -12.715  10.292  70.665  1.00  0.00    -0.300 C  
HETATM   34  C   UNL     1     -10.687   8.947  70.320  1.00  0.00    -0.248 C  
BRANCH  33  35
HETATM   35  C   UNL     1     -13.507  10.311  71.988  1.00  0.00    -0.281 C  
HETATM   36  O   UNL     1     -13.432  11.588  72.626  1.00  0.00    -0.452 OA 
HETATM   37  H   UNL     1     -13.920  11.600  73.441  1.00  0.00     0.000 HD 
ENDBRANCH  33  35
ENDBRANCH  17  30
ENDBRANCH  11  13
ENDBRANCH  10  11
ENDBRANCH   7  10
ENDBRANCH   2   3
TORSDOF 9
ENDMDL
