MODEL        1
REMARK 921   NORMALIZED FREE ENERGY PREDICTED BY IDOCK:   -6.75 KCAL/MOL
REMARK 922        TOTAL FREE ENERGY PREDICTED BY IDOCK:   -7.92 KCAL/MOL
REMARK 923 INTER-LIGAND FREE ENERGY PREDICTED BY IDOCK:   -7.54 KCAL/MOL
REMARK 924 INTRA-LIGAND FREE ENERGY PREDICTED BY IDOCK:   -0.37 KCAL/MOL
REMARK 927      BINDING AFFINITY PREDICTED BY RF-SCORE:    0.00 PKD
ROOT
HETATM    1  N   UNL     1     -11.051  11.344  62.996  1.00  0.00    -0.840 N  
HETATM    2  C   UNL     1     -11.787  12.345  63.557  1.00  0.00    -0.521 C  
HETATM    3  H1  UNL     1     -10.033  11.370  63.040  1.00  0.00     0.000 HD 
HETATM    4  H2  UNL     1     -11.521  10.568  62.530  1.00  0.00     0.000 HD 
HETATM    5  O   UNL     1     -13.013  12.315  63.503  1.00  0.00    -0.776 OA 
ENDROOT
BRANCH   2   6
HETATM    6  C   UNL     1     -10.991  13.377  64.382  1.00  0.00    -0.395 C  
HETATM    7  C   UNL     1     -10.168  12.647  65.477  1.00  0.00    -0.298 C  
HETATM    8  C   UNL     1      -9.784  13.536  66.674  1.00  0.00    -0.281 C  
HETATM    9  C   UNL     1     -10.878  14.572  67.015  1.00  0.00    -0.297 C  
HETATM   10  C   UNL     1     -12.192  14.167  66.365  1.00  0.00    -0.446 C  
HETATM   11  N   UNL     1     -11.871  14.418  64.966  1.00  0.00    -0.383 N  
HETATM   12  C   UNL     1     -11.224  15.707  65.017  1.00  0.00    -0.329 C  
HETATM   13  N   UNL     1     -10.559  15.779  66.265  1.00  0.00    -0.311 N  
HETATM   14  O   UNL     1     -11.331  16.596  64.189  1.00  0.00    -1.141 OA 
BRANCH  13  15
HETATM   15  O   UNL     1     -10.898  16.974  66.955  1.00  0.00    -0.200 OA 
HETATM   16  S   UNL     1      -9.592  17.898  67.317  1.00  0.00    -0.281 S  
HETATM   17  O   UNL     1      -8.605  17.067  67.976  1.00  0.00    -0.207 OA 
HETATM   18  O   UNL     1     -10.076  19.119  67.922  1.00  0.00    -0.344 OA 
HETATM   19  O   UNL     1      -9.015  18.311  65.871  1.00  0.00    -0.497 OA 
ENDBRANCH  13  15
ENDBRANCH   2   6
TORSDOF 2
ENDMDL
MODEL        2
REMARK 921   NORMALIZED FREE ENERGY PREDICTED BY IDOCK:   -6.58 KCAL/MOL
REMARK 922        TOTAL FREE ENERGY PREDICTED BY IDOCK:   -7.72 KCAL/MOL
REMARK 923 INTER-LIGAND FREE ENERGY PREDICTED BY IDOCK:   -7.42 KCAL/MOL
REMARK 924 INTRA-LIGAND FREE ENERGY PREDICTED BY IDOCK:   -0.31 KCAL/MOL
REMARK 927      BINDING AFFINITY PREDICTED BY RF-SCORE:    0.00 PKD
ROOT
HETATM    1  N   UNL     1     -10.104  19.397  69.148  1.00  0.00    -0.586 N  
HETATM    2  C   UNL     1     -10.226  19.229  67.800  1.00  0.00    -0.408 C  
HETATM    3  H1  UNL     1     -10.458  18.686  69.787  1.00  0.00     0.000 HD 
HETATM    4  H2  UNL     1      -9.658  20.237  69.517  1.00  0.00     0.000 HD 
HETATM    5  O   UNL     1      -9.801  20.085  67.030  1.00  0.00    -0.375 OA 
ENDROOT
BRANCH   2   6
HETATM    6  C   UNL     1     -10.756  17.853  67.344  1.00  0.00    -0.295 C  
HETATM    7  C   UNL     1     -10.818  16.889  68.559  1.00  0.00    -0.335 C  
HETATM    8  C   UNL     1     -10.793  15.397  68.179  1.00  0.00    -0.285 C  
HETATM    9  C   UNL     1      -9.908  15.116  66.944  1.00  0.00    -0.237 C  
HETATM   10  C   UNL     1      -8.981  16.297  66.696  1.00  0.00    -0.251 C  
HETATM   11  N   UNL     1      -9.947  17.286  66.239  1.00  0.00    -0.301 N  
HETATM   12  C   UNL     1     -10.754  16.534  65.309  1.00  0.00    -0.254 C  
HETATM   13  N   UNL     1     -10.778  15.199  65.779  1.00  0.00    -0.333 N  
HETATM   14  O   UNL     1     -11.224  16.953  64.264  1.00  0.00    -1.204 OA 
BRANCH  13  15
HETATM   15  O   UNL     1     -10.421  14.288  64.749  1.00  0.00    -0.431 OA 
HETATM   16  S   UNL     1     -11.646  13.282  64.329  1.00  0.00    -0.416 S  
HETATM   17  O   UNL     1     -12.176  12.670  65.532  1.00  0.00    -0.475 OA 
HETATM   18  O   UNL     1     -11.192  12.482  63.214  1.00  0.00    -0.452 OA 
HETATM   19  O   UNL     1     -12.765  14.280  63.740  1.00  0.00    -0.779 OA 
ENDBRANCH  13  15
ENDBRANCH   2   6
TORSDOF 2
ENDMDL
MODEL        3
REMARK 921   NORMALIZED FREE ENERGY PREDICTED BY IDOCK:   -5.91 KCAL/MOL
REMARK 922        TOTAL FREE ENERGY PREDICTED BY IDOCK:   -6.98 KCAL/MOL
REMARK 923 INTER-LIGAND FREE ENERGY PREDICTED BY IDOCK:   -6.61 KCAL/MOL
REMARK 924 INTRA-LIGAND FREE ENERGY PREDICTED BY IDOCK:   -0.37 KCAL/MOL
REMARK 927      BINDING AFFINITY PREDICTED BY RF-SCORE:    0.00 PKD
ROOT
HETATM    1  N   UNL     1     -10.771  11.249  63.296  1.00  0.00    -0.744 N  
HETATM    2  C   UNL     1     -11.459  12.350  63.712  1.00  0.00    -0.467 C  
HETATM    3  H1  UNL     1      -9.814  11.094  63.610  1.00  0.00     0.000 HD 
HETATM    4  H2  UNL     1     -11.215  10.579  62.667  1.00  0.00     0.000 HD 
HETATM    5  O   UNL     1     -12.612  12.538  63.332  1.00  0.00    -0.690 OA 
ENDROOT
BRANCH   2   6
HETATM    6  C   UNL     1     -10.763  13.205  64.791  1.00  0.00    -0.364 C  
HETATM    7  C   UNL     1     -10.265  12.288  65.941  1.00  0.00    -0.274 C  
HETATM    8  C   UNL     1     -10.062  13.016  67.282  1.00  0.00    -0.235 C  
HETATM    9  C   UNL     1     -11.100  14.138  67.509  1.00  0.00    -0.291 C  
HETATM   10  C   UNL     1     -12.278  13.948  66.565  1.00  0.00    -0.442 C  
HETATM   11  N   UNL     1     -11.643  14.284  65.298  1.00  0.00    -0.336 N  
HETATM   12  C   UNL     1     -10.902  15.479  65.621  1.00  0.00    -0.346 C  
HETATM   13  N   UNL     1     -10.514  15.362  66.978  1.00  0.00    -0.288 N  
HETATM   14  O   UNL     1     -10.746  16.445  64.894  1.00  0.00    -0.675 OA 
BRANCH  13  15
HETATM   15  O   UNL     1     -10.878  16.521  67.715  1.00  0.00    -0.341 OA 
HETATM   16  S   UNL     1      -9.620  17.177  68.539  1.00  0.00    -0.297 S  
HETATM   17  O   UNL     1      -8.980  16.132  69.314  1.00  0.00    -0.246 OA 
HETATM   18  O   UNL     1     -10.093  18.394  69.160  1.00  0.00    -0.346 OA 
HETATM   19  O   UNL     1      -8.605  17.631  67.374  1.00  0.00    -0.222 OA 
ENDBRANCH  13  15
ENDBRANCH   2   6
TORSDOF 2
ENDMDL
MODEL        4
REMARK 921   NORMALIZED FREE ENERGY PREDICTED BY IDOCK:   -5.75 KCAL/MOL
REMARK 922        TOTAL FREE ENERGY PREDICTED BY IDOCK:   -6.80 KCAL/MOL
REMARK 923 INTER-LIGAND FREE ENERGY PREDICTED BY IDOCK:   -6.43 KCAL/MOL
REMARK 924 INTRA-LIGAND FREE ENERGY PREDICTED BY IDOCK:   -0.37 KCAL/MOL
REMARK 927      BINDING AFFINITY PREDICTED BY RF-SCORE:    0.00 PKD
ROOT
HETATM    1  N   UNL     1     -12.129  12.970  63.177  1.00  0.00    -0.847 N  
HETATM    2  C   UNL     1     -11.996  13.093  64.528  1.00  0.00    -0.389 C  
HETATM    3  H1  UNL     1     -11.614  13.590  62.552  1.00  0.00     0.000 HD 
HETATM    4  H2  UNL     1     -12.745  12.255  62.790  1.00  0.00     0.000 HD 
HETATM    5  O   UNL     1     -12.616  12.347  65.280  1.00  0.00    -0.636 OA 
ENDROOT
BRANCH   2   6
HETATM    6  C   UNL     1     -10.913  14.084  65.005  1.00  0.00    -0.375 C  
HETATM    7  C   UNL     1      -9.860  13.332  65.862  1.00  0.00    -0.241 C  
HETATM    8  C   UNL     1      -9.070  14.238  66.824  1.00  0.00    -0.269 C  
HETATM    9  C   UNL     1      -9.929  15.390  67.392  1.00  0.00    -0.229 C  
HETATM   10  C   UNL     1     -11.404  15.081  67.186  1.00  0.00    -0.320 C  
HETATM   11  N   UNL     1     -11.496  15.231  65.740  1.00  0.00    -0.181 N  
HETATM   12  C   UNL     1     -10.766  16.453  65.503  1.00  0.00    -0.287 C  
HETATM   13  N   UNL     1      -9.756  16.522  66.492  1.00  0.00    -0.257 N  
HETATM   14  O   UNL     1     -11.046  17.307  64.678  1.00  0.00    -1.052 OA 
BRANCH  13  15
HETATM   15  O   UNL     1      -9.781  17.776  67.161  1.00  0.00    -0.272 OA 
HETATM   16  S   UNL     1      -8.342  18.561  67.105  1.00  0.00    -0.254 S  
HETATM   17  O   UNL     1      -7.302  17.651  67.545  1.00  0.00    -0.184 OA 
HETATM   18  O   UNL     1      -8.525  19.853  67.727  1.00  0.00    -0.307 OA 
HETATM   19  O   UNL     1      -8.129  18.843  65.534  1.00  0.00    -0.324 OA 
ENDBRANCH  13  15
ENDBRANCH   2   6
TORSDOF 2
ENDMDL
MODEL        5
REMARK 921   NORMALIZED FREE ENERGY PREDICTED BY IDOCK:   -5.61 KCAL/MOL
REMARK 922        TOTAL FREE ENERGY PREDICTED BY IDOCK:   -6.64 KCAL/MOL
REMARK 923 INTER-LIGAND FREE ENERGY PREDICTED BY IDOCK:   -6.27 KCAL/MOL
REMARK 924 INTRA-LIGAND FREE ENERGY PREDICTED BY IDOCK:   -0.37 KCAL/MOL
REMARK 927      BINDING AFFINITY PREDICTED BY RF-SCORE:    0.00 PKD
ROOT
HETATM    1  N   UNL     1     -11.528  12.194  69.839  1.00  0.00    -0.506 N  
HETATM    2  C   UNL     1     -11.788  12.198  68.501  1.00  0.00    -0.310 C  
HETATM    3  H1  UNL     1     -11.221  13.049  70.303  1.00  0.00     0.000 HD 
HETATM    4  H2  UNL     1     -11.640  11.335  70.376  1.00  0.00     0.000 HD 
HETATM    5  O   UNL     1     -12.157  11.169  67.941  1.00  0.00    -0.627 OA 
ENDROOT
BRANCH   2   6
HETATM    6  C   UNL     1     -11.756  13.581  67.817  1.00  0.00    -0.359 C  
HETATM    7  C   UNL     1     -12.185  13.439  66.333  1.00  0.00    -0.435 C  
HETATM    8  C   UNL     1     -11.687  14.577  65.422  1.00  0.00    -0.354 C  
HETATM    9  C   UNL     1     -10.291  15.095  65.834  1.00  0.00    -0.327 C  
HETATM   10  C   UNL     1      -9.613  14.081  66.743  1.00  0.00    -0.286 C  
HETATM   11  N   UNL     1     -10.428  14.230  67.941  1.00  0.00    -0.238 N  
HETATM   12  C   UNL     1     -10.537  15.662  68.074  1.00  0.00    -0.271 C  
HETATM   13  N   UNL     1     -10.511  16.195  66.762  1.00  0.00    -0.298 N  
HETATM   14  O   UNL     1     -10.536  16.288  69.121  1.00  0.00    -0.241 OA 
BRANCH  13  15
HETATM   15  O   UNL     1      -9.538  17.225  66.649  1.00  0.00    -0.255 OA 
HETATM   16  S   UNL     1     -10.185  18.675  66.238  1.00  0.00    -0.421 S  
HETATM   17  O   UNL     1     -11.025  18.493  65.070  1.00  0.00    -0.602 OA 
HETATM   18  O   UNL     1      -9.118  19.650  66.254  1.00  0.00    -0.362 OA 
HETATM   19  O   UNL     1     -11.136  19.029  67.489  1.00  0.00    -0.381 OA 
ENDBRANCH  13  15
ENDBRANCH   2   6
TORSDOF 2
ENDMDL
MODEL        6
REMARK 921   NORMALIZED FREE ENERGY PREDICTED BY IDOCK:   -5.44 KCAL/MOL
REMARK 922        TOTAL FREE ENERGY PREDICTED BY IDOCK:   -6.45 KCAL/MOL
REMARK 923 INTER-LIGAND FREE ENERGY PREDICTED BY IDOCK:   -6.41 KCAL/MOL
REMARK 924 INTRA-LIGAND FREE ENERGY PREDICTED BY IDOCK:   -0.04 KCAL/MOL
REMARK 927      BINDING AFFINITY PREDICTED BY RF-SCORE:    0.00 PKD
ROOT
HETATM    1  N   UNL     1     -12.922  12.390  64.293  1.00  0.00    -0.740 N  
HETATM    2  C   UNL     1     -12.383  12.664  65.515  1.00  0.00    -0.391 C  
HETATM    3  H1  UNL     1     -13.211  13.151  63.679  1.00  0.00     0.000 HD 
HETATM    4  H2  UNL     1     -13.038  11.422  63.994  1.00  0.00     0.000 HD 
HETATM    5  O   UNL     1     -12.036  11.748  66.255  1.00  0.00    -0.490 OA 
ENDROOT
BRANCH   2   6
HETATM    6  C   UNL     1     -12.092  14.152  65.799  1.00  0.00    -0.420 C  
HETATM    7  C   UNL     1     -11.806  14.892  64.465  1.00  0.00    -0.404 C  
HETATM    8  C   UNL     1     -10.990  16.188  64.627  1.00  0.00    -0.263 C  
HETATM    9  C   UNL     1      -9.944  16.090  65.760  1.00  0.00    -0.351 C  
HETATM   10  C   UNL     1      -9.713  14.631  66.124  1.00  0.00    -0.319 C  
HETATM   11  N   UNL     1     -10.984  14.326  66.768  1.00  0.00    -0.299 N  
HETATM   12  C   UNL     1     -11.188  15.470  67.623  1.00  0.00    -0.291 C  
HETATM   13  N   UNL     1     -10.594  16.577  66.970  1.00  0.00    -0.292 N  
HETATM   14  O   UNL     1     -11.677  15.453  68.740  1.00  0.00    -0.341 OA 
BRANCH  13  15
HETATM   15  O   UNL     1      -9.708  17.268  67.840  1.00  0.00    -0.260 OA 
HETATM   16  S   UNL     1      -9.553  18.858  67.466  1.00  0.00    -0.312 S  
HETATM   17  O   UNL     1      -9.241  18.973  66.055  1.00  0.00    -0.460 OA 
HETATM   18  O   UNL     1      -8.714  19.464  68.475  1.00  0.00    -0.352 OA 
HETATM   19  O   UNL     1     -11.035  19.444  67.702  1.00  0.00    -0.429 OA 
ENDBRANCH  13  15
ENDBRANCH   2   6
TORSDOF 2
ENDMDL
MODEL        7
REMARK 921   NORMALIZED FREE ENERGY PREDICTED BY IDOCK:   -5.40 KCAL/MOL
REMARK 922        TOTAL FREE ENERGY PREDICTED BY IDOCK:   -6.40 KCAL/MOL
REMARK 923 INTER-LIGAND FREE ENERGY PREDICTED BY IDOCK:   -6.24 KCAL/MOL
REMARK 924 INTRA-LIGAND FREE ENERGY PREDICTED BY IDOCK:   -0.16 KCAL/MOL
REMARK 927      BINDING AFFINITY PREDICTED BY RF-SCORE:    0.00 PKD
ROOT
HETATM    1  N   UNL     1      -7.137  17.215  69.043  1.00  0.00    -0.235 N  
HETATM    2  C   UNL     1      -8.190  17.818  68.423  1.00  0.00    -0.298 C  
HETATM    3  H1  UNL     1      -7.185  16.226  69.290  1.00  0.00     0.000 HD 
HETATM    4  H2  UNL     1      -6.299  17.753  69.262  1.00  0.00     0.000 HD 
HETATM    5  O   UNL     1      -8.132  19.008  68.126  1.00  0.00    -0.290 OA 
ENDROOT
BRANCH   2   6
HETATM    6  C   UNL     1      -9.334  16.880  67.984  1.00  0.00    -0.238 C  
HETATM    7  C   UNL     1      -9.582  15.811  69.081  1.00  0.00    -0.255 C  
HETATM    8  C   UNL     1     -10.271  14.533  68.569  1.00  0.00    -0.240 C  
HETATM    9  C   UNL     1      -9.835  14.160  67.134  1.00  0.00    -0.253 C  
HETATM   10  C   UNL     1      -8.553  14.897  66.778  1.00  0.00    -0.222 C  
HETATM   11  N   UNL     1      -9.065  16.257  66.666  1.00  0.00    -0.227 N  
HETATM   12  C   UNL     1     -10.272  16.078  65.896  1.00  0.00    -0.365 C  
HETATM   13  N   UNL     1     -10.782  14.800  66.231  1.00  0.00    -0.305 N  
HETATM   14  O   UNL     1     -10.698  16.838  65.042  1.00  0.00    -0.692 OA 
BRANCH  13  15
HETATM   15  O   UNL     1     -11.046  14.034  65.063  1.00  0.00    -0.330 OA 
HETATM   16  S   UNL     1     -12.380  13.090  65.205  1.00  0.00    -0.495 S  
HETATM   17  O   UNL     1     -12.277  12.324  66.432  1.00  0.00    -0.613 OA 
HETATM   18  O   UNL     1     -12.595  12.444  63.929  1.00  0.00    -0.614 OA 
HETATM   19  O   UNL     1     -13.576  14.155  65.378  1.00  0.00    -0.568 OA 
ENDBRANCH  13  15
ENDBRANCH   2   6
TORSDOF 2
ENDMDL
MODEL        8
REMARK 921   NORMALIZED FREE ENERGY PREDICTED BY IDOCK:   -5.38 KCAL/MOL
REMARK 922        TOTAL FREE ENERGY PREDICTED BY IDOCK:   -6.38 KCAL/MOL
REMARK 923 INTER-LIGAND FREE ENERGY PREDICTED BY IDOCK:   -6.32 KCAL/MOL
REMARK 924 INTRA-LIGAND FREE ENERGY PREDICTED BY IDOCK:   -0.06 KCAL/MOL
REMARK 927      BINDING AFFINITY PREDICTED BY RF-SCORE:    0.00 PKD
ROOT
HETATM    1  N   UNL     1     -11.095  11.365  66.059  1.00  0.00    -0.226 N  
HETATM    2  C   UNL     1     -11.547  12.488  65.434  1.00  0.00    -0.375 C  
HETATM    3  H1  UNL     1     -10.163  11.349  66.473  1.00  0.00     0.000 HD 
HETATM    4  H2  UNL     1     -11.689  10.538  66.113  1.00  0.00     0.000 HD 
HETATM    5  O   UNL     1     -12.669  12.507  64.935  1.00  0.00    -0.657 OA 
ENDROOT
BRANCH   2   6
HETATM    6  C   UNL     1     -10.643  13.732  65.558  1.00  0.00    -0.307 C  
HETATM    7  C   UNL     1      -9.513  13.456  66.585  1.00  0.00    -0.264 C  
HETATM    8  C   UNL     1      -8.899  14.726  67.202  1.00  0.00    -0.234 C  
HETATM    9  C   UNL     1      -9.941  15.850  67.401  1.00  0.00    -0.239 C  
HETATM   10  C   UNL     1     -11.345  15.268  67.331  1.00  0.00    -0.284 C  
HETATM   11  N   UNL     1     -11.416  14.947  65.911  1.00  0.00    -0.318 N  
HETATM   12  C   UNL     1     -10.875  16.132  65.291  1.00  0.00    -0.336 C  
HETATM   13  N   UNL     1      -9.917  16.660  66.190  1.00  0.00    -0.323 N  
HETATM   14  O   UNL     1     -11.259  16.634  64.248  1.00  0.00    -1.098 OA 
BRANCH  13  15
HETATM   15  O   UNL     1     -10.154  18.039  66.436  1.00  0.00    -0.350 OA 
HETATM   16  S   UNL     1      -8.787  18.867  66.808  1.00  0.00    -0.319 S  
HETATM   17  O   UNL     1      -8.095  18.164  67.870  1.00  0.00    -0.238 OA 
HETATM   18  O   UNL     1      -9.143  20.263  66.935  1.00  0.00    -0.342 OA 
HETATM   19  O   UNL     1      -7.902  18.749  65.467  1.00  0.00    -0.409 OA 
ENDBRANCH  13  15
ENDBRANCH   2   6
TORSDOF 2
ENDMDL
MODEL        9
REMARK 921   NORMALIZED FREE ENERGY PREDICTED BY IDOCK:   -5.31 KCAL/MOL
REMARK 922        TOTAL FREE ENERGY PREDICTED BY IDOCK:   -6.31 KCAL/MOL
REMARK 923 INTER-LIGAND FREE ENERGY PREDICTED BY IDOCK:   -6.01 KCAL/MOL
REMARK 924 INTRA-LIGAND FREE ENERGY PREDICTED BY IDOCK:   -0.30 KCAL/MOL
REMARK 927      BINDING AFFINITY PREDICTED BY RF-SCORE:    0.00 PKD
ROOT
HETATM    1  N   UNL     1     -12.409  11.680  63.007  1.00  0.00    -0.956 N  
HETATM    2  C   UNL     1     -11.400  11.795  63.915  1.00  0.00    -0.411 C  
HETATM    3  H1  UNL     1     -13.313  12.119  63.186  1.00  0.00     0.000 HD 
HETATM    4  H2  UNL     1     -12.262  11.155  62.145  1.00  0.00     0.000 HD 
HETATM    5  O   UNL     1     -10.312  11.267  63.699  1.00  0.00    -0.341 OA 
ENDROOT
BRANCH   2   6
HETATM    6  C   UNL     1     -11.669  12.750  65.097  1.00  0.00    -0.360 C  
HETATM    7  C   UNL     1     -11.414  14.215  64.652  1.00  0.00    -0.392 C  
HETATM    8  C   UNL     1     -11.110  15.181  65.811  1.00  0.00    -0.330 C  
HETATM    9  C   UNL     1     -10.304  14.509  66.946  1.00  0.00    -0.264 C  
HETATM   10  C   UNL     1      -9.673  13.222  66.436  1.00  0.00    -0.276 C  
HETATM   11  N   UNL     1     -10.865  12.395  66.291  1.00  0.00    -0.258 N  
HETATM   12  C   UNL     1     -11.578  12.651  67.518  1.00  0.00    -0.359 C  
HETATM   13  N   UNL     1     -11.277  13.983  67.894  1.00  0.00    -0.262 N  
HETATM   14  O   UNL     1     -12.221  11.835  68.158  1.00  0.00    -0.507 OA 
BRANCH  13  15
HETATM   15  O   UNL     1     -10.833  14.045  69.242  1.00  0.00    -0.231 OA 
HETATM   16  S   UNL     1     -11.590  15.211  70.113  1.00  0.00    -0.318 S  
HETATM   17  O   UNL     1     -11.509  16.460  69.382  1.00  0.00    -0.265 OA 
HETATM   18  O   UNL     1     -11.127  15.106  71.479  1.00  0.00    -0.327 OA 
HETATM   19  O   UNL     1     -13.128  14.733  70.121  1.00  0.00    -0.155 OA 
ENDBRANCH  13  15
ENDBRANCH   2   6
TORSDOF 2
ENDMDL
MODEL       10
REMARK 921   NORMALIZED FREE ENERGY PREDICTED BY IDOCK:   -5.28 KCAL/MOL
REMARK 922        TOTAL FREE ENERGY PREDICTED BY IDOCK:   -6.27 KCAL/MOL
REMARK 923 INTER-LIGAND FREE ENERGY PREDICTED BY IDOCK:   -5.95 KCAL/MOL
REMARK 924 INTRA-LIGAND FREE ENERGY PREDICTED BY IDOCK:   -0.32 KCAL/MOL
REMARK 927      BINDING AFFINITY PREDICTED BY RF-SCORE:    0.00 PKD
ROOT
HETATM    1  N   UNL     1      -8.386  19.733  65.953  1.00  0.00    -0.336 N  
HETATM    2  C   UNL     1      -9.440  19.782  66.816  1.00  0.00    -0.382 C  
HETATM    3  H1  UNL     1      -8.053  18.836  65.601  1.00  0.00     0.000 HD 
HETATM    4  H2  UNL     1      -7.928  20.596  65.660  1.00  0.00     0.000 HD 
HETATM    5  O   UNL     1      -9.841  20.862  67.240  1.00  0.00    -0.444 OA 
ENDROOT
BRANCH   2   6
HETATM    6  C   UNL     1     -10.167  18.443  67.059  1.00  0.00    -0.379 C  
HETATM    7  C   UNL     1     -10.285  18.184  68.585  1.00  0.00    -0.382 C  
HETATM    8  C   UNL     1     -10.473  16.702  68.959  1.00  0.00    -0.328 C  
HETATM    9  C   UNL     1      -9.701  15.752  68.015  1.00  0.00    -0.212 C  
HETATM   10  C   UNL     1      -8.645  16.534  67.248  1.00  0.00    -0.184 C  
HETATM   11  N   UNL     1      -9.501  17.316  66.365  1.00  0.00    -0.266 N  
HETATM   12  C   UNL     1     -10.448  16.335  65.893  1.00  0.00    -0.345 C  
HETATM   13  N   UNL     1     -10.617  15.397  66.940  1.00  0.00    -0.304 N  
HETATM   14  O   UNL     1     -10.918  16.274  64.769  1.00  0.00    -0.631 OA 
BRANCH  13  15
HETATM   15  O   UNL     1     -10.437  14.068  66.469  1.00  0.00    -0.276 OA 
HETATM   16  S   UNL     1     -11.768  13.131  66.672  1.00  0.00    -0.388 S  
HETATM   17  O   UNL     1     -12.205  13.239  68.050  1.00  0.00    -0.275 OA 
HETATM   18  O   UNL     1     -11.494  11.846  66.067  1.00  0.00    -0.341 OA 
HETATM   19  O   UNL     1     -12.872  13.841  65.738  1.00  0.00    -0.482 OA 
ENDBRANCH  13  15
ENDBRANCH   2   6
TORSDOF 2
ENDMDL
MODEL       11
REMARK 921   NORMALIZED FREE ENERGY PREDICTED BY IDOCK:   -5.26 KCAL/MOL
REMARK 922        TOTAL FREE ENERGY PREDICTED BY IDOCK:   -6.24 KCAL/MOL
REMARK 923 INTER-LIGAND FREE ENERGY PREDICTED BY IDOCK:   -5.85 KCAL/MOL
REMARK 924 INTRA-LIGAND FREE ENERGY PREDICTED BY IDOCK:   -0.39 KCAL/MOL
REMARK 927      BINDING AFFINITY PREDICTED BY RF-SCORE:    0.00 PKD
ROOT
HETATM    1  N   UNL     1     -12.480  13.866  63.105  1.00  0.00    -1.079 N  
HETATM    2  C   UNL     1     -12.396  13.101  64.230  1.00  0.00    -0.351 C  
HETATM    3  H1  UNL     1     -11.845  14.652  62.972  1.00  0.00     0.000 HD 
HETATM    4  H2  UNL     1     -13.180  13.652  62.395  1.00  0.00     0.000 HD 
HETATM    5  O   UNL     1     -13.161  12.154  64.391  1.00  0.00    -0.758 OA 
ENDROOT
BRANCH   2   6
HETATM    6  C   UNL     1     -11.197  13.400  65.154  1.00  0.00    -0.305 C  
HETATM    7  C   UNL     1     -10.968  12.203  66.115  1.00  0.00    -0.335 C  
HETATM    8  C   UNL     1     -10.207  12.568  67.403  1.00  0.00    -0.217 C  
HETATM    9  C   UNL     1     -10.553  13.985  67.914  1.00  0.00    -0.244 C  
HETATM   10  C   UNL     1     -11.841  14.466  67.262  1.00  0.00    -0.405 C  
HETATM   11  N   UNL     1     -11.374  14.670  65.898  1.00  0.00    -0.337 N  
HETATM   12  C   UNL     1     -10.123  15.362  66.092  1.00  0.00    -0.305 C  
HETATM   13  N   UNL     1      -9.585  14.893  67.315  1.00  0.00    -0.212 N  
HETATM   14  O   UNL     1      -9.681  16.256  65.391  1.00  0.00    -0.473 OA 
BRANCH  13  15
HETATM   15  O   UNL     1      -9.232  15.975  68.166  1.00  0.00    -0.192 OA 
HETATM   16  S   UNL     1      -7.656  15.946  68.620  1.00  0.00    -0.174 S  
HETATM   17  O   UNL     1      -7.350  14.628  69.143  1.00  0.00    -0.130 OA 
HETATM   18  O   UNL     1      -7.402  17.141  69.393  1.00  0.00    -0.164 OA 
HETATM   19  O   UNL     1      -6.863  16.131  67.231  1.00  0.00    -0.167 OA 
ENDBRANCH  13  15
ENDBRANCH   2   6
TORSDOF 2
ENDMDL
MODEL       12
REMARK 921   NORMALIZED FREE ENERGY PREDICTED BY IDOCK:   -5.25 KCAL/MOL
REMARK 922        TOTAL FREE ENERGY PREDICTED BY IDOCK:   -6.23 KCAL/MOL
REMARK 923 INTER-LIGAND FREE ENERGY PREDICTED BY IDOCK:   -5.84 KCAL/MOL
REMARK 924 INTRA-LIGAND FREE ENERGY PREDICTED BY IDOCK:   -0.39 KCAL/MOL
REMARK 927      BINDING AFFINITY PREDICTED BY RF-SCORE:    0.00 PKD
ROOT
HETATM    1  N   UNL     1     -10.365  19.825  68.850  1.00  0.00    -0.594 N  
HETATM    2  C   UNL     1      -9.190  19.144  68.734  1.00  0.00    -0.359 C  
HETATM    3  H1  UNL     1     -11.235  19.406  68.522  1.00  0.00     0.000 HD 
HETATM    4  H2  UNL     1     -10.374  20.756  69.265  1.00  0.00     0.000 HD 
HETATM    5  O   UNL     1      -8.143  19.649  69.127  1.00  0.00    -0.294 OA 
ENDROOT
BRANCH   2   6
HETATM    6  C   UNL     1      -9.310  17.682  68.254  1.00  0.00    -0.290 C  
HETATM    7  C   UNL     1      -8.097  17.328  67.353  1.00  0.00    -0.205 C  
HETATM    8  C   UNL     1      -8.348  16.150  66.394  1.00  0.00    -0.357 C  
HETATM    9  C   UNL     1      -9.803  16.110  65.875  1.00  0.00    -0.353 C  
HETATM   10  C   UNL     1     -10.470  17.457  66.109  1.00  0.00    -0.284 C  
HETATM   11  N   UNL     1     -10.596  17.429  67.561  1.00  0.00    -0.352 N  
HETATM   12  C   UNL     1     -11.091  16.097  67.810  1.00  0.00    -0.254 C  
HETATM   13  N   UNL     1     -10.552  15.267  66.797  1.00  0.00    -0.299 N  
HETATM   14  O   UNL     1     -11.906  15.782  68.661  1.00  0.00    -0.385 OA 
BRANCH  13  15
HETATM   15  O   UNL     1     -11.572  14.510  66.160  1.00  0.00    -0.362 OA 
HETATM   16  S   UNL     1     -11.298  12.894  66.211  1.00  0.00    -0.341 S  
HETATM   17  O   UNL     1      -9.953  12.638  65.732  1.00  0.00    -0.263 OA 
HETATM   18  O   UNL     1     -12.445  12.238  65.624  1.00  0.00    -0.591 OA 
HETATM   19  O   UNL     1     -11.342  12.555  67.785  1.00  0.00    -0.257 OA 
ENDBRANCH  13  15
ENDBRANCH   2   6
TORSDOF 2
ENDMDL
MODEL       13
REMARK 921   NORMALIZED FREE ENERGY PREDICTED BY IDOCK:   -5.20 KCAL/MOL
REMARK 922        TOTAL FREE ENERGY PREDICTED BY IDOCK:   -6.18 KCAL/MOL
REMARK 923 INTER-LIGAND FREE ENERGY PREDICTED BY IDOCK:   -5.78 KCAL/MOL
REMARK 924 INTRA-LIGAND FREE ENERGY PREDICTED BY IDOCK:   -0.40 KCAL/MOL
REMARK 927      BINDING AFFINITY PREDICTED BY RF-SCORE:    0.00 PKD
ROOT
HETATM    1  N   UNL     1     -10.489  17.043  65.809  1.00  0.00    -0.316 N  
HETATM    2  C   UNL     1     -11.056  16.205  64.895  1.00  0.00    -0.325 C  
HETATM    3  H1  UNL     1     -10.002  16.662  66.620  1.00  0.00     0.000 HD 
HETATM    4  H2  UNL     1     -10.552  18.053  65.681  1.00  0.00     0.000 HD 
HETATM    5  O   UNL     1     -11.643  16.663  63.919  1.00  0.00    -1.204 OA 
ENDROOT
BRANCH   2   6
HETATM    6  C   UNL     1     -10.756  14.704  65.088  1.00  0.00    -0.414 C  
HETATM    7  C   UNL     1     -11.829  13.859  64.350  1.00  0.00    -0.456 C  
HETATM    8  C   UNL     1     -11.981  12.425  64.890  1.00  0.00    -0.458 C  
HETATM    9  C   UNL     1     -11.771  12.343  66.418  1.00  0.00    -0.391 C  
HETATM   10  C   UNL     1     -11.889  13.731  67.029  1.00  0.00    -0.410 C  
HETATM   11  N   UNL     1     -10.665  14.336  66.522  1.00  0.00    -0.294 N  
HETATM   12  C   UNL     1      -9.682  13.306  66.754  1.00  0.00    -0.258 C  
HETATM   13  N   UNL     1     -10.357  12.066  66.631  1.00  0.00    -0.206 N  
HETATM   14  O   UNL     1      -8.526  13.481  67.099  1.00  0.00    -0.196 OA 
BRANCH  13  15
HETATM   15  O   UNL     1     -10.113  11.239  67.761  1.00  0.00    -0.175 OA 
HETATM   16  S   UNL     1      -9.433   9.799  67.365  1.00  0.00    -0.155 S  
HETATM   17  O   UNL     1     -10.223   9.188  66.315  1.00  0.00    -0.276 OA 
HETATM   18  O   UNL     1      -9.146   9.099  68.597  1.00  0.00    -0.136 OA 
HETATM   19  O   UNL     1      -8.008  10.217  66.742  1.00  0.00    -0.113 OA 
ENDBRANCH  13  15
ENDBRANCH   2   6
TORSDOF 2
ENDMDL
MODEL       14
REMARK 921   NORMALIZED FREE ENERGY PREDICTED BY IDOCK:   -5.18 KCAL/MOL
REMARK 922        TOTAL FREE ENERGY PREDICTED BY IDOCK:   -6.16 KCAL/MOL
REMARK 923 INTER-LIGAND FREE ENERGY PREDICTED BY IDOCK:   -5.77 KCAL/MOL
REMARK 924 INTRA-LIGAND FREE ENERGY PREDICTED BY IDOCK:   -0.39 KCAL/MOL
REMARK 927      BINDING AFFINITY PREDICTED BY RF-SCORE:    0.00 PKD
ROOT
HETATM    1  N   UNL     1     -10.945  11.274  63.163  1.00  0.00    -0.838 N  
HETATM    2  C   UNL     1     -10.277  10.908  64.293  1.00  0.00    -0.364 C  
HETATM    3  H1  UNL     1     -11.460  12.154  63.135  1.00  0.00     0.000 HD 
HETATM    4  H2  UNL     1     -10.930  10.667  62.344  1.00  0.00     0.000 HD 
HETATM    5  O   UNL     1      -9.657   9.849  64.328  1.00  0.00    -0.282 OA 
ENDROOT
BRANCH   2   6
HETATM    6  C   UNL     1     -10.219  11.972  65.410  1.00  0.00    -0.263 C  
HETATM    7  C   UNL     1      -8.939  11.764  66.262  1.00  0.00    -0.176 C  
HETATM    8  C   UNL     1      -9.023  12.361  67.679  1.00  0.00    -0.183 C  
HETATM    9  C   UNL     1     -10.443  12.260  68.280  1.00  0.00    -0.226 C  
HETATM   10  C   UNL     1     -11.260  11.240  67.502  1.00  0.00    -0.291 C  
HETATM   11  N   UNL     1     -11.441  11.962  66.249  1.00  0.00    -0.344 N  
HETATM   12  C   UNL     1     -11.800  13.286  66.697  1.00  0.00    -0.395 C  
HETATM   13  N   UNL     1     -11.134  13.493  67.929  1.00  0.00    -0.256 N  
HETATM   14  O   UNL     1     -12.610  14.027  66.166  1.00  0.00    -0.468 OA 
BRANCH  13  15
HETATM   15  O   UNL     1     -12.040  13.932  68.932  1.00  0.00    -0.351 OA 
HETATM   16  S   UNL     1     -11.585  15.342  69.634  1.00  0.00    -0.357 S  
HETATM   17  O   UNL     1     -10.205  15.221  70.064  1.00  0.00    -0.269 OA 
HETATM   18  O   UNL     1     -12.630  15.728  70.556  1.00  0.00    -0.421 OA 
HETATM   19  O   UNL     1     -11.642  16.400  68.421  1.00  0.00    -0.286 OA 
ENDBRANCH  13  15
ENDBRANCH   2   6
TORSDOF 2
ENDMDL
MODEL       15
REMARK 921   NORMALIZED FREE ENERGY PREDICTED BY IDOCK:   -5.14 KCAL/MOL
REMARK 922        TOTAL FREE ENERGY PREDICTED BY IDOCK:   -6.12 KCAL/MOL
REMARK 923 INTER-LIGAND FREE ENERGY PREDICTED BY IDOCK:   -5.72 KCAL/MOL
REMARK 924 INTRA-LIGAND FREE ENERGY PREDICTED BY IDOCK:   -0.39 KCAL/MOL
REMARK 927      BINDING AFFINITY PREDICTED BY RF-SCORE:    0.00 PKD
ROOT
HETATM    1  N   UNL     1     -12.920  15.593  69.963  1.00  0.00    -0.638 N  
HETATM    2  C   UNL     1     -12.437  14.349  70.240  1.00  0.00    -0.354 C  
HETATM    3  H1  UNL     1     -12.974  15.918  68.998  1.00  0.00     0.000 HD 
HETATM    4  H2  UNL     1     -13.228  16.199  70.722  1.00  0.00     0.000 HD 
HETATM    5  O   UNL     1     -12.371  13.957  71.401  1.00  0.00    -0.348 OA 
ENDROOT
BRANCH   2   6
HETATM    6  C   UNL     1     -12.161  13.451  69.015  1.00  0.00    -0.259 C  
HETATM    7  C   UNL     1     -11.620  12.075  69.489  1.00  0.00    -0.389 C  
HETATM    8  C   UNL     1     -10.811  11.316  68.421  1.00  0.00    -0.248 C  
HETATM    9  C   UNL     1      -9.988  12.263  67.519  1.00  0.00    -0.199 C  
HETATM   10  C   UNL     1      -9.866  13.627  68.181  1.00  0.00    -0.236 C  
HETATM   11  N   UNL     1     -11.239  14.096  68.050  1.00  0.00    -0.269 N  
HETATM   12  C   UNL     1     -11.561  13.757  66.686  1.00  0.00    -0.369 C  
HETATM   13  N   UNL     1     -10.829  12.585  66.375  1.00  0.00    -0.255 N  
HETATM   14  O   UNL     1     -12.242  14.421  65.923  1.00  0.00    -0.392 OA 
BRANCH  13  15
HETATM   15  O   UNL     1     -10.095  12.747  65.169  1.00  0.00    -0.278 OA 
HETATM   16  S   UNL     1     -10.406  11.572  64.067  1.00  0.00    -0.395 S  
HETATM   17  O   UNL     1     -10.253  10.282  64.711  1.00  0.00    -0.329 OA 
HETATM   18  O   UNL     1      -9.682  11.903  62.860  1.00  0.00    -0.349 OA 
HETATM   19  O   UNL     1     -11.967  11.781  63.726  1.00  0.00    -0.418 OA 
ENDBRANCH  13  15
ENDBRANCH   2   6
TORSDOF 2
ENDMDL
MODEL       16
REMARK 921   NORMALIZED FREE ENERGY PREDICTED BY IDOCK:   -5.14 KCAL/MOL
REMARK 922        TOTAL FREE ENERGY PREDICTED BY IDOCK:   -6.11 KCAL/MOL
REMARK 923 INTER-LIGAND FREE ENERGY PREDICTED BY IDOCK:   -5.87 KCAL/MOL
REMARK 924 INTRA-LIGAND FREE ENERGY PREDICTED BY IDOCK:   -0.24 KCAL/MOL
REMARK 927      BINDING AFFINITY PREDICTED BY RF-SCORE:    0.00 PKD
ROOT
HETATM    1  N   UNL     1      -9.689  10.341  70.072  1.00  0.00    -0.405 N  
HETATM    2  C   UNL     1     -10.025   9.551  69.013  1.00  0.00    -0.180 C  
HETATM    3  H1  UNL     1      -9.721  11.356  69.984  1.00  0.00     0.000 HD 
HETATM    4  H2  UNL     1      -9.403   9.915  70.953  1.00  0.00     0.000 HD 
HETATM    5  O   UNL     1      -9.986   8.329  69.117  1.00  0.00    -0.185 OA 
ENDROOT
BRANCH   2   6
HETATM    6  C   UNL     1     -10.606  10.288  67.787  1.00  0.00    -0.250 C  
HETATM    7  C   UNL     1     -10.219   9.528  66.490  1.00  0.00    -0.307 C  
HETATM    8  C   UNL     1     -10.244  10.398  65.220  1.00  0.00    -0.332 C  
HETATM    9  C   UNL     1      -9.798  11.853  65.491  1.00  0.00    -0.232 C  
HETATM   10  C   UNL     1      -9.063  11.926  66.821  1.00  0.00    -0.197 C  
HETATM   11  N   UNL     1     -10.175  11.706  67.737  1.00  0.00    -0.183 N  
HETATM   12  C   UNL     1     -11.202  12.564  67.201  1.00  0.00    -0.300 C  
HETATM   13  N   UNL     1     -11.004  12.609  65.799  1.00  0.00    -0.274 N  
HETATM   14  O   UNL     1     -12.008  13.211  67.849  1.00  0.00    -0.349 OA 
BRANCH  13  15
HETATM   15  O   UNL     1     -10.958  13.950  65.333  1.00  0.00    -0.300 OA 
HETATM   16  S   UNL     1     -12.235  14.342  64.381  1.00  0.00    -0.392 S  
HETATM   17  O   UNL     1     -12.367  13.336  63.346  1.00  0.00    -0.726 OA 
HETATM   18  O   UNL     1     -12.124  15.747  64.057  1.00  0.00    -0.612 OA 
HETATM   19  O   UNL     1     -13.497  14.208  65.374  1.00  0.00    -0.648 OA 
ENDBRANCH  13  15
ENDBRANCH   2   6
TORSDOF 2
ENDMDL
MODEL       17
REMARK 921   NORMALIZED FREE ENERGY PREDICTED BY IDOCK:   -5.13 KCAL/MOL
REMARK 922        TOTAL FREE ENERGY PREDICTED BY IDOCK:   -6.10 KCAL/MOL
REMARK 923 INTER-LIGAND FREE ENERGY PREDICTED BY IDOCK:   -5.72 KCAL/MOL
REMARK 924 INTRA-LIGAND FREE ENERGY PREDICTED BY IDOCK:   -0.38 KCAL/MOL
REMARK 927      BINDING AFFINITY PREDICTED BY RF-SCORE:    0.00 PKD
ROOT
HETATM    1  N   UNL     1      -5.957  18.771  69.485  1.00  0.00    -0.253 N  
HETATM    2  C   UNL     1      -6.596  19.622  68.633  1.00  0.00    -0.287 C  
HETATM    3  H1  UNL     1      -6.182  17.776  69.480  1.00  0.00     0.000 HD 
HETATM    4  H2  UNL     1      -5.253  19.130  70.129  1.00  0.00     0.000 HD 
HETATM    5  O   UNL     1      -6.325  20.819  68.639  1.00  0.00    -0.312 OA 
ENDROOT
BRANCH   2   6
HETATM    6  C   UNL     1      -7.513  18.956  67.585  1.00  0.00    -0.226 C  
HETATM    7  C   UNL     1      -8.238  20.050  66.757  1.00  0.00    -0.362 C  
HETATM    8  C   UNL     1      -9.541  19.572  66.089  1.00  0.00    -0.431 C  
HETATM    9  C   UNL     1     -10.306  18.545  66.953  1.00  0.00    -0.397 C  
HETATM   10  C   UNL     1      -9.799  18.598  68.386  1.00  0.00    -0.384 C  
HETATM   11  N   UNL     1      -8.475  18.016  68.209  1.00  0.00    -0.280 N  
HETATM   12  C   UNL     1      -8.742  16.877  67.365  1.00  0.00    -0.203 C  
HETATM   13  N   UNL     1      -9.841  17.227  66.544  1.00  0.00    -0.285 N  
HETATM   14  O   UNL     1      -8.193  15.789  67.433  1.00  0.00    -0.152 OA 
BRANCH  13  15
HETATM   15  O   UNL     1     -10.856  16.234  66.600  1.00  0.00    -0.247 OA 
HETATM   16  S   UNL     1     -11.177  15.561  65.139  1.00  0.00    -0.277 S  
HETATM   17  O   UNL     1     -11.410  16.625  64.182  1.00  0.00    -1.141 OA 
HETATM   18  O   UNL     1     -12.144  14.507  65.345  1.00  0.00    -0.365 OA 
HETATM   19  O   UNL     1      -9.793  14.832  64.751  1.00  0.00    -0.119 OA 
ENDBRANCH  13  15
ENDBRANCH   2   6
TORSDOF 2
ENDMDL
MODEL       18
REMARK 921   NORMALIZED FREE ENERGY PREDICTED BY IDOCK:   -5.11 KCAL/MOL
REMARK 922        TOTAL FREE ENERGY PREDICTED BY IDOCK:   -6.08 KCAL/MOL
REMARK 923 INTER-LIGAND FREE ENERGY PREDICTED BY IDOCK:   -5.68 KCAL/MOL
REMARK 924 INTRA-LIGAND FREE ENERGY PREDICTED BY IDOCK:   -0.40 KCAL/MOL
REMARK 927      BINDING AFFINITY PREDICTED BY RF-SCORE:    0.00 PKD
ROOT
HETATM    1  N   UNL     1      -7.303  14.452  69.920  1.00  0.00    -0.387 N  
HETATM    2  C   UNL     1      -7.652  15.582  69.242  1.00  0.00    -0.221 C  
HETATM    3  H1  UNL     1      -7.721  13.556  69.672  1.00  0.00     0.000 HD 
HETATM    4  H2  UNL     1      -6.621  14.503  70.678  1.00  0.00     0.000 HD 
HETATM    5  O   UNL     1      -7.148  16.661  69.541  1.00  0.00    -0.212 OA 
ENDROOT
BRANCH   2   6
HETATM    6  C   UNL     1      -8.554  15.369  68.009  1.00  0.00    -0.151 C  
HETATM    7  C   UNL     1      -9.291  16.692  67.668  1.00  0.00    -0.224 C  
HETATM    8  C   UNL     1     -10.584  16.500  66.854  1.00  0.00    -0.238 C  
HETATM    9  C   UNL     1     -11.338  15.207  67.238  1.00  0.00    -0.303 C  
HETATM   10  C   UNL     1     -10.838  14.700  68.582  1.00  0.00    -0.255 C  
HETATM   11  N   UNL     1      -9.505  14.249  68.204  1.00  0.00    -0.198 N  
HETATM   12  C   UNL     1      -9.751  13.529  66.978  1.00  0.00    -0.251 C  
HETATM   13  N   UNL     1     -10.852  14.160  66.350  1.00  0.00    -0.301 N  
HETATM   14  O   UNL     1      -9.187  12.509  66.620  1.00  0.00    -0.222 OA 
BRANCH  13  15
HETATM   15  O   UNL     1     -11.853  13.213  66.002  1.00  0.00    -0.366 OA 
HETATM   16  S   UNL     1     -12.254  13.260  64.412  1.00  0.00    -0.379 S  
HETATM   17  O   UNL     1     -12.555  14.631  64.051  1.00  0.00    -0.819 OA 
HETATM   18  O   UNL     1     -13.198  12.192  64.168  1.00  0.00    -0.740 OA 
HETATM   19  O   UNL     1     -10.890  12.833  63.668  1.00  0.00    -0.412 OA 
ENDBRANCH  13  15
ENDBRANCH   2   6
TORSDOF 2
ENDMDL
MODEL       19
REMARK 921   NORMALIZED FREE ENERGY PREDICTED BY IDOCK:   -5.09 KCAL/MOL
REMARK 922        TOTAL FREE ENERGY PREDICTED BY IDOCK:   -6.05 KCAL/MOL
REMARK 923 INTER-LIGAND FREE ENERGY PREDICTED BY IDOCK:   -5.76 KCAL/MOL
REMARK 924 INTRA-LIGAND FREE ENERGY PREDICTED BY IDOCK:   -0.29 KCAL/MOL
REMARK 927      BINDING AFFINITY PREDICTED BY RF-SCORE:    0.00 PKD
ROOT
HETATM    1  N   UNL     1     -12.096  10.815  69.004  1.00  0.00    -0.510 N  
HETATM    2  C   UNL     1     -11.234  10.652  67.961  1.00  0.00    -0.307 C  
HETATM    3  H1  UNL     1     -12.319  11.750  69.343  1.00  0.00     0.000 HD 
HETATM    4  H2  UNL     1     -12.518   9.999  69.447  1.00  0.00     0.000 HD 
HETATM    5  O   UNL     1     -10.964   9.526  67.553  1.00  0.00    -0.241 OA 
ENDROOT
BRANCH   2   6
HETATM    6  C   UNL     1     -10.788  11.949  67.254  1.00  0.00    -0.247 C  
HETATM    7  C   UNL     1      -9.239  12.048  67.274  1.00  0.00    -0.182 C  
HETATM    8  C   UNL     1      -8.699  13.481  67.115  1.00  0.00    -0.222 C  
HETATM    9  C   UNL     1      -9.605  14.533  67.794  1.00  0.00    -0.215 C  
HETATM   10  C   UNL     1     -10.540  13.849  68.779  1.00  0.00    -0.246 C  
HETATM   11  N   UNL     1     -11.419  13.151  67.850  1.00  0.00    -0.288 N  
HETATM   12  C   UNL     1     -11.699  14.161  66.859  1.00  0.00    -0.414 C  
HETATM   13  N   UNL     1     -10.550  14.985  66.782  1.00  0.00    -0.295 N  
HETATM   14  O   UNL     1     -12.764  14.332  66.289  1.00  0.00    -0.360 OA 
BRANCH  13  15
HETATM   15  O   UNL     1     -10.896  16.357  66.913  1.00  0.00    -0.249 OA 
HETATM   16  S   UNL     1     -10.279  17.290  65.712  1.00  0.00    -0.113 S  
HETATM   17  O   UNL     1      -8.859  17.022  65.602  1.00  0.00    -0.480 OA 
HETATM   18  O   UNL     1     -10.781  18.633  65.902  1.00  0.00    -0.420 OA 
HETATM   19  O   UNL     1     -11.001  16.723  64.389  1.00  0.00    -0.974 OA 
ENDBRANCH  13  15
ENDBRANCH   2   6
TORSDOF 2
ENDMDL
MODEL       20
REMARK 921   NORMALIZED FREE ENERGY PREDICTED BY IDOCK:   -5.09 KCAL/MOL
REMARK 922        TOTAL FREE ENERGY PREDICTED BY IDOCK:   -6.05 KCAL/MOL
REMARK 923 INTER-LIGAND FREE ENERGY PREDICTED BY IDOCK:   -5.73 KCAL/MOL
REMARK 924 INTRA-LIGAND FREE ENERGY PREDICTED BY IDOCK:   -0.33 KCAL/MOL
REMARK 927      BINDING AFFINITY PREDICTED BY RF-SCORE:    0.00 PKD
ROOT
HETATM    1  N   UNL     1     -12.296  14.142  68.512  1.00  0.00    -0.541 N  
HETATM    2  C   UNL     1     -11.858  14.448  67.258  1.00  0.00    -0.405 C  
HETATM    3  H1  UNL     1     -11.752  14.424  69.328  1.00  0.00     0.000 HD 
HETATM    4  H2  UNL     1     -13.168  13.629  68.635  1.00  0.00     0.000 HD 
HETATM    5  O   UNL     1     -12.512  14.108  66.276  1.00  0.00    -0.466 OA 
ENDROOT
BRANCH   2   6
HETATM    6  C   UNL     1     -10.623  15.371  67.188  1.00  0.00    -0.305 C  
HETATM    7  C   UNL     1      -9.512  14.827  68.124  1.00  0.00    -0.208 C  
HETATM    8  C   UNL     1      -8.488  15.888  68.568  1.00  0.00    -0.184 C  
HETATM    9  C   UNL     1      -9.128  17.281  68.766  1.00  0.00    -0.232 C  
HETATM   10  C   UNL     1     -10.639  17.141  68.880  1.00  0.00    -0.314 C  
HETATM   11  N   UNL     1     -10.964  16.778  67.507  1.00  0.00    -0.205 N  
HETATM   12  C   UNL     1     -10.178  17.712  66.738  1.00  0.00    -0.335 C  
HETATM   13  N   UNL     1      -9.010  17.979  67.493  1.00  0.00    -0.248 N  
HETATM   14  O   UNL     1     -10.517  18.248  65.696  1.00  0.00    -0.627 OA 
BRANCH  13  15
HETATM   15  O   UNL     1      -8.806  19.378  67.640  1.00  0.00    -0.296 OA 
HETATM   16  S   UNL     1      -7.329  19.867  67.120  1.00  0.00    -0.256 S  
HETATM   17  O   UNL     1      -6.320  19.031  67.740  1.00  0.00    -0.205 OA 
HETATM   18  O   UNL     1      -7.284  21.308  67.228  1.00  0.00    -0.508 OA 
HETATM   19  O   UNL     1      -7.357  19.535  65.544  1.00  0.00    -0.392 OA 
ENDBRANCH  13  15
ENDBRANCH   2   6
TORSDOF 2
ENDMDL
MODEL       21
REMARK 921   NORMALIZED FREE ENERGY PREDICTED BY IDOCK:   -5.08 KCAL/MOL
REMARK 922        TOTAL FREE ENERGY PREDICTED BY IDOCK:   -6.05 KCAL/MOL
REMARK 923 INTER-LIGAND FREE ENERGY PREDICTED BY IDOCK:   -5.65 KCAL/MOL
REMARK 924 INTRA-LIGAND FREE ENERGY PREDICTED BY IDOCK:   -0.39 KCAL/MOL
REMARK 927      BINDING AFFINITY PREDICTED BY RF-SCORE:    0.00 PKD
ROOT
HETATM    1  N   UNL     1     -12.451  14.340  63.443  1.00  0.00    -1.101 N  
HETATM    2  C   UNL     1     -12.253  13.011  63.671  1.00  0.00    -0.491 C  
HETATM    3  H1  UNL     1     -11.817  15.029  63.847  1.00  0.00     0.000 HD 
HETATM    4  H2  UNL     1     -13.236  14.646  62.868  1.00  0.00     0.000 HD 
HETATM    5  O   UNL     1     -13.017  12.181  63.185  1.00  0.00    -0.659 OA 
ENDROOT
BRANCH   2   6
HETATM    6  C   UNL     1     -10.947  12.646  64.406  1.00  0.00    -0.351 C  
HETATM    7  C   UNL     1     -10.658  11.130  64.234  1.00  0.00    -0.425 C  
HETATM    8  C   UNL     1      -9.742  10.538  65.321  1.00  0.00    -0.328 C  
HETATM    9  C   UNL     1      -9.972  11.185  66.706  1.00  0.00    -0.208 C  
HETATM   10  C   UNL     1     -11.305  11.917  66.716  1.00  0.00    -0.330 C  
HETATM   11  N   UNL     1     -10.988  13.034  65.836  1.00  0.00    -0.269 N  
HETATM   12  C   UNL     1      -9.696  13.459  66.318  1.00  0.00    -0.272 C  
HETATM   13  N   UNL     1      -9.042  12.301  66.804  1.00  0.00    -0.208 N  
HETATM   14  O   UNL     1      -9.302  14.611  66.392  1.00  0.00    -0.279 OA 
BRANCH  13  15
HETATM   15  O   UNL     1      -8.553  12.507  68.122  1.00  0.00    -0.177 OA 
HETATM   16  S   UNL     1      -6.945  12.215  68.262  1.00  0.00    -0.089 S  
HETATM   17  O   UNL     1      -6.661  10.909  67.698  1.00  0.00    -0.066 OA 
HETATM   18  O   UNL     1      -6.555  12.553  69.612  1.00  0.00    -0.093 OA 
HETATM   19  O   UNL     1      -6.278  13.329  67.309  1.00  0.00    -0.309 OA 
ENDBRANCH  13  15
ENDBRANCH   2   6
TORSDOF 2
ENDMDL
MODEL       22
REMARK 921   NORMALIZED FREE ENERGY PREDICTED BY IDOCK:   -5.05 KCAL/MOL
REMARK 922        TOTAL FREE ENERGY PREDICTED BY IDOCK:   -6.02 KCAL/MOL
REMARK 923 INTER-LIGAND FREE ENERGY PREDICTED BY IDOCK:   -5.66 KCAL/MOL
REMARK 924 INTRA-LIGAND FREE ENERGY PREDICTED BY IDOCK:   -0.36 KCAL/MOL
REMARK 927      BINDING AFFINITY PREDICTED BY RF-SCORE:    0.00 PKD
ROOT
HETATM    1  N   UNL     1     -10.947   7.541  69.525  1.00  0.00    -0.404 N  
HETATM    2  C   UNL     1      -9.983   8.289  68.918  1.00  0.00    -0.186 C  
HETATM    3  H1  UNL     1     -11.923   7.634  69.243  1.00  0.00     0.000 HD 
HETATM    4  H2  UNL     1     -10.693   6.886  70.265  1.00  0.00     0.000 HD 
HETATM    5  O   UNL     1      -8.809   8.177  69.259  1.00  0.00    -0.142 OA 
ENDROOT
BRANCH   2   6
HETATM    6  C   UNL     1     -10.447   9.117  67.702  1.00  0.00    -0.261 C  
HETATM    7  C   UNL     1      -9.723   8.617  66.424  1.00  0.00    -0.333 C  
HETATM    8  C   UNL     1      -9.660   9.655  65.289  1.00  0.00    -0.347 C  
HETATM    9  C   UNL     1      -9.505  11.099  65.816  1.00  0.00    -0.221 C  
HETATM   10  C   UNL     1      -9.037  11.071  67.264  1.00  0.00    -0.138 C  
HETATM   11  N   UNL     1     -10.244  10.571  67.910  1.00  0.00    -0.175 N  
HETATM   12  C   UNL     1     -11.283  11.356  67.290  1.00  0.00    -0.304 C  
HETATM   13  N   UNL     1     -10.850  11.634  65.971  1.00  0.00    -0.285 N  
HETATM   14  O   UNL     1     -12.283  11.786  67.841  1.00  0.00    -0.538 OA 
BRANCH  13  15
HETATM   15  O   UNL     1     -10.935  13.025  65.688  1.00  0.00    -0.271 OA 
HETATM   16  S   UNL     1     -11.910  13.362  64.413  1.00  0.00    -0.429 S  
HETATM   17  O   UNL     1     -11.511  12.531  63.294  1.00  0.00    -0.466 OA 
HETATM   18  O   UNL     1     -11.990  14.800  64.293  1.00  0.00    -0.441 OA 
HETATM   19  O   UNL     1     -13.361  12.870  64.911  1.00  0.00    -0.716 OA 
ENDBRANCH  13  15
ENDBRANCH   2   6
TORSDOF 2
ENDMDL
MODEL       23
REMARK 921   NORMALIZED FREE ENERGY PREDICTED BY IDOCK:   -5.05 KCAL/MOL
REMARK 922        TOTAL FREE ENERGY PREDICTED BY IDOCK:   -6.01 KCAL/MOL
REMARK 923 INTER-LIGAND FREE ENERGY PREDICTED BY IDOCK:   -5.60 KCAL/MOL
REMARK 924 INTRA-LIGAND FREE ENERGY PREDICTED BY IDOCK:   -0.41 KCAL/MOL
REMARK 927      BINDING AFFINITY PREDICTED BY RF-SCORE:    0.00 PKD
ROOT
HETATM    1  N   UNL     1     -12.645  14.662  63.714  1.00  0.00    -0.988 N  
HETATM    2  C   UNL     1     -11.567  15.408  64.084  1.00  0.00    -0.071 C  
HETATM    3  H1  UNL     1     -12.639  13.651  63.849  1.00  0.00     0.000 HD 
HETATM    4  H2  UNL     1     -13.460  15.115  63.301  1.00  0.00     0.000 HD 
HETATM    5  O   UNL     1     -11.573  16.625  63.922  1.00  0.00    -1.204 OA 
ENDROOT
BRANCH   2   6
HETATM    6  C   UNL     1     -10.463  14.653  64.854  1.00  0.00    -0.387 C  
HETATM    7  C   UNL     1     -10.822  13.145  64.935  1.00  0.00    -0.348 C  
HETATM    8  C   UNL     1     -10.138  12.397  66.094  1.00  0.00    -0.265 C  
HETATM    9  C   UNL     1      -9.977  13.278  67.353  1.00  0.00    -0.233 C  
HETATM   10  C   UNL     1     -10.898  14.485  67.258  1.00  0.00    -0.297 C  
HETATM   11  N   UNL     1     -10.230  15.231  66.199  1.00  0.00    -0.286 N  
HETATM   12  C   UNL     1      -8.842  15.156  66.587  1.00  0.00    -0.286 C  
HETATM   13  N   UNL     1      -8.673  13.917  67.252  1.00  0.00    -0.207 N  
HETATM   14  O   UNL     1      -8.014  16.042  66.462  1.00  0.00    -0.266 OA 
BRANCH  13  15
HETATM   15  O   UNL     1      -8.038  14.097  68.511  1.00  0.00    -0.137 OA 
HETATM   16  S   UNL     1      -6.666  13.212  68.669  1.00  0.00    -0.102 S  
HETATM   17  O   UNL     1      -6.960  11.836  68.320  1.00  0.00    -0.067 OA 
HETATM   18  O   UNL     1      -6.069  13.556  69.940  1.00  0.00    -0.121 OA 
HETATM   19  O   UNL     1      -5.696  13.821  67.536  1.00  0.00    -0.334 OA 
ENDBRANCH  13  15
ENDBRANCH   2   6
TORSDOF 2
ENDMDL
MODEL       24
REMARK 921   NORMALIZED FREE ENERGY PREDICTED BY IDOCK:   -4.99 KCAL/MOL
REMARK 922        TOTAL FREE ENERGY PREDICTED BY IDOCK:   -5.95 KCAL/MOL
REMARK 923 INTER-LIGAND FREE ENERGY PREDICTED BY IDOCK:   -5.55 KCAL/MOL
REMARK 924 INTRA-LIGAND FREE ENERGY PREDICTED BY IDOCK:   -0.39 KCAL/MOL
REMARK 927      BINDING AFFINITY PREDICTED BY RF-SCORE:    0.00 PKD
ROOT
HETATM    1  N   UNL     1     -10.512  17.388  65.989  1.00  0.00    -0.334 N  
HETATM    2  C   UNL     1     -10.967  16.414  65.151  1.00  0.00    -0.232 C  
HETATM    3  H1  UNL     1     -10.094  17.139  66.885  1.00  0.00     0.000 HD 
HETATM    4  H2  UNL     1     -10.592  18.369  65.720  1.00  0.00     0.000 HD 
HETATM    5  O   UNL     1     -11.471  16.714  64.073  1.00  0.00    -1.192 OA 
ENDROOT
BRANCH   2   6
HETATM    6  C   UNL     1     -10.644  14.965  65.573  1.00  0.00    -0.357 C  
HETATM    7  C   UNL     1     -10.828  14.016  64.359  1.00  0.00    -0.265 C  
HETATM    8  C   UNL     1     -11.076  12.545  64.743  1.00  0.00    -0.338 C  
HETATM    9  C   UNL     1     -11.908  12.405  66.038  1.00  0.00    -0.395 C  
HETATM   10  C   UNL     1     -12.605  13.721  66.347  1.00  0.00    -0.259 C  
HETATM   11  N   UNL     1     -11.457  14.531  66.734  1.00  0.00    -0.357 N  
HETATM   12  C   UNL     1     -10.725  13.646  67.606  1.00  0.00    -0.245 C  
HETATM   13  N   UNL     1     -10.957  12.330  67.139  1.00  0.00    -0.250 N  
HETATM   14  O   UNL     1     -10.120  13.971  68.614  1.00  0.00    -0.230 OA 
BRANCH  13  15
HETATM   15  O   UNL     1     -11.390  11.482  68.194  1.00  0.00    -0.248 OA 
HETATM   16  S   UNL     1     -10.455  10.145  68.366  1.00  0.00    -0.221 S  
HETATM   17  O   UNL     1     -10.329   9.500  67.073  1.00  0.00    -0.238 OA 
HETATM   18  O   UNL     1     -10.934   9.424  69.524  1.00  0.00    -0.234 OA 
HETATM   19  O   UNL     1      -9.016  10.743  68.771  1.00  0.00    -0.158 OA 
ENDBRANCH  13  15
ENDBRANCH   2   6
TORSDOF 2
ENDMDL
MODEL       25
REMARK 921   NORMALIZED FREE ENERGY PREDICTED BY IDOCK:   -4.99 KCAL/MOL
REMARK 922        TOTAL FREE ENERGY PREDICTED BY IDOCK:   -5.95 KCAL/MOL
REMARK 923 INTER-LIGAND FREE ENERGY PREDICTED BY IDOCK:   -5.62 KCAL/MOL
REMARK 924 INTRA-LIGAND FREE ENERGY PREDICTED BY IDOCK:   -0.32 KCAL/MOL
REMARK 927      BINDING AFFINITY PREDICTED BY RF-SCORE:    0.00 PKD
ROOT
HETATM    1  N   UNL     1     -11.086  12.248  63.013  1.00  0.00    -0.631 N  
HETATM    2  C   UNL     1     -11.830  12.949  63.916  1.00  0.00    -0.473 C  
HETATM    3  H1  UNL     1     -10.485  11.486  63.326  1.00  0.00     0.000 HD 
HETATM    4  H2  UNL     1     -11.131  12.487  62.023  1.00  0.00     0.000 HD 
HETATM    5  O   UNL     1     -12.553  13.867  63.540  1.00  0.00    -0.842 OA 
ENDROOT
BRANCH   2   6
HETATM    6  C   UNL     1     -11.823  12.398  65.358  1.00  0.00    -0.406 C  
HETATM    7  C   UNL     1     -12.401  13.465  66.326  1.00  0.00    -0.410 C  
HETATM    8  C   UNL     1     -11.961  13.289  67.791  1.00  0.00    -0.356 C  
HETATM    9  C   UNL     1     -10.516  12.756  67.914  1.00  0.00    -0.220 C  
HETATM   10  C   UNL     1      -9.782  12.946  66.595  1.00  0.00    -0.254 C  
HETATM   11  N   UNL     1     -10.471  11.957  65.777  1.00  0.00    -0.247 N  
HETATM   12  C   UNL     1     -10.523  10.808  66.647  1.00  0.00    -0.246 C  
HETATM   13  N   UNL     1     -10.610  11.303  67.970  1.00  0.00    -0.186 N  
HETATM   14  O   UNL     1     -10.400   9.643  66.306  1.00  0.00    -0.239 OA 
BRANCH  13  15
HETATM   15  O   UNL     1      -9.623  10.711  68.803  1.00  0.00    -0.171 OA 
HETATM   16  S   UNL     1     -10.264   9.801  70.009  1.00  0.00    -0.276 S  
HETATM   17  O   UNL     1     -11.261  10.591  70.704  1.00  0.00    -0.316 OA 
HETATM   18  O   UNL     1      -9.167   9.178  70.716  1.00  0.00    -0.224 OA 
HETATM   19  O   UNL     1     -11.021   8.617  69.222  1.00  0.00    -0.124 OA 
ENDBRANCH  13  15
ENDBRANCH   2   6
TORSDOF 2
ENDMDL
MODEL       26
REMARK 921   NORMALIZED FREE ENERGY PREDICTED BY IDOCK:   -4.95 KCAL/MOL
REMARK 922        TOTAL FREE ENERGY PREDICTED BY IDOCK:   -5.90 KCAL/MOL
REMARK 923 INTER-LIGAND FREE ENERGY PREDICTED BY IDOCK:   -5.57 KCAL/MOL
REMARK 924 INTRA-LIGAND FREE ENERGY PREDICTED BY IDOCK:   -0.33 KCAL/MOL
REMARK 927      BINDING AFFINITY PREDICTED BY RF-SCORE:    0.00 PKD
ROOT
HETATM    1  N   UNL     1     -11.741  15.331  64.119  1.00  0.00    -0.816 N  
HETATM    2  C   UNL     1     -12.188  14.047  64.022  1.00  0.00    -0.355 C  
HETATM    3  H1  UNL     1     -11.369  15.679  65.002  1.00  0.00     0.000 HD 
HETATM    4  H2  UNL     1     -11.779  15.946  63.306  1.00  0.00     0.000 HD 
HETATM    5  O   UNL     1     -12.637  13.628  62.959  1.00  0.00    -0.729 OA 
ENDROOT
BRANCH   2   6
HETATM    6  C   UNL     1     -11.928  13.154  65.254  1.00  0.00    -0.398 C  
HETATM    7  C   UNL     1     -12.371  13.899  66.541  1.00  0.00    -0.447 C  
HETATM    8  C   UNL     1     -11.692  13.392  67.826  1.00  0.00    -0.394 C  
HETATM    9  C   UNL     1     -10.230  12.950  67.588  1.00  0.00    -0.220 C  
HETATM   10  C   UNL     1      -9.730  13.518  66.268  1.00  0.00    -0.277 C  
HETATM   11  N   UNL     1     -10.513  12.720  65.335  1.00  0.00    -0.281 N  
HETATM   12  C   UNL     1     -10.387  11.388  65.874  1.00  0.00    -0.250 C  
HETATM   13  N   UNL     1     -10.270  11.528  67.279  1.00  0.00    -0.199 N  
HETATM   14  O   UNL     1     -10.286  10.359  65.228  1.00  0.00    -0.299 OA 
BRANCH  13  15
HETATM   15  O   UNL     1      -9.142  10.817  67.770  1.00  0.00    -0.148 OA 
HETATM   16  S   UNL     1      -9.536   9.685  68.891  1.00  0.00    -0.163 S  
HETATM   17  O   UNL     1     -10.360  10.308  69.907  1.00  0.00    -0.255 OA 
HETATM   18  O   UNL     1      -8.326   8.971  69.234  1.00  0.00    -0.117 OA 
HETATM   19  O   UNL     1     -10.453   8.647  68.068  1.00  0.00    -0.223 OA 
ENDBRANCH  13  15
ENDBRANCH   2   6
TORSDOF 2
ENDMDL
MODEL       27
REMARK 921   NORMALIZED FREE ENERGY PREDICTED BY IDOCK:   -4.94 KCAL/MOL
REMARK 922        TOTAL FREE ENERGY PREDICTED BY IDOCK:   -5.89 KCAL/MOL
REMARK 923 INTER-LIGAND FREE ENERGY PREDICTED BY IDOCK:   -5.56 KCAL/MOL
REMARK 924 INTRA-LIGAND FREE ENERGY PREDICTED BY IDOCK:   -0.33 KCAL/MOL
REMARK 927      BINDING AFFINITY PREDICTED BY RF-SCORE:    0.00 PKD
ROOT
HETATM    1  N   UNL     1      -9.452  18.824  68.746  1.00  0.00    -0.348 N  
HETATM    2  C   UNL     1     -10.433  18.693  67.809  1.00  0.00    -0.411 C  
HETATM    3  H1  UNL     1      -9.178  18.025  69.316  1.00  0.00     0.000 HD 
HETATM    4  H2  UNL     1      -8.992  19.724  68.877  1.00  0.00     0.000 HD 
HETATM    5  O   UNL     1     -10.764  19.655  67.122  1.00  0.00    -0.478 OA 
ENDROOT
BRANCH   2   6
HETATM    6  C   UNL     1     -10.943  17.255  67.571  1.00  0.00    -0.102 C  
HETATM    7  C   UNL     1     -11.270  16.586  68.933  1.00  0.00    -0.257 C  
HETATM    8  C   UNL     1     -11.253  15.047  68.898  1.00  0.00    -0.288 C  
HETATM    9  C   UNL     1     -10.176  14.489  67.939  1.00  0.00    -0.231 C  
HETATM   10  C   UNL     1      -9.161  15.576  67.617  1.00  0.00    -0.190 C  
HETATM   11  N   UNL     1      -9.979  16.448  66.785  1.00  0.00    -0.261 N  
HETATM   12  C   UNL     1     -10.644  15.516  65.908  1.00  0.00    -0.339 C  
HETATM   13  N   UNL     1     -10.819  14.319  66.644  1.00  0.00    -0.298 N  
HETATM   14  O   UNL     1     -10.898  15.697  64.728  1.00  0.00    -0.437 OA 
BRANCH  13  15
HETATM   15  O   UNL     1     -10.330  13.199  65.920  1.00  0.00    -0.279 OA 
HETATM   16  S   UNL     1     -11.476  12.054  65.660  1.00  0.00    -0.269 S  
HETATM   17  O   UNL     1     -12.110  11.738  66.925  1.00  0.00    -0.566 OA 
HETATM   18  O   UNL     1     -10.884  11.024  64.835  1.00  0.00    -0.250 OA 
HETATM   19  O   UNL     1     -12.555  12.808  64.732  1.00  0.00    -0.556 OA 
ENDBRANCH  13  15
ENDBRANCH   2   6
TORSDOF 2
ENDMDL
MODEL       28
REMARK 921   NORMALIZED FREE ENERGY PREDICTED BY IDOCK:   -4.88 KCAL/MOL
REMARK 922        TOTAL FREE ENERGY PREDICTED BY IDOCK:   -5.82 KCAL/MOL
REMARK 923 INTER-LIGAND FREE ENERGY PREDICTED BY IDOCK:   -5.50 KCAL/MOL
REMARK 924 INTRA-LIGAND FREE ENERGY PREDICTED BY IDOCK:   -0.33 KCAL/MOL
REMARK 927      BINDING AFFINITY PREDICTED BY RF-SCORE:    0.00 PKD
ROOT
HETATM    1  N   UNL     1     -11.032  11.747  69.689  1.00  0.00    -0.470 N  
HETATM    2  C   UNL     1     -11.413  11.949  68.396  1.00  0.00    -0.299 C  
HETATM    3  H1  UNL     1     -10.526  12.474  70.194  1.00  0.00     0.000 HD 
HETATM    4  H2  UNL     1     -11.254  10.866  70.152  1.00  0.00     0.000 HD 
HETATM    5  O   UNL     1     -12.023  11.074  67.788  1.00  0.00    -0.609 OA 
ENDROOT
BRANCH   2   6
HETATM    6  C   UNL     1     -11.184  13.373  67.846  1.00  0.00    -0.275 C  
HETATM    7  C   UNL     1     -10.684  13.291  66.380  1.00  0.00    -0.291 C  
HETATM    8  C   UNL     1      -9.914  14.539  65.907  1.00  0.00    -0.352 C  
HETATM    9  C   UNL     1      -9.071  15.176  67.035  1.00  0.00    -0.230 C  
HETATM   10  C   UNL     1      -8.895  14.180  68.171  1.00  0.00    -0.183 C  
HETATM   11  N   UNL     1     -10.253  14.152  68.697  1.00  0.00    -0.238 N  
HETATM   12  C   UNL     1     -10.604  15.551  68.741  1.00  0.00    -0.242 C  
HETATM   13  N   UNL     1      -9.916  16.176  67.673  1.00  0.00    -0.238 N  
HETATM   14  O   UNL     1     -11.272  16.097  69.603  1.00  0.00    -0.313 OA 
BRANCH  13  15
HETATM   15  O   UNL     1      -9.192  17.312  68.127  1.00  0.00    -0.252 OA 
HETATM   16  S   UNL     1      -9.428  18.638  67.191  1.00  0.00    -0.303 S  
HETATM   17  O   UNL     1      -9.195  18.274  65.806  1.00  0.00    -0.450 OA 
HETATM   18  O   UNL     1      -8.725  19.740  67.809  1.00  0.00    -0.314 OA 
HETATM   19  O   UNL     1     -10.998  18.949  67.371  1.00  0.00    -0.437 OA 
ENDBRANCH  13  15
ENDBRANCH   2   6
TORSDOF 2
ENDMDL
MODEL       29
REMARK 921   NORMALIZED FREE ENERGY PREDICTED BY IDOCK:   -4.82 KCAL/MOL
REMARK 922        TOTAL FREE ENERGY PREDICTED BY IDOCK:   -5.76 KCAL/MOL
REMARK 923 INTER-LIGAND FREE ENERGY PREDICTED BY IDOCK:   -5.41 KCAL/MOL
REMARK 924 INTRA-LIGAND FREE ENERGY PREDICTED BY IDOCK:   -0.35 KCAL/MOL
REMARK 927      BINDING AFFINITY PREDICTED BY RF-SCORE:    0.00 PKD
ROOT
HETATM    1  N   UNL     1     -11.599  11.893  70.037  1.00  0.00    -0.501 N  
HETATM    2  C   UNL     1     -11.449  12.305  68.746  1.00  0.00    -0.311 C  
HETATM    3  H1  UNL     1     -11.158  12.413  70.795  1.00  0.00     0.000 HD 
HETATM    4  H2  UNL     1     -12.154  11.063  70.245  1.00  0.00     0.000 HD 
HETATM    5  O   UNL     1     -11.980  11.678  67.833  1.00  0.00    -0.599 OA 
ENDROOT
BRANCH   2   6
HETATM    6  C   UNL     1     -10.740  13.662  68.555  1.00  0.00    -0.255 C  
HETATM    7  C   UNL     1     -11.676  14.809  69.022  1.00  0.00    -0.343 C  
HETATM    8  C   UNL     1     -11.347  16.180  68.403  1.00  0.00    -0.345 C  
HETATM    9  C   UNL     1     -10.841  16.065  66.947  1.00  0.00    -0.203 C  
HETATM   10  C   UNL     1     -11.199  14.698  66.384  1.00  0.00    -0.336 C  
HETATM   11  N   UNL     1     -10.290  13.861  67.156  1.00  0.00    -0.264 N  
HETATM   12  C   UNL     1      -9.049  14.593  67.087  1.00  0.00    -0.223 C  
HETATM   13  N   UNL     1      -9.390  15.965  67.016  1.00  0.00    -0.210 N  
HETATM   14  O   UNL     1      -7.934  14.107  66.993  1.00  0.00    -0.129 OA 
BRANCH  13  15
HETATM   15  O   UNL     1      -8.733  16.599  65.927  1.00  0.00    -0.483 OA 
HETATM   16  S   UNL     1      -7.834  17.892  66.385  1.00  0.00    -0.266 S  
HETATM   17  O   UNL     1      -8.660  18.765  67.196  1.00  0.00    -0.268 OA 
HETATM   18  O   UNL     1      -7.145  18.382  65.212  1.00  0.00    -0.530 OA 
HETATM   19  O   UNL     1      -6.705  17.246  67.334  1.00  0.00    -0.140 OA 
ENDBRANCH  13  15
ENDBRANCH   2   6
TORSDOF 2
ENDMDL
MODEL       30
REMARK 921   NORMALIZED FREE ENERGY PREDICTED BY IDOCK:   -4.76 KCAL/MOL
REMARK 922        TOTAL FREE ENERGY PREDICTED BY IDOCK:   -5.69 KCAL/MOL
REMARK 923 INTER-LIGAND FREE ENERGY PREDICTED BY IDOCK:   -5.34 KCAL/MOL
REMARK 924 INTRA-LIGAND FREE ENERGY PREDICTED BY IDOCK:   -0.35 KCAL/MOL
REMARK 927      BINDING AFFINITY PREDICTED BY RF-SCORE:    0.00 PKD
ROOT
HETATM    1  N   UNL     1     -12.061  10.717  69.551  1.00  0.00    -0.501 N  
HETATM    2  C   UNL     1     -11.508  11.338  68.471  1.00  0.00    -0.306 C  
HETATM    3  H1  UNL     1     -12.017  11.153  70.471  1.00  0.00     0.000 HD 
HETATM    4  H2  UNL     1     -12.518   9.812  69.438  1.00  0.00     0.000 HD 
HETATM    5  O   UNL     1     -11.560  10.812  67.363  1.00  0.00    -0.485 OA 
ENDROOT
BRANCH   2   6
HETATM    6  C   UNL     1     -10.996  12.773  68.715  1.00  0.00    -0.250 C  
HETATM    7  C   UNL     1     -11.979  13.525  69.652  1.00  0.00    -0.397 C  
HETATM    8  C   UNL     1     -11.905  15.059  69.540  1.00  0.00    -0.360 C  
HETATM    9  C   UNL     1     -11.608  15.533  68.099  1.00  0.00    -0.304 C  
HETATM   10  C   UNL     1     -11.884  14.404  67.119  1.00  0.00    -0.410 C  
HETATM   11  N   UNL     1     -10.782  13.509  67.446  1.00  0.00    -0.261 N  
HETATM   12  C   UNL     1      -9.657  14.409  67.526  1.00  0.00    -0.215 C  
HETATM   13  N   UNL     1     -10.160  15.649  67.988  1.00  0.00    -0.223 N  
HETATM   14  O   UNL     1      -8.519  14.170  67.157  1.00  0.00    -0.206 OA 
BRANCH  13  15
HETATM   15  O   UNL     1      -9.748  16.714  67.143  1.00  0.00    -0.241 OA 
HETATM   16  S   UNL     1      -9.106  17.977  67.970  1.00  0.00    -0.278 S  
HETATM   17  O   UNL     1     -10.025  18.352  69.027  1.00  0.00    -0.365 OA 
HETATM   18  O   UNL     1      -8.638  18.942  67.000  1.00  0.00    -0.276 OA 
HETATM   19  O   UNL     1      -7.789  17.348  68.651  1.00  0.00    -0.261 OA 
ENDBRANCH  13  15
ENDBRANCH   2   6
TORSDOF 2
ENDMDL
MODEL       31
REMARK 921   NORMALIZED FREE ENERGY PREDICTED BY IDOCK:   -4.73 KCAL/MOL
REMARK 922        TOTAL FREE ENERGY PREDICTED BY IDOCK:   -5.66 KCAL/MOL
REMARK 923 INTER-LIGAND FREE ENERGY PREDICTED BY IDOCK:   -5.95 KCAL/MOL
REMARK 924 INTRA-LIGAND FREE ENERGY PREDICTED BY IDOCK:    0.29 KCAL/MOL
REMARK 927      BINDING AFFINITY PREDICTED BY RF-SCORE:    0.00 PKD
ROOT
HETATM    1  N   UNL     1     -11.063  15.884  70.266  1.00  0.00    -0.346 N  
HETATM    2  C   UNL     1     -11.009  16.413  69.010  1.00  0.00    -0.325 C  
HETATM    3  H1  UNL     1     -11.431  14.944  70.410  1.00  0.00     0.000 HD 
HETATM    4  H2  UNL     1     -10.737  16.431  71.062  1.00  0.00     0.000 HD 
HETATM    5  O   UNL     1     -10.568  17.545  68.836  1.00  0.00    -0.316 OA 
ENDROOT
BRANCH   2   6
HETATM    6  C   UNL     1     -11.364  15.445  67.862  1.00  0.00    -0.325 C  
HETATM    7  C   UNL     1     -11.880  14.105  68.450  1.00  0.00    -0.388 C  
HETATM    8  C   UNL     1     -11.747  12.906  67.493  1.00  0.00    -0.422 C  
HETATM    9  C   UNL     1     -10.481  12.989  66.612  1.00  0.00    -0.264 C  
HETATM   10  C   UNL     1      -9.504  13.992  67.209  1.00  0.00    -0.231 C  
HETATM   11  N   UNL     1     -10.221  15.233  66.942  1.00  0.00    -0.263 N  
HETATM   12  C   UNL     1     -10.651  15.062  65.576  1.00  0.00    -0.363 C  
HETATM   13  N   UNL     1     -10.869  13.676  65.388  1.00  0.00    -0.292 N  
HETATM   14  O   UNL     1     -10.702  15.936  64.726  1.00  0.00    -0.559 OA 
BRANCH  13  15
HETATM   15  O   UNL     1     -10.179  13.202  64.239  1.00  0.00    -0.400 OA 
HETATM   16  S   UNL     1     -10.615  11.679  63.813  1.00  0.00    -0.459 S  
HETATM   17  O   UNL     1     -10.518  10.827  64.982  1.00  0.00    -0.293 OA 
HETATM   18  O   UNL     1      -9.924  11.355  62.585  1.00  0.00    -0.192 OA 
HETATM   19  O   UNL     1     -12.172  11.828  63.428  1.00  0.00    -0.511 OA 
ENDBRANCH  13  15
ENDBRANCH   2   6
TORSDOF 2
ENDMDL
MODEL       32
REMARK 921   NORMALIZED FREE ENERGY PREDICTED BY IDOCK:   -4.72 KCAL/MOL
REMARK 922        TOTAL FREE ENERGY PREDICTED BY IDOCK:   -5.65 KCAL/MOL
REMARK 923 INTER-LIGAND FREE ENERGY PREDICTED BY IDOCK:   -5.25 KCAL/MOL
REMARK 924 INTRA-LIGAND FREE ENERGY PREDICTED BY IDOCK:   -0.40 KCAL/MOL
REMARK 927      BINDING AFFINITY PREDICTED BY RF-SCORE:    0.00 PKD
ROOT
HETATM    1  N   UNL     1     -12.100  15.750  68.546  1.00  0.00    -0.472 N  
HETATM    2  C   UNL     1     -10.866  15.443  68.057  1.00  0.00    -0.292 C  
HETATM    3  H1  UNL     1     -12.278  16.670  68.949  1.00  0.00     0.000 HD 
HETATM    4  H2  UNL     1     -12.849  15.059  68.508  1.00  0.00     0.000 HD 
HETATM    5  O   UNL     1     -10.652  14.336  67.572  1.00  0.00    -0.258 OA 
ENDROOT
BRANCH   2   6
HETATM    6  C   UNL     1      -9.858  16.611  68.004  1.00  0.00    -0.245 C  
HETATM    7  C   UNL     1     -10.300  17.726  68.989  1.00  0.00    -0.234 C  
HETATM    8  C   UNL     1      -9.737  19.120  68.654  1.00  0.00    -0.478 C  
HETATM    9  C   UNL     1      -9.619  19.360  67.132  1.00  0.00    -0.327 C  
HETATM   10  C   UNL     1     -10.467  18.343  66.383  1.00  0.00    -0.383 C  
HETATM   11  N   UNL     1      -9.689  17.135  66.627  1.00  0.00    -0.264 N  
HETATM   12  C   UNL     1      -8.337  17.573  66.378  1.00  0.00    -0.262 C  
HETATM   13  N   UNL     1      -8.278  18.939  66.747  1.00  0.00    -0.269 N  
HETATM   14  O   UNL     1      -7.457  16.918  65.846  1.00  0.00    -0.210 OA 
BRANCH  13  15
HETATM   15  O   UNL     1      -7.724  19.727  65.702  1.00  0.00    -0.367 OA 
HETATM   16  S   UNL     1      -6.435  20.618  66.185  1.00  0.00    -0.226 S  
HETATM   17  O   UNL     1      -6.803  21.354  67.379  1.00  0.00    -0.573 OA 
HETATM   18  O   UNL     1      -5.907  21.290  65.019  1.00  0.00    -0.225 OA 
HETATM   19  O   UNL     1      -5.345  19.506  66.597  1.00  0.00    -0.164 OA 
ENDBRANCH  13  15
ENDBRANCH   2   6
TORSDOF 2
ENDMDL
MODEL       33
REMARK 921   NORMALIZED FREE ENERGY PREDICTED BY IDOCK:   -4.72 KCAL/MOL
REMARK 922        TOTAL FREE ENERGY PREDICTED BY IDOCK:   -5.64 KCAL/MOL
REMARK 923 INTER-LIGAND FREE ENERGY PREDICTED BY IDOCK:   -5.26 KCAL/MOL
REMARK 924 INTRA-LIGAND FREE ENERGY PREDICTED BY IDOCK:   -0.38 KCAL/MOL
REMARK 927      BINDING AFFINITY PREDICTED BY RF-SCORE:    0.00 PKD
ROOT
HETATM    1  N   UNL     1     -10.424  17.676  67.654  1.00  0.00    -0.364 N  
HETATM    2  C   UNL     1     -10.489  17.468  66.309  1.00  0.00    -0.283 C  
HETATM    3  H1  UNL     1     -10.367  16.883  68.294  1.00  0.00     0.000 HD 
HETATM    4  H2  UNL     1     -10.434  18.627  68.023  1.00  0.00     0.000 HD 
HETATM    5  O   UNL     1     -10.559  18.422  65.540  1.00  0.00    -0.627 OA 
ENDROOT
BRANCH   2   6
HETATM    6  C   UNL     1     -10.295  16.008  65.848  1.00  0.00    -0.368 C  
HETATM    7  C   UNL     1     -11.237  15.709  64.652  1.00  0.00    -0.380 C  
HETATM    8  C   UNL     1     -11.550  14.214  64.456  1.00  0.00    -0.400 C  
HETATM    9  C   UNL     1     -11.645  13.449  65.795  1.00  0.00    -0.332 C  
HETATM   10  C   UNL     1     -11.822  14.435  66.939  1.00  0.00    -0.410 C  
HETATM   11  N   UNL     1     -10.499  15.045  66.957  1.00  0.00    -0.273 N  
HETATM   12  C   UNL     1      -9.624  13.903  66.849  1.00  0.00    -0.269 C  
HETATM   13  N   UNL     1     -10.312  12.935  66.078  1.00  0.00    -0.277 N  
HETATM   14  O   UNL     1      -8.551  13.766  67.411  1.00  0.00    -0.181 OA 
BRANCH  13  15
HETATM   15  O   UNL     1     -10.326  11.675  66.735  1.00  0.00    -0.212 OA 
HETATM   16  S   UNL     1      -9.654  10.477  65.839  1.00  0.00    -0.219 S  
HETATM   17  O   UNL     1     -10.260  10.489  64.522  1.00  0.00    -0.348 OA 
HETATM   18  O   UNL     1      -9.640   9.280  66.650  1.00  0.00    -0.173 OA 
HETATM   19  O   UNL     1      -8.118  10.938  65.689  1.00  0.00    -0.145 OA 
ENDBRANCH  13  15
ENDBRANCH   2   6
TORSDOF 2
ENDMDL
MODEL       34
REMARK 921   NORMALIZED FREE ENERGY PREDICTED BY IDOCK:   -4.71 KCAL/MOL
REMARK 922        TOTAL FREE ENERGY PREDICTED BY IDOCK:   -5.63 KCAL/MOL
REMARK 923 INTER-LIGAND FREE ENERGY PREDICTED BY IDOCK:   -5.27 KCAL/MOL
REMARK 924 INTRA-LIGAND FREE ENERGY PREDICTED BY IDOCK:   -0.36 KCAL/MOL
REMARK 927      BINDING AFFINITY PREDICTED BY RF-SCORE:    0.00 PKD
ROOT
HETATM    1  N   UNL     1     -11.314  15.007  64.580  1.00  0.00    -0.627 N  
HETATM    2  C   UNL     1     -12.022  14.146  65.364  1.00  0.00    -0.381 C  
HETATM    3  H1  UNL     1     -10.332  15.195  64.781  1.00  0.00     0.000 HD 
HETATM    4  H2  UNL     1     -11.768  15.466  63.790  1.00  0.00     0.000 HD 
HETATM    5  O   UNL     1     -13.204  13.921  65.122  1.00  0.00    -0.768 OA 
ENDROOT
BRANCH   2   6
HETATM    6  C   UNL     1     -11.202  13.377  66.421  1.00  0.00    -0.304 C  
HETATM    7  C   UNL     1      -9.700  13.739  66.280  1.00  0.00    -0.297 C  
HETATM    8  C   UNL     1      -8.741  12.683  66.861  1.00  0.00    -0.175 C  
HETATM    9  C   UNL     1      -9.266  11.241  66.674  1.00  0.00    -0.180 C  
HETATM   10  C   UNL     1     -10.358  11.224  65.615  1.00  0.00    -0.256 C  
HETATM   11  N   UNL     1     -11.421  11.913  66.335  1.00  0.00    -0.343 N  
HETATM   12  C   UNL     1     -11.383  11.284  67.633  1.00  0.00    -0.282 C  
HETATM   13  N   UNL     1     -10.035  10.920  67.869  1.00  0.00    -0.173 N  
HETATM   14  O   UNL     1     -12.348  11.020  68.331  1.00  0.00    -0.528 OA 
BRANCH  13  15
HETATM   15  O   UNL     1      -9.934   9.553  68.247  1.00  0.00    -0.152 OA 
HETATM   16  S   UNL     1      -9.316   9.350  69.753  1.00  0.00    -0.219 S  
HETATM   17  O   UNL     1      -8.084  10.107  69.854  1.00  0.00    -0.174 OA 
HETATM   18  O   UNL     1      -9.359   7.936  70.055  1.00  0.00    -0.156 OA 
HETATM   19  O   UNL     1     -10.413  10.046  70.705  1.00  0.00    -0.257 OA 
ENDBRANCH  13  15
ENDBRANCH   2   6
TORSDOF 2
ENDMDL
MODEL       35
REMARK 921   NORMALIZED FREE ENERGY PREDICTED BY IDOCK:   -4.66 KCAL/MOL
REMARK 922        TOTAL FREE ENERGY PREDICTED BY IDOCK:   -5.58 KCAL/MOL
REMARK 923 INTER-LIGAND FREE ENERGY PREDICTED BY IDOCK:   -5.21 KCAL/MOL
REMARK 924 INTRA-LIGAND FREE ENERGY PREDICTED BY IDOCK:   -0.37 KCAL/MOL
REMARK 927      BINDING AFFINITY PREDICTED BY RF-SCORE:    0.00 PKD
ROOT
HETATM    1  N   UNL     1     -12.825  15.210  69.832  1.00  0.00    -0.622 N  
HETATM    2  C   UNL     1     -12.027  14.617  68.899  1.00  0.00    -0.274 C  
HETATM    3  H1  UNL     1     -12.746  16.210  70.012  1.00  0.00     0.000 HD 
HETATM    4  H2  UNL     1     -13.501  14.651  70.352  1.00  0.00     0.000 HD 
HETATM    5  O   UNL     1     -12.121  13.413  68.682  1.00  0.00    -0.346 OA 
ENDROOT
BRANCH   2   6
HETATM    6  C   UNL     1     -11.165  15.576  68.051  1.00  0.00    -0.332 C  
HETATM    7  C   UNL     1     -10.650  14.835  66.788  1.00  0.00    -0.302 C  
HETATM    8  C   UNL     1      -9.385  15.455  66.167  1.00  0.00    -0.367 C  
HETATM    9  C   UNL     1      -8.429  16.039  67.232  1.00  0.00    -0.184 C  
HETATM   10  C   UNL     1      -8.781  15.479  68.602  1.00  0.00    -0.188 C  
HETATM   11  N   UNL     1     -10.049  16.158  68.834  1.00  0.00    -0.226 N  
HETATM   12  C   UNL     1      -9.760  17.514  68.437  1.00  0.00    -0.316 C  
HETATM   13  N   UNL     1      -8.797  17.438  67.401  1.00  0.00    -0.225 N  
HETATM   14  O   UNL     1     -10.182  18.525  68.973  1.00  0.00    -0.356 OA 
BRANCH  13  15
HETATM   15  O   UNL     1      -7.685  18.279  67.675  1.00  0.00    -0.224 OA 
HETATM   16  S   UNL     1      -7.308  19.270  66.423  1.00  0.00    -0.264 S  
HETATM   17  O   UNL     1      -7.192  18.471  65.219  1.00  0.00    -0.504 OA 
HETATM   18  O   UNL     1      -6.236  20.136  66.860  1.00  0.00    -0.180 OA 
HETATM   19  O   UNL     1      -8.612  20.206  66.280  1.00  0.00    -0.301 OA 
ENDBRANCH  13  15
ENDBRANCH   2   6
TORSDOF 2
ENDMDL
MODEL       36
REMARK 921   NORMALIZED FREE ENERGY PREDICTED BY IDOCK:   -4.65 KCAL/MOL
REMARK 922        TOTAL FREE ENERGY PREDICTED BY IDOCK:   -5.57 KCAL/MOL
REMARK 923 INTER-LIGAND FREE ENERGY PREDICTED BY IDOCK:   -5.19 KCAL/MOL
REMARK 924 INTRA-LIGAND FREE ENERGY PREDICTED BY IDOCK:   -0.38 KCAL/MOL
REMARK 927      BINDING AFFINITY PREDICTED BY RF-SCORE:    0.00 PKD
ROOT
HETATM    1  N   UNL     1      -9.821  13.109  65.463  1.00  0.00    -0.466 N  
HETATM    2  C   UNL     1     -10.781  12.388  66.107  1.00  0.00    -0.260 C  
HETATM    3  H1  UNL     1      -9.688  14.096  65.683  1.00  0.00     0.000 HD 
HETATM    4  H2  UNL     1      -9.234  12.662  64.760  1.00  0.00     0.000 HD 
HETATM    5  O   UNL     1     -10.942  11.200  65.842  1.00  0.00    -0.213 OA 
ENDROOT
BRANCH   2   6
HETATM    6  C   UNL     1     -11.494  13.111  67.269  1.00  0.00    -0.331 C  
HETATM    7  C   UNL     1     -11.641  14.619  66.934  1.00  0.00    -0.374 C  
HETATM    8  C   UNL     1     -11.815  15.524  68.167  1.00  0.00    -0.133 C  
HETATM    9  C   UNL     1     -11.009  15.022  69.387  1.00  0.00    -0.266 C  
HETATM   10  C   UNL     1      -9.949  14.031  68.931  1.00  0.00    -0.097 C  
HETATM   11  N   UNL     1     -10.796  12.905  68.561  1.00  0.00    -0.250 N  
HETATM   12  C   UNL     1     -11.719  12.827  69.667  1.00  0.00    -0.302 C  
HETATM   13  N   UNL     1     -11.897  14.149  70.143  1.00  0.00    -0.301 N  
HETATM   14  O   UNL     1     -12.163  11.803  70.160  1.00  0.00    -0.299 OA 
BRANCH  13  15
HETATM   15  O   UNL     1     -11.688  14.219  71.547  1.00  0.00    -0.187 OA 
HETATM   16  S   UNL     1     -12.990  14.796  72.360  1.00  0.00    -0.391 S  
HETATM   17  O   UNL     1     -13.411  16.036  71.739  1.00  0.00    -0.327 OA 
HETATM   18  O   UNL     1     -12.689  14.724  73.773  1.00  0.00    -0.491 OA 
HETATM   19  O   UNL     1     -14.125  13.687  72.085  1.00  0.00    -0.499 OA 
ENDBRANCH  13  15
ENDBRANCH   2   6
TORSDOF 2
ENDMDL
MODEL       37
REMARK 921   NORMALIZED FREE ENERGY PREDICTED BY IDOCK:   -4.62 KCAL/MOL
REMARK 922        TOTAL FREE ENERGY PREDICTED BY IDOCK:   -5.53 KCAL/MOL
REMARK 923 INTER-LIGAND FREE ENERGY PREDICTED BY IDOCK:   -5.16 KCAL/MOL
REMARK 924 INTRA-LIGAND FREE ENERGY PREDICTED BY IDOCK:   -0.37 KCAL/MOL
REMARK 927      BINDING AFFINITY PREDICTED BY RF-SCORE:    0.00 PKD
ROOT
HETATM    1  N   UNL     1      -9.185  10.589  66.286  1.00  0.00    -0.164 N  
HETATM    2  C   UNL     1     -10.252  11.025  67.013  1.00  0.00    -0.211 C  
HETATM    3  H1  UNL     1      -8.587  11.258  65.801  1.00  0.00     0.000 HD 
HETATM    4  H2  UNL     1      -8.983   9.591  66.226  1.00  0.00     0.000 HD 
HETATM    5  O   UNL     1     -10.971  10.220  67.597  1.00  0.00    -0.287 OA 
ENDROOT
BRANCH   2   6
HETATM    6  C   UNL     1     -10.366  12.555  67.180  1.00  0.00    -0.220 C  
HETATM    7  C   UNL     1     -11.863  12.962  67.236  1.00  0.00    -0.416 C  
HETATM    8  C   UNL     1     -12.129  14.430  66.854  1.00  0.00    -0.386 C  
HETATM    9  C   UNL     1     -11.174  14.937  65.750  1.00  0.00    -0.334 C  
HETATM   10  C   UNL     1     -10.522  13.754  65.051  1.00  0.00    -0.402 C  
HETATM   11  N   UNL     1      -9.642  13.285  66.113  1.00  0.00    -0.241 N  
HETATM   12  C   UNL     1      -9.054  14.509  66.599  1.00  0.00    -0.251 C  
HETATM   13  N   UNL     1     -10.027  15.524  66.429  1.00  0.00    -0.267 N  
HETATM   14  O   UNL     1      -7.902  14.652  66.976  1.00  0.00    -0.174 OA 
BRANCH  13  15
HETATM   15  O   UNL     1      -9.483  16.642  65.741  1.00  0.00    -0.495 OA 
HETATM   16  S   UNL     1      -9.529  18.023  66.625  1.00  0.00    -0.303 S  
HETATM   17  O   UNL     1     -10.877  18.206  67.127  1.00  0.00    -0.333 OA 
HETATM   18  O   UNL     1      -8.862  19.053  65.862  1.00  0.00    -0.450 OA 
HETATM   19  O   UNL     1      -8.568  17.698  67.877  1.00  0.00    -0.228 OA 
ENDBRANCH  13  15
ENDBRANCH   2   6
TORSDOF 2
ENDMDL
MODEL       38
REMARK 921   NORMALIZED FREE ENERGY PREDICTED BY IDOCK:   -4.58 KCAL/MOL
REMARK 922        TOTAL FREE ENERGY PREDICTED BY IDOCK:   -5.49 KCAL/MOL
REMARK 923 INTER-LIGAND FREE ENERGY PREDICTED BY IDOCK:   -5.28 KCAL/MOL
REMARK 924 INTRA-LIGAND FREE ENERGY PREDICTED BY IDOCK:   -0.20 KCAL/MOL
REMARK 927      BINDING AFFINITY PREDICTED BY RF-SCORE:    0.00 PKD
ROOT
HETATM    1  N   UNL     1      -5.682  19.925  66.998  1.00  0.00    -0.173 N  
HETATM    2  C   UNL     1      -6.987  20.217  67.262  1.00  0.00    -0.266 C  
HETATM    3  H1  UNL     1      -5.394  18.959  66.847  1.00  0.00     0.000 HD 
HETATM    4  H2  UNL     1      -4.992  20.675  66.953  1.00  0.00     0.000 HD 
HETATM    5  O   UNL     1      -7.334  21.380  67.445  1.00  0.00    -0.493 OA 
ENDROOT
BRANCH   2   6
HETATM    6  C   UNL     1      -7.974  19.038  67.137  1.00  0.00    -0.255 C  
HETATM    7  C   UNL     1      -9.061  19.377  66.082  1.00  0.00    -0.314 C  
HETATM    8  C   UNL     1     -10.367  18.577  66.245  1.00  0.00    -0.459 C  
HETATM    9  C   UNL     1     -10.709  18.299  67.726  1.00  0.00    -0.333 C  
HETATM   10  C   UNL     1      -9.911  19.233  68.623  1.00  0.00    -0.431 C  
HETATM   11  N   UNL     1      -8.576  18.677  68.443  1.00  0.00    -0.329 N  
HETATM   12  C   UNL     1      -8.806  17.258  68.559  1.00  0.00    -0.269 C  
HETATM   13  N   UNL     1     -10.108  17.015  68.059  1.00  0.00    -0.290 N  
HETATM   14  O   UNL     1      -8.061  16.452  69.091  1.00  0.00    -0.242 OA 
BRANCH  13  15
HETATM   15  O   UNL     1     -10.878  16.261  68.986  1.00  0.00    -0.273 OA 
HETATM   16  S   UNL     1     -11.224  14.749  68.451  1.00  0.00    -0.299 S  
HETATM   17  O   UNL     1     -11.789  14.848  67.120  1.00  0.00    -0.338 OA 
HETATM   18  O   UNL     1     -11.917  14.058  69.515  1.00  0.00    -0.299 OA 
HETATM   19  O   UNL     1      -9.776  14.054  68.332  1.00  0.00    -0.217 OA 
ENDBRANCH  13  15
ENDBRANCH   2   6
TORSDOF 2
ENDMDL
MODEL       39
REMARK 921   NORMALIZED FREE ENERGY PREDICTED BY IDOCK:   -4.56 KCAL/MOL
REMARK 922        TOTAL FREE ENERGY PREDICTED BY IDOCK:   -5.47 KCAL/MOL
REMARK 923 INTER-LIGAND FREE ENERGY PREDICTED BY IDOCK:   -5.12 KCAL/MOL
REMARK 924 INTRA-LIGAND FREE ENERGY PREDICTED BY IDOCK:   -0.35 KCAL/MOL
REMARK 927      BINDING AFFINITY PREDICTED BY RF-SCORE:    0.00 PKD
ROOT
HETATM    1  N   UNL     1     -12.767   6.521  72.277  1.00  0.00    -0.553 N  
HETATM    2  C   UNL     1     -11.817   7.497  72.228  1.00  0.00    -0.289 C  
HETATM    3  H1  UNL     1     -13.400   6.382  71.491  1.00  0.00     0.000 HD 
HETATM    4  H2  UNL     1     -12.844   5.928  73.103  1.00  0.00     0.000 HD 
HETATM    5  O   UNL     1     -11.054   7.665  73.175  1.00  0.00    -0.404 OA 
ENDROOT
BRANCH   2   6
HETATM    6  C   UNL     1     -11.672   8.220  70.872  1.00  0.00    -0.239 C  
HETATM    7  C   UNL     1     -11.034   7.259  69.834  1.00  0.00    -0.262 C  
HETATM    8  C   UNL     1     -10.344   7.972  68.657  1.00  0.00    -0.224 C  
HETATM    9  C   UNL     1      -9.672   9.298  69.080  1.00  0.00    -0.164 C  
HETATM   10  C   UNL     1      -9.508   9.331  70.592  1.00  0.00    -0.272 C  
HETATM   11  N   UNL     1     -10.901   9.480  70.995  1.00  0.00    -0.329 N  
HETATM   12  C   UNL     1     -11.383  10.499  70.095  1.00  0.00    -0.323 C  
HETATM   13  N   UNL     1     -10.661  10.348  68.886  1.00  0.00    -0.209 N  
HETATM   14  O   UNL     1     -12.176  11.384  70.371  1.00  0.00    -0.336 OA 
BRANCH  13  15
HETATM   15  O   UNL     1     -10.091  11.584  68.474  1.00  0.00    -0.197 OA 
HETATM   16  S   UNL     1     -10.510  12.004  66.945  1.00  0.00    -0.229 S  
HETATM   17  O   UNL     1     -10.243  10.882  66.067  1.00  0.00    -0.240 OA 
HETATM   18  O   UNL     1      -9.955  13.313  66.684  1.00  0.00    -0.258 OA 
HETATM   19  O   UNL     1     -12.106  12.202  67.034  1.00  0.00    -0.591 OA 
ENDBRANCH  13  15
ENDBRANCH   2   6
TORSDOF 2
ENDMDL
MODEL       40
REMARK 921   NORMALIZED FREE ENERGY PREDICTED BY IDOCK:   -4.56 KCAL/MOL
REMARK 922        TOTAL FREE ENERGY PREDICTED BY IDOCK:   -5.46 KCAL/MOL
REMARK 923 INTER-LIGAND FREE ENERGY PREDICTED BY IDOCK:   -5.28 KCAL/MOL
REMARK 924 INTRA-LIGAND FREE ENERGY PREDICTED BY IDOCK:   -0.18 KCAL/MOL
REMARK 927      BINDING AFFINITY PREDICTED BY RF-SCORE:    0.00 PKD
ROOT
HETATM    1  N   UNL     1     -10.875  18.931  67.550  1.00  0.00    -0.428 N  
HETATM    2  C   UNL     1     -10.387  17.924  66.772  1.00  0.00    -0.355 C  
HETATM    3  H1  UNL     1     -11.421  18.715  68.384  1.00  0.00     0.000 HD 
HETATM    4  H2  UNL     1     -10.695  19.903  67.298  1.00  0.00     0.000 HD 
HETATM    5  O   UNL     1      -9.731  18.184  65.767  1.00  0.00    -0.503 OA 
ENDROOT
BRANCH   2   6
HETATM    6  C   UNL     1     -10.568  16.498  67.332  1.00  0.00    -0.300 C  
HETATM    7  C   UNL     1      -9.527  16.243  68.454  1.00  0.00    -0.216 C  
HETATM    8  C   UNL     1      -9.227  14.754  68.708  1.00  0.00    -0.196 C  
HETATM    9  C   UNL     1      -9.271  13.913  67.412  1.00  0.00    -0.224 C  
HETATM   10  C   UNL     1      -9.179  14.829  66.201  1.00  0.00    -0.202 C  
HETATM   11  N   UNL     1     -10.486  15.469  66.268  1.00  0.00    -0.297 N  
HETATM   12  C   UNL     1     -11.370  14.358  66.521  1.00  0.00    -0.350 C  
HETATM   13  N   UNL     1     -10.634  13.418  67.282  1.00  0.00    -0.254 N  
HETATM   14  O   UNL     1     -12.493  14.217  66.066  1.00  0.00    -0.467 OA 
BRANCH  13  15
HETATM   15  O   UNL     1     -10.705  12.123  66.700  1.00  0.00    -0.233 OA 
HETATM   16  S   UNL     1     -10.840  10.926  67.814  1.00  0.00    -0.280 S  
HETATM   17  O   UNL     1      -9.797  11.098  68.806  1.00  0.00    -0.197 OA 
HETATM   18  O   UNL     1     -11.003   9.680  67.099  1.00  0.00    -0.190 OA 
HETATM   19  O   UNL     1     -12.257  11.229  68.519  1.00  0.00    -0.588 OA 
ENDBRANCH  13  15
ENDBRANCH   2   6
TORSDOF 2
ENDMDL
MODEL       41
REMARK 921   NORMALIZED FREE ENERGY PREDICTED BY IDOCK:   -4.53 KCAL/MOL
REMARK 922        TOTAL FREE ENERGY PREDICTED BY IDOCK:   -5.43 KCAL/MOL
REMARK 923 INTER-LIGAND FREE ENERGY PREDICTED BY IDOCK:   -5.06 KCAL/MOL
REMARK 924 INTRA-LIGAND FREE ENERGY PREDICTED BY IDOCK:   -0.37 KCAL/MOL
REMARK 927      BINDING AFFINITY PREDICTED BY RF-SCORE:    0.00 PKD
ROOT
HETATM    1  N   UNL     1     -12.097  11.362  62.832  1.00  0.00    -0.795 N  
HETATM    2  C   UNL     1     -11.033  11.440  63.680  1.00  0.00    -0.363 C  
HETATM    3  H1  UNL     1     -12.983  11.802  63.079  1.00  0.00     0.000 HD 
HETATM    4  H2  UNL     1     -12.007  10.861  61.948  1.00  0.00     0.000 HD 
HETATM    5  O   UNL     1      -9.966  10.910  63.382  1.00  0.00    -0.318 OA 
ENDROOT
BRANCH   2   6
HETATM    6  C   UNL     1     -11.220  12.361  64.904  1.00  0.00    -0.311 C  
HETATM    7  C   UNL     1     -12.725  12.700  65.076  1.00  0.00    -0.403 C  
HETATM    8  C   UNL     1     -12.992  13.992  65.870  1.00  0.00    -0.223 C  
HETATM    9  C   UNL     1     -11.924  15.078  65.609  1.00  0.00     0.031 C  
HETATM   10  C   UNL     1     -11.149  14.744  64.344  1.00  0.00    -0.118 C  
HETATM   11  N   UNL     1     -10.393  13.588  64.806  1.00  0.00    -0.398 N  
HETATM   12  C   UNL     1      -9.913  14.019  66.097  1.00  0.00    -0.312 C  
HETATM   13  N   UNL     1     -10.891  14.899  66.621  1.00  0.00    -0.314 N  
HETATM   14  O   UNL     1      -8.823  13.761  66.580  1.00  0.00    -0.182 OA 
BRANCH  13  15
HETATM   15  O   UNL     1     -10.304  16.122  67.043  1.00  0.00    -0.281 OA 
HETATM   16  S   UNL     1     -10.498  16.406  68.647  1.00  0.00    -0.315 S  
HETATM   17  O   UNL     1     -11.901  16.252  68.977  1.00  0.00    -0.267 OA 
HETATM   18  O   UNL     1      -9.777  17.618  68.966  1.00  0.00    -0.269 OA 
HETATM   19  O   UNL     1      -9.684  15.203  69.341  1.00  0.00    -0.225 OA 
ENDBRANCH  13  15
ENDBRANCH   2   6
TORSDOF 2
ENDMDL
MODEL       42
REMARK 921   NORMALIZED FREE ENERGY PREDICTED BY IDOCK:   -4.47 KCAL/MOL
REMARK 922        TOTAL FREE ENERGY PREDICTED BY IDOCK:   -5.37 KCAL/MOL
REMARK 923 INTER-LIGAND FREE ENERGY PREDICTED BY IDOCK:   -5.01 KCAL/MOL
REMARK 924 INTRA-LIGAND FREE ENERGY PREDICTED BY IDOCK:   -0.36 KCAL/MOL
REMARK 927      BINDING AFFINITY PREDICTED BY RF-SCORE:    0.00 PKD
ROOT
HETATM    1  N   UNL     1      -8.782  19.513  68.022  1.00  0.00    -0.318 N  
HETATM    2  C   UNL     1      -9.938  18.815  67.836  1.00  0.00    -0.354 C  
HETATM    3  H1  UNL     1      -7.950  19.041  68.376  1.00  0.00     0.000 HD 
HETATM    4  H2  UNL     1      -8.750  20.509  67.809  1.00  0.00     0.000 HD 
HETATM    5  O   UNL     1     -10.940  19.382  67.411  1.00  0.00    -0.490 OA 
ENDROOT
BRANCH   2   6
HETATM    6  C   UNL     1      -9.833  17.286  68.023  1.00  0.00    -0.284 C  
HETATM    7  C   UNL     1      -8.513  16.772  67.390  1.00  0.00    -0.203 C  
HETATM    8  C   UNL     1      -8.533  15.278  67.020  1.00  0.00    -0.258 C  
HETATM    9  C   UNL     1      -9.922  14.809  66.531  1.00  0.00    -0.271 C  
HETATM   10  C   UNL     1     -10.768  16.014  66.151  1.00  0.00    -0.244 C  
HETATM   11  N   UNL     1     -11.013  16.578  67.472  1.00  0.00    -0.229 N  
HETATM   12  C   UNL     1     -11.359  15.416  68.253  1.00  0.00    -0.348 C  
HETATM   13  N   UNL     1     -10.636  14.328  67.706  1.00  0.00    -0.251 N  
HETATM   14  O   UNL     1     -12.199  15.369  69.137  1.00  0.00    -0.269 OA 
BRANCH  13  15
HETATM   15  O   UNL     1     -11.496  13.232  67.427  1.00  0.00    -0.297 OA 
HETATM   16  S   UNL     1     -11.111  11.883  68.278  1.00  0.00    -0.262 S  
HETATM   17  O   UNL     1      -9.697  11.614  68.104  1.00  0.00    -0.177 OA 
HETATM   18  O   UNL     1     -12.111  10.881  67.984  1.00  0.00    -0.563 OA 
HETATM   19  O   UNL     1     -11.353  12.324  69.809  1.00  0.00    -0.194 OA 
ENDBRANCH  13  15
ENDBRANCH   2   6
TORSDOF 2
ENDMDL
MODEL       43
REMARK 921   NORMALIZED FREE ENERGY PREDICTED BY IDOCK:   -4.47 KCAL/MOL
REMARK 922        TOTAL FREE ENERGY PREDICTED BY IDOCK:   -5.37 KCAL/MOL
REMARK 923 INTER-LIGAND FREE ENERGY PREDICTED BY IDOCK:   -5.02 KCAL/MOL
REMARK 924 INTRA-LIGAND FREE ENERGY PREDICTED BY IDOCK:   -0.35 KCAL/MOL
REMARK 927      BINDING AFFINITY PREDICTED BY RF-SCORE:    0.00 PKD
ROOT
HETATM    1  N   UNL     1      -6.385  20.252  70.492  1.00  0.00    -0.465 N  
HETATM    2  C   UNL     1      -6.618  20.132  69.155  1.00  0.00    -0.276 C  
HETATM    3  H1  UNL     1      -6.711  19.532  71.136  1.00  0.00     0.000 HD 
HETATM    4  H2  UNL     1      -5.883  21.065  70.850  1.00  0.00     0.000 HD 
HETATM    5  O   UNL     1      -6.226  21.000  68.380  1.00  0.00    -0.331 OA 
ENDROOT
BRANCH   2   6
HETATM    6  C   UNL     1      -7.229  18.790  68.701  1.00  0.00    -0.303 C  
HETATM    7  C   UNL     1      -6.119  17.889  68.099  1.00  0.00    -0.174 C  
HETATM    8  C   UNL     1      -6.641  16.803  67.140  1.00  0.00    -0.227 C  
HETATM    9  C   UNL     1      -7.858  17.278  66.316  1.00  0.00    -0.309 C  
HETATM   10  C   UNL     1      -7.950  18.796  66.360  1.00  0.00    -0.282 C  
HETATM   11  N   UNL     1      -8.349  18.984  67.749  1.00  0.00    -0.283 N  
HETATM   12  C   UNL     1      -9.382  17.991  67.919  1.00  0.00    -0.264 C  
HETATM   13  N   UNL     1      -9.046  16.907  67.073  1.00  0.00    -0.220 N  
HETATM   14  O   UNL     1     -10.399  18.120  68.579  1.00  0.00    -0.375 OA 
BRANCH  13  15
HETATM   15  O   UNL     1     -10.144  16.543  66.248  1.00  0.00    -0.300 OA 
HETATM   16  S   UNL     1     -10.593  14.976  66.431  1.00  0.00    -0.318 S  
HETATM   17  O   UNL     1      -9.417  14.139  66.292  1.00  0.00    -0.283 OA 
HETATM   18  O   UNL     1     -11.771  14.762  65.621  1.00  0.00    -0.335 OA 
HETATM   19  O   UNL     1     -11.082  14.904  67.965  1.00  0.00    -0.272 OA 
ENDBRANCH  13  15
ENDBRANCH   2   6
TORSDOF 2
ENDMDL
MODEL       44
REMARK 921   NORMALIZED FREE ENERGY PREDICTED BY IDOCK:   -4.39 KCAL/MOL
REMARK 922        TOTAL FREE ENERGY PREDICTED BY IDOCK:   -5.28 KCAL/MOL
REMARK 923 INTER-LIGAND FREE ENERGY PREDICTED BY IDOCK:   -4.96 KCAL/MOL
REMARK 924 INTRA-LIGAND FREE ENERGY PREDICTED BY IDOCK:   -0.32 KCAL/MOL
REMARK 927      BINDING AFFINITY PREDICTED BY RF-SCORE:    0.00 PKD
ROOT
HETATM    1  N   UNL     1     -10.997   6.513  66.582  1.00  0.00    -0.630 N  
HETATM    2  C   UNL     1     -10.599   7.531  67.397  1.00  0.00    -0.294 C  
HETATM    3  H1  UNL     1     -11.412   6.716  65.674  1.00  0.00     0.000 HD 
HETATM    4  H2  UNL     1     -10.880   5.545  66.883  1.00  0.00     0.000 HD 
HETATM    5  O   UNL     1     -10.099   7.286  68.491  1.00  0.00    -0.161 OA 
ENDROOT
BRANCH   2   6
HETATM    6  C   UNL     1     -10.660   8.944  66.780  1.00  0.00    -0.142 C  
HETATM    7  C   UNL     1      -9.607   9.064  65.646  1.00  0.00    -0.237 C  
HETATM    8  C   UNL     1      -9.183  10.511  65.332  1.00  0.00    -0.229 C  
HETATM    9  C   UNL     1      -9.147  11.403  66.593  1.00  0.00    -0.181 C  
HETATM   10  C   UNL     1      -9.128  10.532  67.840  1.00  0.00    -0.136 C  
HETATM   11  N   UNL     1     -10.485  10.003  67.802  1.00  0.00    -0.216 N  
HETATM   12  C   UNL     1     -11.273  11.175  67.506  1.00  0.00    -0.301 C  
HETATM   13  N   UNL     1     -10.463  12.018  66.707  1.00  0.00    -0.210 N  
HETATM   14  O   UNL     1     -12.377  11.430  67.957  1.00  0.00    -0.444 OA 
BRANCH  13  15
HETATM   15  O   UNL     1     -10.420  13.336  67.236  1.00  0.00    -0.245 OA 
HETATM   16  S   UNL     1     -11.039  14.459  66.211  1.00  0.00    -0.338 S  
HETATM   17  O   UNL     1     -10.411  14.297  64.915  1.00  0.00    -0.418 OA 
HETATM   18  O   UNL     1     -11.030  15.730  66.900  1.00  0.00    -0.300 OA 
HETATM   19  O   UNL     1     -12.586  14.030  66.077  1.00  0.00    -0.481 OA 
ENDBRANCH  13  15
ENDBRANCH   2   6
TORSDOF 2
ENDMDL
MODEL       45
REMARK 921   NORMALIZED FREE ENERGY PREDICTED BY IDOCK:   -4.38 KCAL/MOL
REMARK 922        TOTAL FREE ENERGY PREDICTED BY IDOCK:   -5.26 KCAL/MOL
REMARK 923 INTER-LIGAND FREE ENERGY PREDICTED BY IDOCK:   -4.95 KCAL/MOL
REMARK 924 INTRA-LIGAND FREE ENERGY PREDICTED BY IDOCK:   -0.31 KCAL/MOL
REMARK 927      BINDING AFFINITY PREDICTED BY RF-SCORE:    0.00 PKD
ROOT
HETATM    1  N   UNL     1      -8.669  16.259  66.001  1.00  0.00    -0.315 N  
HETATM    2  C   UNL     1      -9.801  15.504  65.929  1.00  0.00    -0.353 C  
HETATM    3  H1  UNL     1      -8.043  16.171  66.801  1.00  0.00     0.000 HD 
HETATM    4  H2  UNL     1      -8.447  16.915  65.252  1.00  0.00     0.000 HD 
HETATM    5  O   UNL     1     -10.555  15.611  64.966  1.00  0.00    -0.418 OA 
ENDROOT
BRANCH   2   6
HETATM    6  C   UNL     1      -9.954  14.425  67.022  1.00  0.00    -0.257 C  
HETATM    7  C   UNL     1      -8.804  13.390  66.898  1.00  0.00    -0.185 C  
HETATM    8  C   UNL     1      -9.120  12.020  67.524  1.00  0.00    -0.177 C  
HETATM    9  C   UNL     1     -10.606  11.627  67.369  1.00  0.00    -0.220 C  
HETATM   10  C   UNL     1     -11.254  12.483  66.291  1.00  0.00    -0.315 C  
HETATM   11  N   UNL     1     -11.283  13.770  66.972  1.00  0.00    -0.302 N  
HETATM   12  C   UNL     1     -11.763  13.421  68.288  1.00  0.00    -0.356 C  
HETATM   13  N   UNL     1     -11.293  12.113  68.557  1.00  0.00    -0.250 N  
HETATM   14  O   UNL     1     -12.520  14.086  68.975  1.00  0.00    -0.214 OA 
BRANCH  13  15
HETATM   15  O   UNL     1     -12.355  11.266  68.975  1.00  0.00    -0.446 OA 
HETATM   16  S   UNL     1     -12.159  10.698  70.502  1.00  0.00    -0.385 S  
HETATM   17  O   UNL     1     -10.833  10.123  70.615  1.00  0.00    -0.308 OA 
HETATM   18  O   UNL     1     -13.342   9.939  70.841  1.00  0.00    -0.349 OA 
HETATM   19  O   UNL     1     -12.207  12.031  71.405  1.00  0.00    -0.098 OA 
ENDBRANCH  13  15
ENDBRANCH   2   6
TORSDOF 2
ENDMDL
MODEL       46
REMARK 921   NORMALIZED FREE ENERGY PREDICTED BY IDOCK:   -4.38 KCAL/MOL
REMARK 922        TOTAL FREE ENERGY PREDICTED BY IDOCK:   -5.26 KCAL/MOL
REMARK 923 INTER-LIGAND FREE ENERGY PREDICTED BY IDOCK:   -4.88 KCAL/MOL
REMARK 924 INTRA-LIGAND FREE ENERGY PREDICTED BY IDOCK:   -0.38 KCAL/MOL
REMARK 927      BINDING AFFINITY PREDICTED BY RF-SCORE:    0.00 PKD
ROOT
HETATM    1  N   UNL     1     -10.394  12.933  67.102  1.00  0.00    -0.237 N  
HETATM    2  C   UNL     1     -10.927  13.933  67.859  1.00  0.00    -0.250 C  
HETATM    3  H1  UNL     1      -9.601  13.122  66.488  1.00  0.00     0.000 HD 
HETATM    4  H2  UNL     1     -10.788  11.994  67.148  1.00  0.00     0.000 HD 
HETATM    5  O   UNL     1     -11.881  13.706  68.598  1.00  0.00    -0.337 OA 
ENDROOT
BRANCH   2   6
HETATM    6  C   UNL     1     -10.152  15.267  67.846  1.00  0.00    -0.233 C  
HETATM    7  C   UNL     1     -11.104  16.427  68.245  1.00  0.00    -0.337 C  
HETATM    8  C   UNL     1     -10.645  17.813  67.756  1.00  0.00    -0.392 C  
HETATM    9  C   UNL     1      -9.945  17.753  66.380  1.00  0.00    -0.344 C  
HETATM   10  C   UNL     1     -10.266  16.433  65.696  1.00  0.00    -0.324 C  
HETATM   11  N   UNL     1      -9.504  15.520  66.537  1.00  0.00    -0.252 N  
HETATM   12  C   UNL     1      -8.241  16.202  66.681  1.00  0.00    -0.286 C  
HETATM   13  N   UNL     1      -8.522  17.589  66.643  1.00  0.00    -0.247 N  
HETATM   14  O   UNL     1      -7.141  15.675  66.714  1.00  0.00    -0.194 OA 
BRANCH  13  15
HETATM   15  O   UNL     1      -7.698  18.250  65.692  1.00  0.00    -0.529 OA 
HETATM   16  S   UNL     1      -6.911  19.547  66.318  1.00  0.00    -0.233 S  
HETATM   17  O   UNL     1      -7.877  20.394  66.989  1.00  0.00    -0.317 OA 
HETATM   18  O   UNL     1      -6.038  20.066  65.289  1.00  0.00    -0.198 OA 
HETATM   19  O   UNL     1      -5.951  18.898  67.437  1.00  0.00    -0.167 OA 
ENDBRANCH  13  15
ENDBRANCH   2   6
TORSDOF 2
ENDMDL
MODEL       47
REMARK 921   NORMALIZED FREE ENERGY PREDICTED BY IDOCK:   -4.37 KCAL/MOL
REMARK 922        TOTAL FREE ENERGY PREDICTED BY IDOCK:   -5.26 KCAL/MOL
REMARK 923 INTER-LIGAND FREE ENERGY PREDICTED BY IDOCK:   -4.86 KCAL/MOL
REMARK 924 INTRA-LIGAND FREE ENERGY PREDICTED BY IDOCK:   -0.40 KCAL/MOL
REMARK 927      BINDING AFFINITY PREDICTED BY RF-SCORE:    0.00 PKD
ROOT
HETATM    1  N   UNL     1     -13.958   9.025  72.948  1.00  0.00    -0.896 N  
HETATM    2  C   UNL     1     -13.187   9.688  72.040  1.00  0.00    -0.453 C  
HETATM    3  H1  UNL     1     -13.907   8.009  73.017  1.00  0.00     0.000 HD 
HETATM    4  H2  UNL     1     -14.587   9.546  73.558  1.00  0.00     0.000 HD 
HETATM    5  O   UNL     1     -13.248  10.912  71.956  1.00  0.00    -0.492 OA 
ENDROOT
BRANCH   2   6
HETATM    6  C   UNL     1     -12.148   8.828  71.290  1.00  0.00    -0.296 C  
HETATM    7  C   UNL     1     -12.576   7.337  71.334  1.00  0.00    -0.423 C  
HETATM    8  C   UNL     1     -11.418   6.344  71.128  1.00  0.00    -0.381 C  
HETATM    9  C   UNL     1     -10.093   6.844  71.747  1.00  0.00    -0.185 C  
HETATM   10  C   UNL     1     -10.378   7.959  72.742  1.00  0.00    -0.333 C  
HETATM   11  N   UNL     1     -10.779   9.019  71.825  1.00  0.00    -0.361 N  
HETATM   12  C   UNL     1      -9.778   8.938  70.790  1.00  0.00    -0.227 C  
HETATM   13  N   UNL     1      -9.394   7.577  70.701  1.00  0.00    -0.163 N  
HETATM   14  O   UNL     1      -9.283   9.880  70.194  1.00  0.00    -0.228 OA 
BRANCH  13  15
HETATM   15  O   UNL     1      -7.981   7.440  70.771  1.00  0.00    -0.101 OA 
HETATM   16  S   UNL     1      -7.352   6.635  69.487  1.00  0.00    -0.093 S  
HETATM   17  O   UNL     1      -8.082   5.395  69.316  1.00  0.00    -0.091 OA 
HETATM   18  O   UNL     1      -5.913   6.650  69.625  1.00  0.00    -0.018 OA 
HETATM   19  O   UNL     1      -7.694   7.595  68.239  1.00  0.00    -0.114 OA 
ENDBRANCH  13  15
ENDBRANCH   2   6
TORSDOF 2
ENDMDL
MODEL       48
REMARK 921   NORMALIZED FREE ENERGY PREDICTED BY IDOCK:   -4.33 KCAL/MOL
REMARK 922        TOTAL FREE ENERGY PREDICTED BY IDOCK:   -5.21 KCAL/MOL
REMARK 923 INTER-LIGAND FREE ENERGY PREDICTED BY IDOCK:   -4.81 KCAL/MOL
REMARK 924 INTRA-LIGAND FREE ENERGY PREDICTED BY IDOCK:   -0.40 KCAL/MOL
REMARK 927      BINDING AFFINITY PREDICTED BY RF-SCORE:    0.00 PKD
ROOT
HETATM    1  N   UNL     1     -10.955  14.129  69.680  1.00  0.00    -0.437 N  
HETATM    2  C   UNL     1     -11.223  14.753  68.499  1.00  0.00    -0.276 C  
HETATM    3  H1  UNL     1     -10.457  13.239  69.689  1.00  0.00     0.000 HD 
HETATM    4  H2  UNL     1     -11.253  14.553  70.559  1.00  0.00     0.000 HD 
HETATM    5  O   UNL     1     -11.822  15.824  68.488  1.00  0.00    -0.363 OA 
ENDROOT
BRANCH   2   6
HETATM    6  C   UNL     1     -10.581  14.118  67.247  1.00  0.00    -0.277 C  
HETATM    7  C   UNL     1     -10.748  15.072  66.035  1.00  0.00    -0.329 C  
HETATM    8  C   UNL     1     -10.663  14.371  64.666  1.00  0.00    -0.357 C  
HETATM    9  C   UNL     1     -11.271  12.951  64.691  1.00  0.00    -0.320 C  
HETATM   10  C   UNL     1     -12.153  12.790  65.920  1.00  0.00    -0.426 C  
HETATM   11  N   UNL     1     -11.135  12.772  66.962  1.00  0.00    -0.267 N  
HETATM   12  C   UNL     1     -10.139  11.882  66.416  1.00  0.00    -0.214 C  
HETATM   13  N   UNL     1     -10.183  12.037  65.009  1.00  0.00    -0.270 N  
HETATM   14  O   UNL     1      -9.475  11.076  67.046  1.00  0.00    -0.170 OA 
BRANCH  13  15
HETATM   15  O   UNL     1     -10.303  10.777  64.361  1.00  0.00    -0.353 OA 
HETATM   16  S   UNL     1      -9.106  10.499  63.275  1.00  0.00    -0.285 S  
HETATM   17  O   UNL     1      -9.014  11.641  62.386  1.00  0.00    -0.273 OA 
HETATM   18  O   UNL     1      -9.283   9.158  62.764  1.00  0.00    -0.065 OA 
HETATM   19  O   UNL     1      -7.777  10.462  64.184  1.00  0.00    -0.129 OA 
ENDBRANCH  13  15
ENDBRANCH   2   6
TORSDOF 2
ENDMDL
MODEL       49
REMARK 921   NORMALIZED FREE ENERGY PREDICTED BY IDOCK:   -4.31 KCAL/MOL
REMARK 922        TOTAL FREE ENERGY PREDICTED BY IDOCK:   -5.19 KCAL/MOL
REMARK 923 INTER-LIGAND FREE ENERGY PREDICTED BY IDOCK:   -4.81 KCAL/MOL
REMARK 924 INTRA-LIGAND FREE ENERGY PREDICTED BY IDOCK:   -0.38 KCAL/MOL
REMARK 927      BINDING AFFINITY PREDICTED BY RF-SCORE:    0.00 PKD
ROOT
HETATM    1  N   UNL     1     -13.985   9.085  72.906  1.00  0.00    -0.896 N  
HETATM    2  C   UNL     1     -13.039   9.722  72.161  1.00  0.00    -0.422 C  
HETATM    3  H1  UNL     1     -13.854   8.110  73.176  1.00  0.00     0.000 HD 
HETATM    4  H2  UNL     1     -14.827   9.583  73.194  1.00  0.00     0.000 HD 
HETATM    5  O   UNL     1     -13.197  10.895  71.835  1.00  0.00    -0.467 OA 
ENDROOT
BRANCH   2   6
HETATM    6  C   UNL     1     -11.732   8.936  71.926  1.00  0.00    -0.369 C  
HETATM    7  C   UNL     1     -11.250   9.150  70.466  1.00  0.00    -0.309 C  
HETATM    8  C   UNL     1     -10.318   8.042  69.943  1.00  0.00    -0.221 C  
HETATM    9  C   UNL     1     -10.689   6.647  70.495  1.00  0.00    -0.247 C  
HETATM   10  C   UNL     1     -12.102   6.676  71.059  1.00  0.00    -0.327 C  
HETATM   11  N   UNL     1     -11.886   7.496  72.243  1.00  0.00    -0.301 N  
HETATM   12  C   UNL     1     -10.680   6.934  72.802  1.00  0.00    -0.255 C  
HETATM   13  N   UNL     1      -9.910   6.460  71.712  1.00  0.00    -0.164 N  
HETATM   14  O   UNL     1     -10.435   6.797  73.988  1.00  0.00    -0.364 OA 
BRANCH  13  15
HETATM   15  O   UNL     1      -9.511   5.112  71.918  1.00  0.00    -0.143 OA 
HETATM   16  S   UNL     1      -7.883   4.912  71.879  1.00  0.00    -0.110 S  
HETATM   17  O   UNL     1      -7.371   5.527  70.670  1.00  0.00    -0.074 OA 
HETATM   18  O   UNL     1      -7.605   3.530  72.198  1.00  0.00    -0.055 OA 
HETATM   19  O   UNL     1      -7.370   5.777  73.137  1.00  0.00    -0.092 OA 
ENDBRANCH  13  15
ENDBRANCH   2   6
TORSDOF 2
ENDMDL
MODEL       50
REMARK 921   NORMALIZED FREE ENERGY PREDICTED BY IDOCK:   -4.26 KCAL/MOL
REMARK 922        TOTAL FREE ENERGY PREDICTED BY IDOCK:   -5.13 KCAL/MOL
REMARK 923 INTER-LIGAND FREE ENERGY PREDICTED BY IDOCK:   -4.81 KCAL/MOL
REMARK 924 INTRA-LIGAND FREE ENERGY PREDICTED BY IDOCK:   -0.32 KCAL/MOL
REMARK 927      BINDING AFFINITY PREDICTED BY RF-SCORE:    0.00 PKD
ROOT
HETATM    1  N   UNL     1     -12.466  14.294  67.248  1.00  0.00    -0.536 N  
HETATM    2  C   UNL     1     -12.597  13.724  66.017  1.00  0.00    -0.408 C  
HETATM    3  H1  UNL     1     -11.932  13.821  67.977  1.00  0.00     0.000 HD 
HETATM    4  H2  UNL     1     -12.904  15.194  67.441  1.00  0.00     0.000 HD 
HETATM    5  O   UNL     1     -13.241  14.292  65.139  1.00  0.00    -0.686 OA 
ENDROOT
BRANCH   2   6
HETATM    6  C   UNL     1     -11.757  12.452  65.776  1.00  0.00    -0.414 C  
HETATM    7  C   UNL     1     -11.661  11.634  67.091  1.00  0.00    -0.291 C  
HETATM    8  C   UNL     1     -10.453  10.681  67.153  1.00  0.00    -0.295 C  
HETATM    9  C   UNL     1      -9.207  11.260  66.445  1.00  0.00    -0.192 C  
HETATM   10  C   UNL     1      -9.375  12.760  66.252  1.00  0.00    -0.152 C  
HETATM   11  N   UNL     1     -10.415  12.769  65.232  1.00  0.00    -0.287 N  
HETATM   12  C   UNL     1      -9.957  11.764  64.304  1.00  0.00    -0.257 C  
HETATM   13  N   UNL     1      -9.257  10.796  65.066  1.00  0.00    -0.203 N  
HETATM   14  O   UNL     1     -10.060  11.808  63.090  1.00  0.00    -0.418 OA 
BRANCH  13  15
HETATM   15  O   UNL     1      -7.972  10.544  64.513  1.00  0.00    -0.127 OA 
HETATM   16  S   UNL     1      -7.794   9.002  63.985  1.00  0.00    -0.141 S  
HETATM   17  O   UNL     1      -8.194   8.099  65.047  1.00  0.00    -0.147 OA 
HETATM   18  O   UNL     1      -6.493   8.902  63.361  1.00  0.00    -0.089 OA 
HETATM   19  O   UNL     1      -8.874   8.886  62.795  1.00  0.00    -0.169 OA 
ENDBRANCH  13  15
ENDBRANCH   2   6
TORSDOF 2
ENDMDL
MODEL       51
REMARK 921   NORMALIZED FREE ENERGY PREDICTED BY IDOCK:   -4.25 KCAL/MOL
REMARK 922        TOTAL FREE ENERGY PREDICTED BY IDOCK:   -5.12 KCAL/MOL
REMARK 923 INTER-LIGAND FREE ENERGY PREDICTED BY IDOCK:   -4.76 KCAL/MOL
REMARK 924 INTRA-LIGAND FREE ENERGY PREDICTED BY IDOCK:   -0.37 KCAL/MOL
REMARK 927      BINDING AFFINITY PREDICTED BY RF-SCORE:    0.00 PKD
ROOT
HETATM    1  N   UNL     1      -6.481  12.890  69.933  1.00  0.00    -0.343 N  
HETATM    2  C   UNL     1      -6.520  14.006  69.150  1.00  0.00    -0.113 C  
HETATM    3  H1  UNL     1      -7.146  12.132  69.777  1.00  0.00     0.000 HD 
HETATM    4  H2  UNL     1      -5.787  12.813  70.675  1.00  0.00     0.000 HD 
HETATM    5  O   UNL     1      -5.720  14.918  69.338  1.00  0.00    -0.094 OA 
ENDROOT
BRANCH   2   6
HETATM    6  C   UNL     1      -7.489  13.948  67.951  1.00  0.00    -0.152 C  
HETATM    7  C   UNL     1      -7.554  15.339  67.266  1.00  0.00    -0.244 C  
HETATM    8  C   UNL     1      -8.836  15.578  66.446  1.00  0.00    -0.359 C  
HETATM    9  C   UNL     1     -10.076  14.908  67.080  1.00  0.00    -0.240 C  
HETATM   10  C   UNL     1      -9.787  14.561  68.533  1.00  0.00    -0.231 C  
HETATM   11  N   UNL     1      -8.836  13.473  68.349  1.00  0.00    -0.173 N  
HETATM   12  C   UNL     1      -9.457  12.681  67.315  1.00  0.00    -0.199 C  
HETATM   13  N   UNL     1     -10.179  13.579  66.493  1.00  0.00    -0.277 N  
HETATM   14  O   UNL     1      -9.448  11.463  67.241  1.00  0.00    -0.166 OA 
BRANCH  13  15
HETATM   15  O   UNL     1     -11.521  13.147  66.320  1.00  0.00    -0.309 OA 
HETATM   16  S   UNL     1     -11.991  13.125  64.749  1.00  0.00    -0.415 S  
HETATM   17  O   UNL     1     -11.678  14.410  64.155  1.00  0.00    -0.332 OA 
HETATM   18  O   UNL     1     -13.327  12.576  64.700  1.00  0.00    -0.804 OA 
HETATM   19  O   UNL     1     -11.026  12.018  64.086  1.00  0.00    -0.306 OA 
ENDBRANCH  13  15
ENDBRANCH   2   6
TORSDOF 2
ENDMDL
MODEL       52
REMARK 921   NORMALIZED FREE ENERGY PREDICTED BY IDOCK:   -4.24 KCAL/MOL
REMARK 922        TOTAL FREE ENERGY PREDICTED BY IDOCK:   -5.11 KCAL/MOL
REMARK 923 INTER-LIGAND FREE ENERGY PREDICTED BY IDOCK:   -4.75 KCAL/MOL
REMARK 924 INTRA-LIGAND FREE ENERGY PREDICTED BY IDOCK:   -0.37 KCAL/MOL
REMARK 927      BINDING AFFINITY PREDICTED BY RF-SCORE:    0.00 PKD
ROOT
HETATM    1  N   UNL     1     -12.277  15.370  68.760  1.00  0.00    -0.593 N  
HETATM    2  C   UNL     1     -11.842  14.365  67.949  1.00  0.00    -0.349 C  
HETATM    3  H1  UNL     1     -12.231  15.266  69.774  1.00  0.00     0.000 HD 
HETATM    4  H2  UNL     1     -12.651  16.227  68.354  1.00  0.00     0.000 HD 
HETATM    5  O   UNL     1     -11.899  14.489  66.728  1.00  0.00    -0.392 OA 
ENDROOT
BRANCH   2   6
HETATM    6  C   UNL     1     -11.139  13.189  68.658  1.00  0.00    -0.269 C  
HETATM    7  C   UNL     1      -9.686  13.054  68.129  1.00  0.00    -0.228 C  
HETATM    8  C   UNL     1      -9.075  11.654  68.320  1.00  0.00    -0.187 C  
HETATM    9  C   UNL     1     -10.120  10.526  68.165  1.00  0.00    -0.158 C  
HETATM   10  C   UNL     1     -11.357  11.064  67.461  1.00  0.00    -0.257 C  
HETATM   11  N   UNL     1     -11.893  11.921  68.511  1.00  0.00    -0.319 N  
HETATM   12  C   UNL     1     -11.786  11.089  69.684  1.00  0.00    -0.342 C  
HETATM   13  N   UNL     1     -10.651  10.264  69.495  1.00  0.00    -0.228 N  
HETATM   14  O   UNL     1     -12.589  11.036  70.601  1.00  0.00    -0.337 OA 
BRANCH  13  15
HETATM   15  O   UNL     1     -10.973   8.896  69.709  1.00  0.00    -0.230 OA 
HETATM   16  S   UNL     1      -9.988   8.169  70.801  1.00  0.00    -0.190 S  
HETATM   17  O   UNL     1      -8.612   8.424  70.423  1.00  0.00    -0.127 OA 
HETATM   18  O   UNL     1     -10.478   6.823  71.002  1.00  0.00    -0.209 OA 
HETATM   19  O   UNL     1     -10.290   8.966  72.167  1.00  0.00    -0.333 OA 
ENDBRANCH  13  15
ENDBRANCH   2   6
TORSDOF 2
ENDMDL
MODEL       53
REMARK 921   NORMALIZED FREE ENERGY PREDICTED BY IDOCK:   -4.22 KCAL/MOL
REMARK 922        TOTAL FREE ENERGY PREDICTED BY IDOCK:   -5.09 KCAL/MOL
REMARK 923 INTER-LIGAND FREE ENERGY PREDICTED BY IDOCK:   -4.70 KCAL/MOL
REMARK 924 INTRA-LIGAND FREE ENERGY PREDICTED BY IDOCK:   -0.39 KCAL/MOL
REMARK 927      BINDING AFFINITY PREDICTED BY RF-SCORE:    0.00 PKD
ROOT
HETATM    1  N   UNL     1      -9.539   9.514  64.913  1.00  0.00    -0.446 N  
HETATM    2  C   UNL     1     -10.033  10.550  65.647  1.00  0.00    -0.270 C  
HETATM    3  H1  UNL     1      -9.537   8.569  65.296  1.00  0.00     0.000 HD 
HETATM    4  H2  UNL     1      -9.171   9.683  63.977  1.00  0.00     0.000 HD 
HETATM    5  O   UNL     1     -10.035  11.688  65.186  1.00  0.00    -0.245 OA 
ENDROOT
BRANCH   2   6
HETATM    6  C   UNL     1     -10.720  10.162  66.973  1.00  0.00    -0.196 C  
HETATM    7  C   UNL     1     -11.437  11.402  67.571  1.00  0.00    -0.336 C  
HETATM    8  C   UNL     1     -11.678  11.318  69.090  1.00  0.00    -0.410 C  
HETATM    9  C   UNL     1     -10.537  10.584  69.830  1.00  0.00    -0.227 C  
HETATM   10  C   UNL     1      -9.305  10.518  68.939  1.00  0.00    -0.187 C  
HETATM   11  N   UNL     1      -9.767   9.565  67.939  1.00  0.00    -0.144 N  
HETATM   12  C   UNL     1     -10.383   8.537  68.741  1.00  0.00    -0.213 C  
HETATM   13  N   UNL     1     -10.912   9.178  69.887  1.00  0.00    -0.229 N  
HETATM   14  O   UNL     1     -10.347   7.338  68.521  1.00  0.00    -0.180 OA 
BRANCH  13  15
HETATM   15  O   UNL     1     -10.482   8.533  71.078  1.00  0.00    -0.199 OA 
HETATM   16  S   UNL     1     -11.726   8.087  72.050  1.00  0.00    -0.347 S  
HETATM   17  O   UNL     1     -12.590   9.234  72.251  1.00  0.00    -0.369 OA 
HETATM   18  O   UNL     1     -11.167   7.359  73.168  1.00  0.00    -0.335 OA 
HETATM   19  O   UNL     1     -12.525   7.005  71.163  1.00  0.00    -0.368 OA 
ENDBRANCH  13  15
ENDBRANCH   2   6
TORSDOF 2
ENDMDL
MODEL       54
REMARK 921   NORMALIZED FREE ENERGY PREDICTED BY IDOCK:   -4.21 KCAL/MOL
REMARK 922        TOTAL FREE ENERGY PREDICTED BY IDOCK:   -5.08 KCAL/MOL
REMARK 923 INTER-LIGAND FREE ENERGY PREDICTED BY IDOCK:   -4.75 KCAL/MOL
REMARK 924 INTRA-LIGAND FREE ENERGY PREDICTED BY IDOCK:   -0.33 KCAL/MOL
REMARK 927      BINDING AFFINITY PREDICTED BY RF-SCORE:    0.00 PKD
ROOT
HETATM    1  N   UNL     1      -9.751  17.770  66.093  1.00  0.00    -0.260 N  
HETATM    2  C   UNL     1     -10.574  16.832  65.544  1.00  0.00    -0.230 C  
HETATM    3  H1  UNL     1      -9.445  17.680  67.061  1.00  0.00     0.000 HD 
HETATM    4  H2  UNL     1      -9.441  18.564  65.533  1.00  0.00     0.000 HD 
HETATM    5  O   UNL     1     -10.942  16.940  64.378  1.00  0.00    -1.016 OA 
ENDROOT
BRANCH   2   6
HETATM    6  C   UNL     1     -10.843  15.587  66.416  1.00  0.00    -0.277 C  
HETATM    7  C   UNL     1     -11.213  16.030  67.857  1.00  0.00    -0.276 C  
HETATM    8  C   UNL     1     -10.972  14.951  68.928  1.00  0.00    -0.257 C  
HETATM    9  C   UNL     1      -9.731  14.081  68.623  1.00  0.00    -0.179 C  
HETATM   10  C   UNL     1      -8.854  14.779  67.594  1.00  0.00    -0.179 C  
HETATM   11  N   UNL     1      -9.696  14.648  66.412  1.00  0.00    -0.281 N  
HETATM   12  C   UNL     1     -10.124  13.272  66.480  1.00  0.00    -0.275 C  
HETATM   13  N   UNL     1     -10.203  12.938  67.854  1.00  0.00    -0.227 N  
HETATM   14  O   UNL     1     -10.275  12.520  65.532  1.00  0.00    -0.269 OA 
BRANCH  13  15
HETATM   15  O   UNL     1      -9.484  11.744  68.130  1.00  0.00    -0.181 OA 
HETATM   16  S   UNL     1     -10.391  10.613  68.898  1.00  0.00    -0.219 S  
HETATM   17  O   UNL     1     -11.023  11.230  70.048  1.00  0.00    -0.137 OA 
HETATM   18  O   UNL     1      -9.583   9.421  69.031  1.00  0.00    -0.158 OA 
HETATM   19  O   UNL     1     -11.538  10.261  67.823  1.00  0.00    -0.331 OA 
ENDBRANCH  13  15
ENDBRANCH   2   6
TORSDOF 2
ENDMDL
MODEL       55
REMARK 921   NORMALIZED FREE ENERGY PREDICTED BY IDOCK:   -4.21 KCAL/MOL
REMARK 922        TOTAL FREE ENERGY PREDICTED BY IDOCK:   -5.08 KCAL/MOL
REMARK 923 INTER-LIGAND FREE ENERGY PREDICTED BY IDOCK:   -4.73 KCAL/MOL
REMARK 924 INTRA-LIGAND FREE ENERGY PREDICTED BY IDOCK:   -0.34 KCAL/MOL
REMARK 927      BINDING AFFINITY PREDICTED BY RF-SCORE:    0.00 PKD
ROOT
HETATM    1  N   UNL     1      -6.535   8.137  66.115  1.00  0.00    -0.046 N  
HETATM    2  C   UNL     1      -7.853   8.186  66.457  1.00  0.00    -0.093 C  
HETATM    3  H1  UNL     1      -6.061   8.974  65.777  1.00  0.00     0.000 HD 
HETATM    4  H2  UNL     1      -6.021   7.259  66.196  1.00  0.00     0.000 HD 
HETATM    5  O   UNL     1      -8.424   7.178  66.863  1.00  0.00    -0.118 OA 
ENDROOT
BRANCH   2   6
HETATM    6  C   UNL     1      -8.490   9.592  66.462  1.00  0.00    -0.123 C  
HETATM    7  C   UNL     1      -8.238  10.274  67.833  1.00  0.00    -0.109 C  
HETATM    8  C   UNL     1      -9.240  11.392  68.173  1.00  0.00    -0.178 C  
HETATM    9  C   UNL     1     -10.662  11.092  67.646  1.00  0.00    -0.230 C  
HETATM   10  C   UNL     1     -10.786   9.613  67.313  1.00  0.00    -0.214 C  
HETATM   11  N   UNL     1      -9.935   9.548  66.132  1.00  0.00    -0.275 N  
HETATM   12  C   UNL     1     -10.352  10.703  65.376  1.00  0.00    -0.233 C  
HETATM   13  N   UNL     1     -10.748  11.684  66.318  1.00  0.00    -0.263 N  
HETATM   14  O   UNL     1     -10.449  10.770  64.162  1.00  0.00    -0.364 OA 
BRANCH  13  15
HETATM   15  O   UNL     1     -12.041  12.190  66.014  1.00  0.00    -0.612 OA 
HETATM   16  S   UNL     1     -12.062  13.819  65.819  1.00  0.00    -0.459 S  
HETATM   17  O   UNL     1     -11.416  14.430  66.964  1.00  0.00    -0.331 OA 
HETATM   18  O   UNL     1     -13.400  14.193  65.419  1.00  0.00    -0.705 OA 
HETATM   19  O   UNL     1     -11.125  14.053  64.530  1.00  0.00    -0.381 OA 
ENDBRANCH  13  15
ENDBRANCH   2   6
TORSDOF 2
ENDMDL
MODEL       56
REMARK 921   NORMALIZED FREE ENERGY PREDICTED BY IDOCK:   -4.21 KCAL/MOL
REMARK 922        TOTAL FREE ENERGY PREDICTED BY IDOCK:   -5.08 KCAL/MOL
REMARK 923 INTER-LIGAND FREE ENERGY PREDICTED BY IDOCK:   -4.67 KCAL/MOL
REMARK 924 INTRA-LIGAND FREE ENERGY PREDICTED BY IDOCK:   -0.40 KCAL/MOL
REMARK 927      BINDING AFFINITY PREDICTED BY RF-SCORE:    0.00 PKD
ROOT
HETATM    1  N   UNL     1      -9.688   7.996  70.911  1.00  0.00    -0.164 N  
HETATM    2  C   UNL     1     -10.710   8.886  70.761  1.00  0.00    -0.233 C  
HETATM    3  H1  UNL     1      -9.228   7.601  70.091  1.00  0.00     0.000 HD 
HETATM    4  H2  UNL     1      -9.383   7.723  71.845  1.00  0.00     0.000 HD 
HETATM    5  O   UNL     1     -11.264   9.360  71.749  1.00  0.00    -0.376 OA 
ENDROOT
BRANCH   2   6
HETATM    6  C   UNL     1     -10.977   9.360  69.318  1.00  0.00    -0.117 C  
HETATM    7  C   UNL     1     -10.444   8.303  68.314  1.00  0.00    -0.211 C  
HETATM    8  C   UNL     1     -10.146   8.862  66.911  1.00  0.00    -0.343 C  
HETATM    9  C   UNL     1      -9.605  10.309  66.953  1.00  0.00    -0.173 C  
HETATM   10  C   UNL     1      -9.121  10.636  68.358  1.00  0.00    -0.156 C  
HETATM   11  N   UNL     1     -10.397  10.699  69.058  1.00  0.00    -0.207 N  
HETATM   12  C   UNL     1     -11.214  11.476  68.157  1.00  0.00    -0.271 C  
HETATM   13  N   UNL     1     -10.761  11.189  66.847  1.00  0.00    -0.262 N  
HETATM   14  O   UNL     1     -12.051  12.302  68.480  1.00  0.00    -0.279 OA 
BRANCH  13  15
HETATM   15  O   UNL     1     -10.489  12.384  66.127  1.00  0.00    -0.240 OA 
HETATM   16  S   UNL     1     -11.339  12.497  64.729  1.00  0.00    -0.327 S  
HETATM   17  O   UNL     1     -11.156  11.272  63.976  1.00  0.00    -0.372 OA 
HETATM   18  O   UNL     1     -11.052  13.789  64.147  1.00  0.00    -0.329 OA 
HETATM   19  O   UNL     1     -12.870  12.557  65.225  1.00  0.00    -0.613 OA 
ENDBRANCH  13  15
ENDBRANCH   2   6
TORSDOF 2
ENDMDL
MODEL       57
REMARK 921   NORMALIZED FREE ENERGY PREDICTED BY IDOCK:   -4.20 KCAL/MOL
REMARK 922        TOTAL FREE ENERGY PREDICTED BY IDOCK:   -5.06 KCAL/MOL
REMARK 923 INTER-LIGAND FREE ENERGY PREDICTED BY IDOCK:   -4.69 KCAL/MOL
REMARK 924 INTRA-LIGAND FREE ENERGY PREDICTED BY IDOCK:   -0.38 KCAL/MOL
REMARK 927      BINDING AFFINITY PREDICTED BY RF-SCORE:    0.00 PKD
ROOT
HETATM    1  N   UNL     1      -8.823   9.766  66.746  1.00  0.00    -0.137 N  
HETATM    2  C   UNL     1      -9.988  10.012  67.410  1.00  0.00    -0.197 C  
HETATM    3  H1  UNL     1      -8.163  10.524  66.571  1.00  0.00     0.000 HD 
HETATM    4  H2  UNL     1      -8.610   8.823  66.423  1.00  0.00     0.000 HD 
HETATM    5  O   UNL     1     -10.782   9.099  67.620  1.00  0.00    -0.262 OA 
ENDROOT
BRANCH   2   6
HETATM    6  C   UNL     1     -10.133  11.428  68.004  1.00  0.00    -0.180 C  
HETATM    7  C   UNL     1     -11.205  11.415  69.127  1.00  0.00    -0.335 C  
HETATM    8  C   UNL     1     -11.832  12.792  69.414  1.00  0.00    -0.359 C  
HETATM    9  C   UNL     1     -11.980  13.651  68.138  1.00  0.00    -0.355 C  
HETATM   10  C   UNL     1     -11.863  12.768  66.906  1.00  0.00    -0.371 C  
HETATM   11  N   UNL     1     -10.446  12.437  66.964  1.00  0.00    -0.220 N  
HETATM   12  C   UNL     1      -9.834  13.713  67.247  1.00  0.00    -0.241 C  
HETATM   13  N   UNL     1     -10.763  14.444  68.026  1.00  0.00    -0.239 N  
HETATM   14  O   UNL     1      -8.773  14.114  66.801  1.00  0.00    -0.208 OA 
BRANCH  13  15
HETATM   15  O   UNL     1     -10.986  15.735  67.475  1.00  0.00    -0.318 OA 
HETATM   16  S   UNL     1     -10.591  16.949  68.506  1.00  0.00    -0.370 S  
HETATM   17  O   UNL     1     -11.240  16.704  69.779  1.00  0.00    -0.237 OA 
HETATM   18  O   UNL     1     -10.767  18.197  67.798  1.00  0.00    -0.412 OA 
HETATM   19  O   UNL     1      -9.004  16.766  68.708  1.00  0.00    -0.248 OA 
ENDBRANCH  13  15
ENDBRANCH   2   6
TORSDOF 2
ENDMDL
MODEL       58
REMARK 921   NORMALIZED FREE ENERGY PREDICTED BY IDOCK:   -4.16 KCAL/MOL
REMARK 922        TOTAL FREE ENERGY PREDICTED BY IDOCK:   -5.02 KCAL/MOL
REMARK 923 INTER-LIGAND FREE ENERGY PREDICTED BY IDOCK:   -4.66 KCAL/MOL
REMARK 924 INTRA-LIGAND FREE ENERGY PREDICTED BY IDOCK:   -0.36 KCAL/MOL
REMARK 927      BINDING AFFINITY PREDICTED BY RF-SCORE:    0.00 PKD
ROOT
HETATM    1  N   UNL     1     -10.870   6.814  73.594  1.00  0.00    -0.514 N  
HETATM    2  C   UNL     1     -11.466   6.260  72.500  1.00  0.00    -0.261 C  
HETATM    3  H1  UNL     1     -10.360   7.693  73.509  1.00  0.00     0.000 HD 
HETATM    4  H2  UNL     1     -10.933   6.348  74.499  1.00  0.00     0.000 HD 
HETATM    5  O   UNL     1     -12.079   5.201  72.602  1.00  0.00    -0.067 OA 
ENDROOT
BRANCH   2   6
HETATM    6  C   UNL     1     -11.459   7.126  71.223  1.00  0.00    -0.282 C  
HETATM    7  C   UNL     1     -11.079   6.249  70.001  1.00  0.00    -0.455 C  
HETATM    8  C   UNL     1     -10.509   7.043  68.810  1.00  0.00    -0.222 C  
HETATM    9  C   UNL     1      -9.657   8.251  69.259  1.00  0.00    -0.164 C  
HETATM   10  C   UNL     1      -9.265   8.091  70.720  1.00  0.00    -0.157 C  
HETATM   11  N   UNL     1     -10.560   8.298  71.354  1.00  0.00    -0.215 N  
HETATM   12  C   UNL     1     -11.073   9.452  70.656  1.00  0.00    -0.289 C  
HETATM   13  N   UNL     1     -10.560   9.392  69.338  1.00  0.00    -0.217 N  
HETATM   14  O   UNL     1     -11.727  10.357  71.149  1.00  0.00    -0.352 OA 
BRANCH  13  15
HETATM   15  O   UNL     1      -9.943  10.619  68.974  1.00  0.00    -0.198 OA 
HETATM   16  S   UNL     1     -10.551  11.256  67.589  1.00  0.00    -0.227 S  
HETATM   17  O   UNL     1     -10.535  10.231  66.563  1.00  0.00    -0.223 OA 
HETATM   18  O   UNL     1      -9.918  12.539  67.384  1.00  0.00    -0.204 OA 
HETATM   19  O   UNL     1     -12.087  11.567  67.963  1.00  0.00    -0.617 OA 
ENDBRANCH  13  15
ENDBRANCH   2   6
TORSDOF 2
ENDMDL
MODEL       59
REMARK 921   NORMALIZED FREE ENERGY PREDICTED BY IDOCK:   -4.14 KCAL/MOL
REMARK 922        TOTAL FREE ENERGY PREDICTED BY IDOCK:   -5.00 KCAL/MOL
REMARK 923 INTER-LIGAND FREE ENERGY PREDICTED BY IDOCK:   -4.65 KCAL/MOL
REMARK 924 INTRA-LIGAND FREE ENERGY PREDICTED BY IDOCK:   -0.35 KCAL/MOL
REMARK 927      BINDING AFFINITY PREDICTED BY RF-SCORE:    0.00 PKD
ROOT
HETATM    1  N   UNL     1     -12.766  12.209  63.193  1.00  0.00    -0.821 N  
HETATM    2  C   UNL     1     -12.246  12.500  64.419  1.00  0.00    -0.449 C  
HETATM    3  H1  UNL     1     -12.155  11.902  62.436  1.00  0.00     0.000 HD 
HETATM    4  H2  UNL     1     -13.769  12.298  63.032  1.00  0.00     0.000 HD 
HETATM    5  O   UNL     1     -12.981  12.870  65.329  1.00  0.00    -0.703 OA 
ENDROOT
BRANCH   2   6
HETATM    6  C   UNL     1     -10.750  12.168  64.606  1.00  0.00    -0.304 C  
HETATM    7  C   UNL     1     -10.255  11.304  63.416  1.00  0.00    -0.454 C  
HETATM    8  C   UNL     1      -9.000  10.467  63.726  1.00  0.00    -0.247 C  
HETATM    9  C   UNL     1      -8.975   9.958  65.185  1.00  0.00    -0.198 C  
HETATM   10  C   UNL     1     -10.367  10.060  65.790  1.00  0.00    -0.121 C  
HETATM   11  N   UNL     1     -10.488  11.507  65.907  1.00  0.00    -0.248 N  
HETATM   12  C   UNL     1      -9.211  11.888  66.459  1.00  0.00    -0.214 C  
HETATM   13  N   UNL     1      -8.261  10.961  65.964  1.00  0.00    -0.164 N  
HETATM   14  O   UNL     1      -9.018  12.768  67.281  1.00  0.00    -0.183 OA 
BRANCH  13  15
HETATM   15  O   UNL     1      -7.492  10.405  67.021  1.00  0.00    -0.094 OA 
HETATM   16  S   UNL     1      -5.879  10.429  66.722  1.00  0.00    -0.063 S  
HETATM   17  O   UNL     1      -5.642   9.845  65.416  1.00  0.00    -0.053 OA 
HETATM   18  O   UNL     1      -5.208   9.934  67.903  1.00  0.00    -0.036 OA 
HETATM   19  O   UNL     1      -5.537  12.001  66.637  1.00  0.00    -0.298 OA 
ENDBRANCH  13  15
ENDBRANCH   2   6
TORSDOF 2
ENDMDL
MODEL       60
REMARK 921   NORMALIZED FREE ENERGY PREDICTED BY IDOCK:   -4.13 KCAL/MOL
REMARK 922        TOTAL FREE ENERGY PREDICTED BY IDOCK:   -4.99 KCAL/MOL
REMARK 923 INTER-LIGAND FREE ENERGY PREDICTED BY IDOCK:   -4.69 KCAL/MOL
REMARK 924 INTRA-LIGAND FREE ENERGY PREDICTED BY IDOCK:   -0.30 KCAL/MOL
REMARK 927      BINDING AFFINITY PREDICTED BY RF-SCORE:    0.00 PKD
ROOT
HETATM    1  N   UNL     1      -7.685  18.381  66.514  1.00  0.00    -0.242 N  
HETATM    2  C   UNL     1      -8.916  18.598  67.058  1.00  0.00    -0.285 C  
HETATM    3  H1  UNL     1      -7.306  17.435  66.464  1.00  0.00     0.000 HD 
HETATM    4  H2  UNL     1      -7.141  19.166  66.156  1.00  0.00     0.000 HD 
HETATM    5  O   UNL     1      -9.371  19.736  67.119  1.00  0.00    -0.319 OA 
ENDROOT
BRANCH   2   6
HETATM    6  C   UNL     1      -9.724  17.331  67.408  1.00  0.00    -0.258 C  
HETATM    7  C   UNL     1     -10.576  17.591  68.680  1.00  0.00    -0.288 C  
HETATM    8  C   UNL     1     -10.981  16.314  69.437  1.00  0.00    -0.337 C  
HETATM    9  C   UNL     1      -9.889  15.221  69.381  1.00  0.00    -0.252 C  
HETATM   10  C   UNL     1      -8.563  15.840  68.965  1.00  0.00    -0.236 C  
HETATM   11  N   UNL     1      -8.852  16.143  67.570  1.00  0.00    -0.188 N  
HETATM   12  C   UNL     1      -9.493  14.936  67.110  1.00  0.00    -0.225 C  
HETATM   13  N   UNL     1     -10.186  14.394  68.220  1.00  0.00    -0.235 N  
HETATM   14  O   UNL     1      -9.363  14.429  66.008  1.00  0.00    -0.242 OA 
BRANCH  13  15
HETATM   15  O   UNL     1      -9.855  13.025  68.409  1.00  0.00    -0.228 OA 
HETATM   16  S   UNL     1     -11.165  12.087  68.720  1.00  0.00    -0.286 S  
HETATM   17  O   UNL     1     -11.921  12.691  69.798  1.00  0.00    -0.319 OA 
HETATM   18  O   UNL     1     -10.712  10.716  68.792  1.00  0.00    -0.188 OA 
HETATM   19  O   UNL     1     -12.036  12.202  67.370  1.00  0.00    -0.563 OA 
ENDBRANCH  13  15
ENDBRANCH   2   6
TORSDOF 2
ENDMDL
MODEL       61
REMARK 921   NORMALIZED FREE ENERGY PREDICTED BY IDOCK:   -4.12 KCAL/MOL
REMARK 922        TOTAL FREE ENERGY PREDICTED BY IDOCK:   -4.98 KCAL/MOL
REMARK 923 INTER-LIGAND FREE ENERGY PREDICTED BY IDOCK:   -4.76 KCAL/MOL
REMARK 924 INTRA-LIGAND FREE ENERGY PREDICTED BY IDOCK:   -0.21 KCAL/MOL
REMARK 927      BINDING AFFINITY PREDICTED BY RF-SCORE:    0.00 PKD
ROOT
HETATM    1  N   UNL     1     -10.390  13.102  66.881  1.00  0.00    -0.245 N  
HETATM    2  C   UNL     1     -11.516  12.337  66.806  1.00  0.00    -0.361 C  
HETATM    3  H1  UNL     1      -9.706  12.937  67.619  1.00  0.00     0.000 HD 
HETATM    4  H2  UNL     1     -10.232  13.843  66.197  1.00  0.00     0.000 HD 
HETATM    5  O   UNL     1     -12.340  12.537  65.918  1.00  0.00    -0.626 OA 
ENDROOT
BRANCH   2   6
HETATM    6  C   UNL     1     -11.575  11.139  67.777  1.00  0.00    -0.223 C  
HETATM    7  C   UNL     1     -11.983  11.634  69.191  1.00  0.00    -0.378 C  
HETATM    8  C   UNL     1     -11.559  10.692  70.333  1.00  0.00    -0.441 C  
HETATM    9  C   UNL     1     -10.205   9.999  70.057  1.00  0.00    -0.255 C  
HETATM   10  C   UNL     1      -9.465  10.739  68.953  1.00  0.00    -0.181 C  
HETATM   11  N   UNL     1     -10.298  10.388  67.810  1.00  0.00    -0.192 N  
HETATM   12  C   UNL     1     -10.507   8.973  67.994  1.00  0.00    -0.216 C  
HETATM   13  N   UNL     1     -10.509   8.740  69.391  1.00  0.00    -0.221 N  
HETATM   14  O   UNL     1     -10.558   8.134  67.110  1.00  0.00    -0.322 OA 
BRANCH  13  15
HETATM   15  O   UNL     1      -9.610   7.695  69.735  1.00  0.00    -0.163 OA 
HETATM   16  S   UNL     1     -10.339   6.457  70.527  1.00  0.00    -0.210 S  
HETATM   17  O   UNL     1     -11.101   7.002  71.634  1.00  0.00    -0.229 OA 
HETATM   18  O   UNL     1      -9.349   5.424  70.730  1.00  0.00    -0.152 OA 
HETATM   19  O   UNL     1     -11.378   5.878  69.441  1.00  0.00    -0.346 OA 
ENDBRANCH  13  15
ENDBRANCH   2   6
TORSDOF 2
ENDMDL
MODEL       62
REMARK 921   NORMALIZED FREE ENERGY PREDICTED BY IDOCK:   -4.08 KCAL/MOL
REMARK 922        TOTAL FREE ENERGY PREDICTED BY IDOCK:   -4.93 KCAL/MOL
REMARK 923 INTER-LIGAND FREE ENERGY PREDICTED BY IDOCK:   -4.64 KCAL/MOL
REMARK 924 INTRA-LIGAND FREE ENERGY PREDICTED BY IDOCK:   -0.29 KCAL/MOL
REMARK 927      BINDING AFFINITY PREDICTED BY RF-SCORE:    0.00 PKD
ROOT
HETATM    1  N   UNL     1     -11.613  11.489  67.338  1.00  0.00    -0.273 N  
HETATM    2  C   UNL     1     -11.560  12.483  66.407  1.00  0.00    -0.391 C  
HETATM    3  H1  UNL     1     -10.791  11.271  67.901  1.00  0.00     0.000 HD 
HETATM    4  H2  UNL     1     -12.475  10.962  67.471  1.00  0.00     0.000 HD 
HETATM    5  O   UNL     1     -12.549  12.746  65.728  1.00  0.00    -0.562 OA 
ENDROOT
BRANCH   2   6
HETATM    6  C   UNL     1     -10.270  13.330  66.405  1.00  0.00    -0.292 C  
HETATM    7  C   UNL     1      -9.060  12.437  66.791  1.00  0.00    -0.212 C  
HETATM    8  C   UNL     1      -7.856  13.217  67.351  1.00  0.00    -0.169 C  
HETATM    9  C   UNL     1      -8.284  14.440  68.194  1.00  0.00    -0.149 C  
HETATM   10  C   UNL     1      -9.747  14.305  68.589  1.00  0.00    -0.213 C  
HETATM   11  N   UNL     1     -10.380  14.511  67.294  1.00  0.00    -0.259 N  
HETATM   12  C   UNL     1      -9.666  15.650  66.770  1.00  0.00    -0.241 C  
HETATM   13  N   UNL     1      -8.348  15.573  67.282  1.00  0.00    -0.177 N  
HETATM   14  O   UNL     1     -10.145  16.556  66.109  1.00  0.00    -0.312 OA 
BRANCH  13  15
HETATM   15  O   UNL     1      -7.963  16.800  67.887  1.00  0.00    -0.171 OA 
HETATM   16  S   UNL     1      -6.724  17.539  67.107  1.00  0.00    -0.180 S  
HETATM   17  O   UNL     1      -5.652  16.580  66.928  1.00  0.00    -0.298 OA 
HETATM   18  O   UNL     1      -6.497  18.812  67.755  1.00  0.00    -0.207 OA 
HETATM   19  O   UNL     1      -7.342  17.876  65.658  1.00  0.00    -0.533 OA 
ENDBRANCH  13  15
ENDBRANCH   2   6
TORSDOF 2
ENDMDL
MODEL       63
REMARK 921   NORMALIZED FREE ENERGY PREDICTED BY IDOCK:   -4.08 KCAL/MOL
REMARK 922        TOTAL FREE ENERGY PREDICTED BY IDOCK:   -4.93 KCAL/MOL
REMARK 923 INTER-LIGAND FREE ENERGY PREDICTED BY IDOCK:   -4.76 KCAL/MOL
REMARK 924 INTRA-LIGAND FREE ENERGY PREDICTED BY IDOCK:   -0.17 KCAL/MOL
REMARK 927      BINDING AFFINITY PREDICTED BY RF-SCORE:    0.00 PKD
ROOT
HETATM    1  N   UNL     1     -10.277  19.781  69.179  1.00  0.00    -0.623 N  
HETATM    2  C   UNL     1      -9.900  19.498  67.900  1.00  0.00    -0.379 C  
HETATM    3  H1  UNL     1     -10.469  19.025  69.836  1.00  0.00     0.000 HD 
HETATM    4  H2  UNL     1     -10.368  20.751  69.480  1.00  0.00     0.000 HD 
HETATM    5  O   UNL     1      -9.670  20.408  67.109  1.00  0.00    -0.423 OA 
ENDROOT
BRANCH   2   6
HETATM    6  C   UNL     1      -9.626  18.010  67.598  1.00  0.00    -0.271 C  
HETATM    7  C   UNL     1     -10.285  17.621  66.248  1.00  0.00    -0.362 C  
HETATM    8  C   UNL     1     -10.563  16.115  66.094  1.00  0.00    -0.288 C  
HETATM    9  C   UNL     1     -10.959  15.447  67.430  1.00  0.00    -0.312 C  
HETATM   10  C   UNL     1     -11.373  16.512  68.435  1.00  0.00    -0.209 C  
HETATM   11  N   UNL     1     -10.079  17.127  68.699  1.00  0.00    -0.309 N  
HETATM   12  C   UNL     1      -9.214  15.985  68.867  1.00  0.00    -0.233 C  
HETATM   13  N   UNL     1      -9.726  14.961  68.034  1.00  0.00    -0.209 N  
HETATM   14  O   UNL     1      -8.292  15.893  69.661  1.00  0.00    -0.159 OA 
BRANCH  13  15
HETATM   15  O   UNL     1      -9.899  13.751  68.760  1.00  0.00    -0.190 OA 
HETATM   16  S   UNL     1      -9.544  12.417  67.875  1.00  0.00    -0.210 S  
HETATM   17  O   UNL     1     -10.267  12.489  66.620  1.00  0.00    -0.225 OA 
HETATM   18  O   UNL     1      -9.661  11.270  68.747  1.00  0.00    -0.205 OA 
HETATM   19  O   UNL     1      -7.974  12.583  67.559  1.00  0.00    -0.153 OA 
ENDBRANCH  13  15
ENDBRANCH   2   6
TORSDOF 2
ENDMDL
MODEL       64
REMARK 921   NORMALIZED FREE ENERGY PREDICTED BY IDOCK:   -4.07 KCAL/MOL
REMARK 922        TOTAL FREE ENERGY PREDICTED BY IDOCK:   -4.91 KCAL/MOL
REMARK 923 INTER-LIGAND FREE ENERGY PREDICTED BY IDOCK:   -4.51 KCAL/MOL
REMARK 924 INTRA-LIGAND FREE ENERGY PREDICTED BY IDOCK:   -0.41 KCAL/MOL
REMARK 927      BINDING AFFINITY PREDICTED BY RF-SCORE:    0.00 PKD
ROOT
HETATM    1  N   UNL     1      -6.670  19.647  64.888  1.00  0.00    -0.169 N  
HETATM    2  C   UNL     1      -7.041  19.869  66.180  1.00  0.00    -0.269 C  
HETATM    3  H1  UNL     1      -6.775  18.720  64.477  1.00  0.00     0.000 HD 
HETATM    4  H2  UNL     1      -6.285  20.409  64.331  1.00  0.00     0.000 HD 
HETATM    5  O   UNL     1      -6.914  20.985  66.676  1.00  0.00    -0.255 OA 
ENDROOT
BRANCH   2   6
HETATM    6  C   UNL     1      -7.769  18.700  66.877  1.00  0.00    -0.230 C  
HETATM    7  C   UNL     1      -7.480  17.378  66.117  1.00  0.00    -0.331 C  
HETATM    8  C   UNL     1      -8.531  16.278  66.346  1.00  0.00    -0.365 C  
HETATM    9  C   UNL     1      -9.959  16.848  66.502  1.00  0.00    -0.301 C  
HETATM   10  C   UNL     1     -10.005  18.274  65.975  1.00  0.00    -0.215 C  
HETATM   11  N   UNL     1      -9.224  18.949  67.004  1.00  0.00    -0.296 N  
HETATM   12  C   UNL     1      -9.763  18.397  68.223  1.00  0.00    -0.344 C  
HETATM   13  N   UNL     1     -10.166  17.072  67.926  1.00  0.00    -0.303 N  
HETATM   14  O   UNL     1      -9.938  19.001  69.268  1.00  0.00    -0.334 OA 
BRANCH  13  15
HETATM   15  O   UNL     1     -11.505  16.841  68.340  1.00  0.00    -0.200 OA 
HETATM   16  S   UNL     1     -11.647  15.574  69.373  1.00  0.00    -0.378 S  
HETATM   17  O   UNL     1     -10.977  14.427  68.793  1.00  0.00    -0.233 OA 
HETATM   18  O   UNL     1     -13.029  15.507  69.794  1.00  0.00     0.004 OA 
HETATM   19  O   UNL     1     -10.806  16.047  70.663  1.00  0.00    -0.291 OA 
ENDBRANCH  13  15
ENDBRANCH   2   6
TORSDOF 2
ENDMDL
MODEL       65
REMARK 921   NORMALIZED FREE ENERGY PREDICTED BY IDOCK:   -4.05 KCAL/MOL
REMARK 922        TOTAL FREE ENERGY PREDICTED BY IDOCK:   -4.90 KCAL/MOL
REMARK 923 INTER-LIGAND FREE ENERGY PREDICTED BY IDOCK:   -4.53 KCAL/MOL
REMARK 924 INTRA-LIGAND FREE ENERGY PREDICTED BY IDOCK:   -0.37 KCAL/MOL
REMARK 927      BINDING AFFINITY PREDICTED BY RF-SCORE:    0.00 PKD
ROOT
HETATM    1  N   UNL     1     -10.347   3.439  72.714  1.00  0.00    -0.167 N  
HETATM    2  C   UNL     1     -10.547   4.669  73.265  1.00  0.00    -0.219 C  
HETATM    3  H1  UNL     1     -10.121   3.352  71.723  1.00  0.00     0.000 HD 
HETATM    4  H2  UNL     1     -10.424   2.603  73.293  1.00  0.00     0.000 HD 
HETATM    5  O   UNL     1     -10.820   4.774  74.457  1.00  0.00    -0.347 OA 
ENDROOT
BRANCH   2   6
HETATM    6  C   UNL     1     -10.238   5.871  72.347  1.00  0.00    -0.188 C  
HETATM    7  C   UNL     1      -9.314   6.871  73.091  1.00  0.00    -0.167 C  
HETATM    8  C   UNL     1      -9.374   8.309  72.543  1.00  0.00    -0.350 C  
HETATM    9  C   UNL     1     -10.786   8.697  72.051  1.00  0.00    -0.360 C  
HETATM   10  C   UNL     1     -11.812   7.727  72.618  1.00  0.00    -0.262 C  
HETATM   11  N   UNL     1     -11.474   6.529  71.860  1.00  0.00    -0.285 N  
HETATM   12  C   UNL     1     -11.325   7.036  70.518  1.00  0.00    -0.312 C  
HETATM   13  N   UNL     1     -10.841   8.361  70.635  1.00  0.00    -0.227 N  
HETATM   14  O   UNL     1     -11.660   6.464  69.494  1.00  0.00    -0.404 OA 
BRANCH  13  15
HETATM   15  O   UNL     1     -11.637   9.263  69.878  1.00  0.00    -0.074 OA 
HETATM   16  S   UNL     1     -10.781  10.061  68.727  1.00  0.00    -0.224 S  
HETATM   17  O   UNL     1      -9.609  10.647  69.346  1.00  0.00    -0.187 OA 
HETATM   18  O   UNL     1     -11.714  10.864  67.968  1.00  0.00    -0.540 OA 
HETATM   19  O   UNL     1     -10.293   8.885  67.741  1.00  0.00    -0.218 OA 
ENDBRANCH  13  15
ENDBRANCH   2   6
TORSDOF 2
ENDMDL
MODEL       66
REMARK 921   NORMALIZED FREE ENERGY PREDICTED BY IDOCK:   -4.03 KCAL/MOL
REMARK 922        TOTAL FREE ENERGY PREDICTED BY IDOCK:   -4.88 KCAL/MOL
REMARK 923 INTER-LIGAND FREE ENERGY PREDICTED BY IDOCK:   -4.49 KCAL/MOL
REMARK 924 INTRA-LIGAND FREE ENERGY PREDICTED BY IDOCK:   -0.39 KCAL/MOL
REMARK 927      BINDING AFFINITY PREDICTED BY RF-SCORE:    0.00 PKD
ROOT
HETATM    1  N   UNL     1      -8.221   8.177  68.881  1.00  0.00    -0.123 N  
HETATM    2  C   UNL     1      -8.439   9.451  69.314  1.00  0.00    -0.141 C  
HETATM    3  H1  UNL     1      -8.400   7.928  67.909  1.00  0.00     0.000 HD 
HETATM    4  H2  UNL     1      -7.878   7.471  69.532  1.00  0.00     0.000 HD 
HETATM    5  O   UNL     1      -8.224   9.751  70.485  1.00  0.00    -0.209 OA 
ENDROOT
BRANCH   2   6
HETATM    6  C   UNL     1      -8.790  10.479  68.217  1.00  0.00    -0.139 C  
HETATM    7  C   UNL     1      -8.639  11.916  68.782  1.00  0.00     0.046 C  
HETATM    8  C   UNL     1      -9.452  12.980  68.022  1.00  0.00    -0.217 C  
HETATM    9  C   UNL     1     -10.801  12.433  67.502  1.00  0.00    -0.236 C  
HETATM   10  C   UNL     1     -11.147  11.142  68.229  1.00  0.00    -0.251 C  
HETATM   11  N   UNL     1     -10.144  10.252  67.658  1.00  0.00    -0.182 N  
HETATM   12  C   UNL     1     -10.208  10.566  66.251  1.00  0.00    -0.235 C  
HETATM   13  N   UNL     1     -10.558  11.934  66.155  1.00  0.00    -0.249 N  
HETATM   14  O   UNL     1     -10.092   9.771  65.334  1.00  0.00    -0.305 OA 
BRANCH  13  15
HETATM   15  O   UNL     1     -11.664  12.118  65.283  1.00  0.00    -0.350 OA 
HETATM   16  S   UNL     1     -11.366  13.202  64.088  1.00  0.00    -0.400 S  
HETATM   17  O   UNL     1     -10.846  14.416  64.685  1.00  0.00    -0.392 OA 
HETATM   18  O   UNL     1     -12.522  13.223  63.220  1.00  0.00    -0.736 OA 
HETATM   19  O   UNL     1     -10.181  12.511  63.243  1.00  0.00    -0.370 OA 
ENDBRANCH  13  15
ENDBRANCH   2   6
TORSDOF 2
ENDMDL
MODEL       67
REMARK 921   NORMALIZED FREE ENERGY PREDICTED BY IDOCK:   -4.00 KCAL/MOL
REMARK 922        TOTAL FREE ENERGY PREDICTED BY IDOCK:   -4.84 KCAL/MOL
REMARK 923 INTER-LIGAND FREE ENERGY PREDICTED BY IDOCK:   -4.48 KCAL/MOL
REMARK 924 INTRA-LIGAND FREE ENERGY PREDICTED BY IDOCK:   -0.37 KCAL/MOL
REMARK 927      BINDING AFFINITY PREDICTED BY RF-SCORE:    0.00 PKD
ROOT
HETATM    1  N   UNL     1     -11.265   4.647  65.175  1.00  0.00    -0.965 N  
HETATM    2  C   UNL     1     -10.269   4.647  66.105  1.00  0.00    -0.277 C  
HETATM    3  H1  UNL     1     -12.152   5.109  65.374  1.00  0.00     0.000 HD 
HETATM    4  H2  UNL     1     -11.123   4.183  64.278  1.00  0.00     0.000 HD 
HETATM    5  O   UNL     1      -9.201   4.091  65.867  1.00  0.00    -0.135 OA 
ENDROOT
BRANCH   2   6
HETATM    6  C   UNL     1     -10.520   5.520  67.353  1.00  0.00    -0.219 C  
HETATM    7  C   UNL     1     -10.703   7.000  66.926  1.00  0.00    -0.376 C  
HETATM    8  C   UNL     1     -10.415   8.018  68.045  1.00  0.00    -0.243 C  
HETATM    9  C   UNL     1      -9.272   7.562  68.980  1.00  0.00    -0.146 C  
HETATM   10  C   UNL     1      -8.470   6.456  68.310  1.00  0.00    -0.115 C  
HETATM   11  N   UNL     1      -9.441   5.372  68.360  1.00  0.00    -0.118 N  
HETATM   12  C   UNL     1      -9.945   5.460  69.709  1.00  0.00    -0.224 C  
HETATM   13  N   UNL     1      -9.895   6.827  70.073  1.00  0.00    -0.169 N  
HETATM   14  O   UNL     1     -10.245   4.520  70.425  1.00  0.00    -0.210 OA 
BRANCH  13  15
HETATM   15  O   UNL     1      -9.227   7.001  71.315  1.00  0.00    -0.152 OA 
HETATM   16  S   UNL     1     -10.152   7.754  72.441  1.00  0.00    -0.249 S  
HETATM   17  O   UNL     1     -10.691   8.968  71.859  1.00  0.00    -0.347 OA 
HETATM   18  O   UNL     1      -9.402   7.780  73.676  1.00  0.00    -0.271 OA 
HETATM   19  O   UNL     1     -11.370   6.726  72.674  1.00  0.00    -0.259 OA 
ENDBRANCH  13  15
ENDBRANCH   2   6
TORSDOF 2
ENDMDL
MODEL       68
REMARK 921   NORMALIZED FREE ENERGY PREDICTED BY IDOCK:   -3.96 KCAL/MOL
REMARK 922        TOTAL FREE ENERGY PREDICTED BY IDOCK:   -4.80 KCAL/MOL
REMARK 923 INTER-LIGAND FREE ENERGY PREDICTED BY IDOCK:   -4.42 KCAL/MOL
REMARK 924 INTRA-LIGAND FREE ENERGY PREDICTED BY IDOCK:   -0.38 KCAL/MOL
REMARK 927      BINDING AFFINITY PREDICTED BY RF-SCORE:    0.00 PKD
ROOT
HETATM    1  N   UNL     1      -9.920  13.953  64.917  1.00  0.00    -0.615 N  
HETATM    2  C   UNL     1     -10.364  12.670  64.796  1.00  0.00    -0.312 C  
HETATM    3  H1  UNL     1      -9.346  14.223  65.716  1.00  0.00     0.000 HD 
HETATM    4  H2  UNL     1     -10.163  14.645  64.209  1.00  0.00     0.000 HD 
HETATM    5  O   UNL     1     -11.056  12.345  63.835  1.00  0.00    -0.347 OA 
ENDROOT
BRANCH   2   6
HETATM    6  C   UNL     1      -9.800  11.667  65.824  1.00  0.00    -0.239 C  
HETATM    7  C   UNL     1     -10.149  10.219  65.386  1.00  0.00    -0.354 C  
HETATM    8  C   UNL     1     -10.144   9.196  66.537  1.00  0.00    -0.357 C  
HETATM    9  C   UNL     1     -10.643   9.801  67.868  1.00  0.00    -0.259 C  
HETATM   10  C   UNL     1     -11.390  11.098  67.596  1.00  0.00    -0.284 C  
HETATM   11  N   UNL     1     -10.279  11.952  67.197  1.00  0.00    -0.207 N  
HETATM   12  C   UNL     1      -9.278  11.654  68.192  1.00  0.00    -0.184 C  
HETATM   13  N   UNL     1      -9.466  10.301  68.566  1.00  0.00    -0.153 N  
HETATM   14  O   UNL     1      -8.500  12.451  68.689  1.00  0.00    -0.102 OA 
BRANCH  13  15
HETATM   15  O   UNL     1      -9.556  10.169  69.978  1.00  0.00    -0.200 OA 
HETATM   16  S   UNL     1      -8.521   9.049  70.584  1.00  0.00    -0.212 S  
HETATM   17  O   UNL     1      -8.688   7.816  69.841  1.00  0.00    -0.139 OA 
HETATM   18  O   UNL     1      -8.637   9.083  72.025  1.00  0.00    -0.367 OA 
HETATM   19  O   UNL     1      -7.069   9.653  70.236  1.00  0.00    -0.094 OA 
ENDBRANCH  13  15
ENDBRANCH   2   6
TORSDOF 2
ENDMDL
MODEL       69
REMARK 921   NORMALIZED FREE ENERGY PREDICTED BY IDOCK:   -3.95 KCAL/MOL
REMARK 922        TOTAL FREE ENERGY PREDICTED BY IDOCK:   -4.78 KCAL/MOL
REMARK 923 INTER-LIGAND FREE ENERGY PREDICTED BY IDOCK:   -5.02 KCAL/MOL
REMARK 924 INTRA-LIGAND FREE ENERGY PREDICTED BY IDOCK:    0.24 KCAL/MOL
REMARK 927      BINDING AFFINITY PREDICTED BY RF-SCORE:    0.00 PKD
ROOT
HETATM    1  N   UNL     1      -5.940  17.969  68.657  1.00  0.00    -0.184 N  
HETATM    2  C   UNL     1      -7.224  18.406  68.789  1.00  0.00    -0.284 C  
HETATM    3  H1  UNL     1      -5.753  17.014  68.352  1.00  0.00     0.000 HD 
HETATM    4  H2  UNL     1      -5.164  18.598  68.865  1.00  0.00     0.000 HD 
HETATM    5  O   UNL     1      -7.449  19.556  69.158  1.00  0.00    -0.366 OA 
ENDROOT
BRANCH   2   6
HETATM    6  C   UNL     1      -8.315  17.438  68.288  1.00  0.00    -0.248 C  
HETATM    7  C   UNL     1      -7.772  15.984  68.308  1.00  0.00    -0.142 C  
HETATM    8  C   UNL     1      -8.508  15.024  67.356  1.00  0.00    -0.202 C  
HETATM    9  C   UNL     1      -8.966  15.718  66.054  1.00  0.00    -0.287 C  
HETATM   10  C   UNL     1      -8.212  17.027  65.876  1.00  0.00     0.031 C  
HETATM   11  N   UNL     1      -8.815  17.814  66.944  1.00  0.00    -0.241 N  
HETATM   12  C   UNL     1     -10.221  17.529  66.791  1.00  0.00    -0.327 C  
HETATM   13  N   UNL     1     -10.317  16.207  66.294  1.00  0.00    -0.315 N  
HETATM   14  O   UNL     1     -11.135  18.321  66.953  1.00  0.00    -0.061 OA 
BRANCH  13  15
HETATM   15  O   UNL     1     -11.144  16.154  65.139  1.00  0.00    -0.330 OA 
HETATM   16  S   UNL     1     -11.574  14.625  64.728  1.00  0.00    -0.416 S  
HETATM   17  O   UNL     1     -10.377  13.810  64.664  1.00  0.00    -0.426 OA 
HETATM   18  O   UNL     1     -12.487  14.714  63.611  1.00  0.00    -0.754 OA 
HETATM   19  O   UNL     1     -12.450  14.132  65.987  1.00  0.00    -0.467 OA 
ENDBRANCH  13  15
ENDBRANCH   2   6
TORSDOF 2
ENDMDL
MODEL       70
REMARK 921   NORMALIZED FREE ENERGY PREDICTED BY IDOCK:   -3.93 KCAL/MOL
REMARK 922        TOTAL FREE ENERGY PREDICTED BY IDOCK:   -4.76 KCAL/MOL
REMARK 923 INTER-LIGAND FREE ENERGY PREDICTED BY IDOCK:   -4.37 KCAL/MOL
REMARK 924 INTRA-LIGAND FREE ENERGY PREDICTED BY IDOCK:   -0.39 KCAL/MOL
REMARK 927      BINDING AFFINITY PREDICTED BY RF-SCORE:    0.00 PKD
ROOT
HETATM    1  N   UNL     1     -11.936  13.124  67.825  1.00  0.00    -0.339 N  
HETATM    2  C   UNL     1     -12.081  13.914  66.724  1.00  0.00    -0.439 C  
HETATM    3  H1  UNL     1     -11.309  13.405  68.579  1.00  0.00     0.000 HD 
HETATM    4  H2  UNL     1     -12.454  12.249  67.896  1.00  0.00     0.000 HD 
HETATM    5  O   UNL     1     -12.835  13.575  65.816  1.00  0.00    -0.420 OA 
ENDROOT
BRANCH   2   6
HETATM    6  C   UNL     1     -11.389  15.291  66.793  1.00  0.00    -0.183 C  
HETATM    7  C   UNL     1     -10.875  15.688  65.383  1.00  0.00    -0.394 C  
HETATM    8  C   UNL     1      -9.731  16.718  65.398  1.00  0.00     0.336 C  
HETATM    9  C   UNL     1      -8.781  16.530  66.602  1.00  0.00    -0.251 C  
HETATM   10  C   UNL     1      -8.979  15.146  67.202  1.00  0.00    -0.213 C  
HETATM   11  N   UNL     1     -10.298  15.314  67.797  1.00  0.00    -0.241 N  
HETATM   12  C   UNL     1     -10.190  16.597  68.449  1.00  0.00    -0.284 C  
HETATM   13  N   UNL     1      -9.293  17.372  67.674  1.00  0.00    -0.243 N  
HETATM   14  O   UNL     1     -10.689  16.902  69.519  1.00  0.00    -0.326 OA 
BRANCH  13  15
HETATM   15  O   UNL     1      -8.268  17.929  68.485  1.00  0.00    -0.288 OA 
HETATM   16  S   UNL     1      -8.166  19.561  68.358  1.00  0.00    -0.326 S  
HETATM   17  O   UNL     1      -8.097  19.912  66.953  1.00  0.00    -0.287 OA 
HETATM   18  O   UNL     1      -7.164  20.011  69.298  1.00  0.00    -0.253 OA 
HETATM   19  O   UNL     1      -9.583  20.071  68.933  1.00  0.00    -0.216 OA 
ENDBRANCH  13  15
ENDBRANCH   2   6
TORSDOF 2
ENDMDL
MODEL       71
REMARK 921   NORMALIZED FREE ENERGY PREDICTED BY IDOCK:   -3.92 KCAL/MOL
REMARK 922        TOTAL FREE ENERGY PREDICTED BY IDOCK:   -4.75 KCAL/MOL
REMARK 923 INTER-LIGAND FREE ENERGY PREDICTED BY IDOCK:   -4.90 KCAL/MOL
REMARK 924 INTRA-LIGAND FREE ENERGY PREDICTED BY IDOCK:    0.15 KCAL/MOL
REMARK 927      BINDING AFFINITY PREDICTED BY RF-SCORE:    0.00 PKD
ROOT
HETATM    1  N   UNL     1      -6.790  14.429  70.690  1.00  0.00    -0.314 N  
HETATM    2  C   UNL     1      -7.409  15.275  69.817  1.00  0.00    -0.138 C  
HETATM    3  H1  UNL     1      -7.120  13.470  70.794  1.00  0.00     0.000 HD 
HETATM    4  H2  UNL     1      -5.996  14.757  71.240  1.00  0.00     0.000 HD 
HETATM    5  O   UNL     1      -7.012  16.430  69.692  1.00  0.00    -0.211 OA 
ENDROOT
BRANCH   2   6
HETATM    6  C   UNL     1      -8.482  14.634  68.913  1.00  0.00    -0.136 C  
HETATM    7  C   UNL     1      -7.874  13.421  68.161  1.00  0.00    -0.145 C  
HETATM    8  C   UNL     1      -8.620  13.044  66.867  1.00  0.00    -0.126 C  
HETATM    9  C   UNL     1      -9.182  14.279  66.128  1.00  0.00    -0.086 C  
HETATM   10  C   UNL     1      -8.499  15.539  66.638  1.00  0.00    -0.279 C  
HETATM   11  N   UNL     1      -9.075  15.616  67.974  1.00  0.00    -0.182 N  
HETATM   12  C   UNL     1     -10.473  15.357  67.731  1.00  0.00    -0.266 C  
HETATM   13  N   UNL     1     -10.537  14.480  66.622  1.00  0.00    -0.280 N  
HETATM   14  O   UNL     1     -11.411  15.886  68.305  1.00  0.00    -0.350 OA 
BRANCH  13  15
HETATM   15  O   UNL     1     -11.426  14.976  65.630  1.00  0.00    -0.331 OA 
HETATM   16  S   UNL     1     -11.920  13.820  64.576  1.00  0.00    -0.443 S  
HETATM   17  O   UNL     1     -10.752  13.130  64.065  1.00  0.00    -0.399 OA 
HETATM   18  O   UNL     1     -12.888  14.423  63.688  1.00  0.00    -0.622 OA 
HETATM   19  O   UNL     1     -12.742  12.793  65.506  1.00  0.00    -0.595 OA 
ENDBRANCH  13  15
ENDBRANCH   2   6
TORSDOF 2
ENDMDL
MODEL       72
REMARK 921   NORMALIZED FREE ENERGY PREDICTED BY IDOCK:   -3.90 KCAL/MOL
REMARK 922        TOTAL FREE ENERGY PREDICTED BY IDOCK:   -4.73 KCAL/MOL
REMARK 923 INTER-LIGAND FREE ENERGY PREDICTED BY IDOCK:   -4.41 KCAL/MOL
REMARK 924 INTRA-LIGAND FREE ENERGY PREDICTED BY IDOCK:   -0.31 KCAL/MOL
REMARK 927      BINDING AFFINITY PREDICTED BY RF-SCORE:    0.00 PKD
ROOT
HETATM    1  N   UNL     1     -12.965  14.528  64.476  1.00  0.00    -0.379 N  
HETATM    2  C   UNL     1     -12.644  13.379  65.135  1.00  0.00    -0.440 C  
HETATM    3  H1  UNL     1     -12.578  15.420  64.782  1.00  0.00     0.000 HD 
HETATM    4  H2  UNL     1     -13.596  14.496  63.675  1.00  0.00     0.000 HD 
HETATM    5  O   UNL     1     -13.111  12.305  64.766  1.00  0.00    -0.724 OA 
ENDROOT
BRANCH   2   6
HETATM    6  C   UNL     1     -11.554  13.512  66.218  1.00  0.00    -0.345 C  
HETATM    7  C   UNL     1     -11.924  14.663  67.192  1.00  0.00    -0.310 C  
HETATM    8  C   UNL     1     -10.723  15.256  67.952  1.00  0.00    -0.275 C  
HETATM    9  C   UNL     1      -9.436  15.277  67.098  1.00  0.00    -0.214 C  
HETATM   10  C   UNL     1      -9.790  15.105  65.628  1.00  0.00    -0.343 C  
HETATM   11  N   UNL     1     -10.207  13.709  65.630  1.00  0.00    -0.299 N  
HETATM   12  C   UNL     1      -9.177  13.071  66.412  1.00  0.00    -0.132 C  
HETATM   13  N   UNL     1      -8.739  14.026  67.362  1.00  0.00    -0.195 N  
HETATM   14  O   UNL     1      -8.704  11.965  66.211  1.00  0.00    -0.167 OA 
BRANCH  13  15
HETATM   15  O   UNL     1      -7.324  14.158  67.337  1.00  0.00    -0.180 OA 
HETATM   16  S   UNL     1      -6.626  13.849  68.790  1.00  0.00    -0.106 S  
HETATM   17  O   UNL     1      -7.299  14.638  69.803  1.00  0.00    -0.122 OA 
HETATM   18  O   UNL     1      -5.193  13.918  68.609  1.00  0.00    -0.080 OA 
HETATM   19  O   UNL     1      -6.972  12.298  69.049  1.00  0.00    -0.103 OA 
ENDBRANCH  13  15
ENDBRANCH   2   6
TORSDOF 2
ENDMDL
MODEL       73
REMARK 921   NORMALIZED FREE ENERGY PREDICTED BY IDOCK:   -3.90 KCAL/MOL
REMARK 922        TOTAL FREE ENERGY PREDICTED BY IDOCK:   -4.72 KCAL/MOL
REMARK 923 INTER-LIGAND FREE ENERGY PREDICTED BY IDOCK:   -4.47 KCAL/MOL
REMARK 924 INTRA-LIGAND FREE ENERGY PREDICTED BY IDOCK:   -0.25 KCAL/MOL
REMARK 927      BINDING AFFINITY PREDICTED BY RF-SCORE:    0.00 PKD
ROOT
HETATM    1  N   UNL     1      -9.683  18.628  67.983  1.00  0.00    -0.307 N  
HETATM    2  C   UNL     1      -9.682  17.804  66.898  1.00  0.00    -0.300 C  
HETATM    3  H1  UNL     1      -9.923  18.261  68.904  1.00  0.00     0.000 HD 
HETATM    4  H2  UNL     1      -9.445  19.614  67.875  1.00  0.00     0.000 HD 
HETATM    5  O   UNL     1      -9.394  18.245  65.789  1.00  0.00    -0.460 OA 
ENDROOT
BRANCH   2   6
HETATM    6  C   UNL     1      -9.887  16.304  67.196  1.00  0.00    -0.243 C  
HETATM    7  C   UNL     1     -10.609  15.628  66.001  1.00  0.00    -0.336 C  
HETATM    8  C   UNL     1     -11.347  14.327  66.366  1.00  0.00    -0.346 C  
HETATM    9  C   UNL     1     -11.959  14.372  67.784  1.00  0.00    -0.333 C  
HETATM   10  C   UNL     1     -12.034  15.813  68.266  1.00  0.00     0.046 C  
HETATM   11  N   UNL     1     -10.617  16.086  68.468  1.00  0.00    -0.255 N  
HETATM   12  C   UNL     1     -10.161  14.904  69.157  1.00  0.00    -0.242 C  
HETATM   13  N   UNL     1     -10.955  13.829  68.689  1.00  0.00    -0.257 N  
HETATM   14  O   UNL     1      -9.331  14.869  70.050  1.00  0.00     0.142 OA 
BRANCH  13  15
HETATM   15  O   UNL     1     -11.516  13.099  69.772  1.00  0.00    -0.236 OA 
HETATM   16  S   UNL     1     -11.503  11.477  69.526  1.00  0.00    -0.318 S  
HETATM   17  O   UNL     1     -12.091  11.201  68.229  1.00  0.00    -0.620 OA 
HETATM   18  O   UNL     1     -12.002  10.849  70.728  1.00  0.00    -0.325 OA 
HETATM   19  O   UNL     1      -9.934  11.122  69.450  1.00  0.00    -0.083 OA 
ENDBRANCH  13  15
ENDBRANCH   2   6
TORSDOF 2
ENDMDL
MODEL       74
REMARK 921   NORMALIZED FREE ENERGY PREDICTED BY IDOCK:   -3.88 KCAL/MOL
REMARK 922        TOTAL FREE ENERGY PREDICTED BY IDOCK:   -4.70 KCAL/MOL
REMARK 923 INTER-LIGAND FREE ENERGY PREDICTED BY IDOCK:   -4.54 KCAL/MOL
REMARK 924 INTRA-LIGAND FREE ENERGY PREDICTED BY IDOCK:   -0.16 KCAL/MOL
REMARK 927      BINDING AFFINITY PREDICTED BY RF-SCORE:    0.00 PKD
ROOT
HETATM    1  N   UNL     1     -10.380   3.930  72.347  1.00  0.00    -0.158 N  
HETATM    2  C   UNL     1     -10.916   5.043  72.923  1.00  0.00    -0.277 C  
HETATM    3  H1  UNL     1     -10.248   3.889  71.336  1.00  0.00     0.000 HD 
HETATM    4  H2  UNL     1     -10.111   3.136  72.927  1.00  0.00     0.000 HD 
HETATM    5  O   UNL     1     -11.076   5.092  74.139  1.00  0.00    -0.275 OA 
ENDROOT
BRANCH   2   6
HETATM    6  C   UNL     1     -11.127   6.247  71.982  1.00  0.00    -0.268 C  
HETATM    7  C   UNL     1      -9.944   6.340  70.981  1.00  0.00    -0.213 C  
HETATM    8  C   UNL     1      -9.738   7.743  70.379  1.00  0.00    -0.179 C  
HETATM    9  C   UNL     1     -10.062   8.871  71.385  1.00  0.00    -0.309 C  
HETATM   10  C   UNL     1     -10.087   8.309  72.798  1.00  0.00    -0.263 C  
HETATM   11  N   UNL     1     -11.306   7.513  72.733  1.00  0.00    -0.346 N  
HETATM   12  C   UNL     1     -12.231   8.404  72.076  1.00  0.00    -0.362 C  
HETATM   13  N   UNL     1     -11.466   9.207  71.196  1.00  0.00    -0.293 N  
HETATM   14  O   UNL     1     -13.420   8.513  72.323  1.00  0.00    -0.348 OA 
BRANCH  13  15
HETATM   15  O   UNL     1     -11.742  10.587  71.395  1.00  0.00    -0.259 OA 
HETATM   16  S   UNL     1     -11.689  11.458  70.005  1.00  0.00    -0.325 S  
HETATM   17  O   UNL     1     -10.439  11.172  69.328  1.00  0.00    -0.214 OA 
HETATM   18  O   UNL     1     -12.081  12.813  70.324  1.00  0.00    -0.349 OA 
HETATM   19  O   UNL     1     -12.888  10.837  69.128  1.00  0.00    -0.103 OA 
ENDBRANCH  13  15
ENDBRANCH   2   6
TORSDOF 2
ENDMDL
MODEL       75
REMARK 921   NORMALIZED FREE ENERGY PREDICTED BY IDOCK:   -3.82 KCAL/MOL
REMARK 922        TOTAL FREE ENERGY PREDICTED BY IDOCK:   -4.64 KCAL/MOL
REMARK 923 INTER-LIGAND FREE ENERGY PREDICTED BY IDOCK:   -4.44 KCAL/MOL
REMARK 924 INTRA-LIGAND FREE ENERGY PREDICTED BY IDOCK:   -0.20 KCAL/MOL
REMARK 927      BINDING AFFINITY PREDICTED BY RF-SCORE:    0.00 PKD
ROOT
HETATM    1  N   UNL     1      -9.901  12.777  65.149  1.00  0.00    -0.480 N  
HETATM    2  C   UNL     1      -9.618  13.449  66.300  1.00  0.00    -0.235 C  
HETATM    3  H1  UNL     1     -10.018  11.764  65.162  1.00  0.00     0.000 HD 
HETATM    4  H2  UNL     1      -9.996  13.289  64.272  1.00  0.00     0.000 HD 
HETATM    5  O   UNL     1      -9.478  14.669  66.285  1.00  0.00    -0.286 OA 
ENDROOT
BRANCH   2   6
HETATM    6  C   UNL     1      -9.667  12.608  67.594  1.00  0.00    -0.197 C  
HETATM    7  C   UNL     1      -8.226  12.392  68.129  1.00  0.00    -0.173 C  
HETATM    8  C   UNL     1      -8.074  11.167  69.049  1.00  0.00    -0.078 C  
HETATM    9  C   UNL     1      -8.984   9.992  68.623  1.00  0.00    -0.136 C  
HETATM   10  C   UNL     1      -9.460  10.202  67.194  1.00  0.00    -0.158 C  
HETATM   11  N   UNL     1     -10.372  11.320  67.392  1.00  0.00    -0.194 N  
HETATM   12  C   UNL     1     -11.113  10.921  68.563  1.00  0.00    -0.256 C  
HETATM   13  N   UNL     1     -10.233  10.145  69.356  1.00  0.00    -0.214 N  
HETATM   14  O   UNL     1     -12.299  11.122  68.765  1.00  0.00    -0.539 OA 
BRANCH  13  15
HETATM   15  O   UNL     1     -10.827   8.904  69.713  1.00  0.00    -0.235 OA 
HETATM   16  S   UNL     1     -11.014   8.726  71.333  1.00  0.00    -0.318 S  
HETATM   17  O   UNL     1      -9.747   9.008  71.978  1.00  0.00    -0.290 OA 
HETATM   18  O   UNL     1     -11.713   7.480  71.558  1.00  0.00    -0.263 OA 
HETATM   19  O   UNL     1     -12.048   9.898  71.722  1.00  0.00    -0.389 OA 
ENDBRANCH  13  15
ENDBRANCH   2   6
TORSDOF 2
ENDMDL
MODEL       76
REMARK 921   NORMALIZED FREE ENERGY PREDICTED BY IDOCK:   -3.82 KCAL/MOL
REMARK 922        TOTAL FREE ENERGY PREDICTED BY IDOCK:   -4.64 KCAL/MOL
REMARK 923 INTER-LIGAND FREE ENERGY PREDICTED BY IDOCK:   -4.25 KCAL/MOL
REMARK 924 INTRA-LIGAND FREE ENERGY PREDICTED BY IDOCK:   -0.39 KCAL/MOL
REMARK 927      BINDING AFFINITY PREDICTED BY RF-SCORE:    0.00 PKD
ROOT
HETATM    1  N   UNL     1     -11.143   8.775  68.911  1.00  0.00    -0.426 N  
HETATM    2  C   UNL     1     -10.703   9.222  67.701  1.00  0.00    -0.209 C  
HETATM    3  H1  UNL     1     -11.463   9.439  69.617  1.00  0.00     0.000 HD 
HETATM    4  H2  UNL     1     -11.152   7.775  69.112  1.00  0.00     0.000 HD 
HETATM    5  O   UNL     1     -10.317   8.423  66.852  1.00  0.00    -0.292 OA 
ENDROOT
BRANCH   2   6
HETATM    6  C   UNL     1     -10.892  10.730  67.436  1.00  0.00    -0.290 C  
HETATM    7  C   UNL     1     -10.700  11.022  65.923  1.00  0.00    -0.226 C  
HETATM    8  C   UNL     1     -10.320  12.480  65.607  1.00  0.00    -0.294 C  
HETATM    9  C   UNL     1      -9.413  13.103  66.691  1.00  0.00    -0.260 C  
HETATM   10  C   UNL     1      -8.803  12.003  67.546  1.00  0.00    -0.172 C  
HETATM   11  N   UNL     1      -9.987  11.557  68.269  1.00  0.00    -0.195 N  
HETATM   12  C   UNL     1     -10.602  12.801  68.665  1.00  0.00    -0.233 C  
HETATM   13  N   UNL     1     -10.295  13.745  67.656  1.00  0.00    -0.237 N  
HETATM   14  O   UNL     1     -11.175  13.013  69.720  1.00  0.00    -0.106 OA 
BRANCH  13  15
HETATM   15  O   UNL     1      -9.744  14.929  68.216  1.00  0.00    -0.205 OA 
HETATM   16  S   UNL     1     -10.566  16.283  67.789  1.00  0.00    -0.316 S  
HETATM   17  O   UNL     1     -10.715  16.298  66.347  1.00  0.00    -0.278 OA 
HETATM   18  O   UNL     1      -9.972  17.396  68.496  1.00  0.00    -0.292 OA 
HETATM   19  O   UNL     1     -12.021  16.059  68.442  1.00  0.00    -0.220 OA 
ENDBRANCH  13  15
ENDBRANCH   2   6
TORSDOF 2
ENDMDL
MODEL       77
REMARK 921   NORMALIZED FREE ENERGY PREDICTED BY IDOCK:   -3.80 KCAL/MOL
REMARK 922        TOTAL FREE ENERGY PREDICTED BY IDOCK:   -4.62 KCAL/MOL
REMARK 923 INTER-LIGAND FREE ENERGY PREDICTED BY IDOCK:   -4.23 KCAL/MOL
REMARK 924 INTRA-LIGAND FREE ENERGY PREDICTED BY IDOCK:   -0.39 KCAL/MOL
REMARK 927      BINDING AFFINITY PREDICTED BY RF-SCORE:    0.00 PKD
ROOT
HETATM    1  N   UNL     1     -11.682  11.437  70.548  1.00  0.00    -0.470 N  
HETATM    2  C   UNL     1     -12.304  10.459  71.264  1.00  0.00    -0.401 C  
HETATM    3  H1  UNL     1     -10.870  11.214  69.972  1.00  0.00     0.000 HD 
HETATM    4  H2  UNL     1     -12.029  12.395  70.587  1.00  0.00     0.000 HD 
HETATM    5  O   UNL     1     -13.281  10.728  71.957  1.00  0.00    -0.484 OA 
ENDROOT
BRANCH   2   6
HETATM    6  C   UNL     1     -11.810   9.021  71.001  1.00  0.00    -0.285 C  
HETATM    7  C   UNL     1     -12.892   8.006  71.457  1.00  0.00    -0.331 C  
HETATM    8  C   UNL     1     -12.346   6.599  71.763  1.00  0.00    -0.385 C  
HETATM    9  C   UNL     1     -10.932   6.636  72.385  1.00  0.00    -0.244 C  
HETATM   10  C   UNL     1     -10.637   8.034  72.910  1.00  0.00    -0.329 C  
HETATM   11  N   UNL     1     -10.505   8.755  71.650  1.00  0.00    -0.289 N  
HETATM   12  C   UNL     1      -9.680   7.870  70.864  1.00  0.00    -0.164 C  
HETATM   13  N   UNL     1      -9.988   6.552  71.279  1.00  0.00    -0.181 N  
HETATM   14  O   UNL     1      -8.809   8.209  70.080  1.00  0.00    -0.137 OA 
BRANCH  13  15
HETATM   15  O   UNL     1      -8.807   5.831  71.605  1.00  0.00    -0.135 OA 
HETATM   16  S   UNL     1      -8.659   4.429  70.765  1.00  0.00    -0.092 S  
HETATM   17  O   UNL     1      -9.893   3.679  70.896  1.00  0.00    -0.174 OA 
HETATM   18  O   UNL     1      -7.382   3.846  71.111  1.00  0.00    -0.039 OA 
HETATM   19  O   UNL     1      -8.530   4.921  69.237  1.00  0.00    -0.086 OA 
ENDBRANCH  13  15
ENDBRANCH   2   6
TORSDOF 2
ENDMDL
MODEL       78
REMARK 921   NORMALIZED FREE ENERGY PREDICTED BY IDOCK:   -3.80 KCAL/MOL
REMARK 922        TOTAL FREE ENERGY PREDICTED BY IDOCK:   -4.61 KCAL/MOL
REMARK 923 INTER-LIGAND FREE ENERGY PREDICTED BY IDOCK:   -4.27 KCAL/MOL
REMARK 924 INTRA-LIGAND FREE ENERGY PREDICTED BY IDOCK:   -0.35 KCAL/MOL
REMARK 927      BINDING AFFINITY PREDICTED BY RF-SCORE:    0.00 PKD
ROOT
HETATM    1  N   UNL     1     -10.538   7.949  71.246  1.00  0.00    -0.210 N  
HETATM    2  C   UNL     1      -9.513   8.737  70.816  1.00  0.00    -0.206 C  
HETATM    3  H1  UNL     1     -11.500   8.283  71.188  1.00  0.00     0.000 HD 
HETATM    4  H2  UNL     1     -10.343   7.023  71.627  1.00  0.00     0.000 HD 
HETATM    5  O   UNL     1      -8.355   8.336  70.886  1.00  0.00    -0.115 OA 
ENDROOT
BRANCH   2   6
HETATM    6  C   UNL     1      -9.926  10.041  70.102  1.00  0.00    -0.184 C  
HETATM    7  C   UNL     1     -11.455  10.257  70.254  1.00  0.00    -0.395 C  
HETATM    8  C   UNL     1     -12.072  11.168  69.176  1.00  0.00    -0.352 C  
HETATM    9  C   UNL     1     -11.394  10.997  67.799  1.00  0.00    -0.292 C  
HETATM   10  C   UNL     1     -10.601   9.699  67.773  1.00  0.00    -0.264 C  
HETATM   11  N   UNL     1      -9.513  10.048  68.678  1.00  0.00    -0.151 N  
HETATM   12  C   UNL     1      -9.140  11.367  68.229  1.00  0.00    -0.179 C  
HETATM   13  N   UNL     1     -10.319  11.978  67.737  1.00  0.00    -0.194 N  
HETATM   14  O   UNL     1      -8.007  11.815  68.182  1.00  0.00    -0.129 OA 
BRANCH  13  15
HETATM   15  O   UNL     1     -10.116  12.504  66.433  1.00  0.00    -0.233 OA 
HETATM   16  S   UNL     1     -10.669  14.039  66.267  1.00  0.00    -0.292 S  
HETATM   17  O   UNL     1     -12.037  14.092  66.744  1.00  0.00    -0.428 OA 
HETATM   18  O   UNL     1     -10.316  14.490  64.940  1.00  0.00    -0.417 OA 
HETATM   19  O   UNL     1      -9.749  14.881  67.287  1.00  0.00    -0.224 OA 
ENDBRANCH  13  15
ENDBRANCH   2   6
TORSDOF 2
ENDMDL
MODEL       79
REMARK 921   NORMALIZED FREE ENERGY PREDICTED BY IDOCK:   -3.77 KCAL/MOL
REMARK 922        TOTAL FREE ENERGY PREDICTED BY IDOCK:   -4.58 KCAL/MOL
REMARK 923 INTER-LIGAND FREE ENERGY PREDICTED BY IDOCK:   -4.26 KCAL/MOL
REMARK 924 INTRA-LIGAND FREE ENERGY PREDICTED BY IDOCK:   -0.32 KCAL/MOL
REMARK 927      BINDING AFFINITY PREDICTED BY RF-SCORE:    0.00 PKD
ROOT
HETATM    1  N   UNL     1      -6.658  14.315  70.886  1.00  0.00    -0.340 N  
HETATM    2  C   UNL     1      -6.568  14.344  69.526  1.00  0.00    -0.141 C  
HETATM    3  H1  UNL     1      -7.342  14.899  71.367  1.00  0.00     0.000 HD 
HETATM    4  H2  UNL     1      -6.038  13.710  71.424  1.00  0.00     0.000 HD 
HETATM    5  O   UNL     1      -5.744  13.642  68.947  1.00  0.00    -0.075 OA 
ENDROOT
BRANCH   2   6
HETATM    6  C   UNL     1      -7.661  15.158  68.802  1.00  0.00    -0.143 C  
HETATM    7  C   UNL     1      -8.308  14.289  67.690  1.00  0.00    -0.187 C  
HETATM    8  C   UNL     1      -8.985  15.101  66.571  1.00  0.00    -0.326 C  
HETATM    9  C   UNL     1      -8.239  16.418  66.262  1.00  0.00    -0.308 C  
HETATM   10  C   UNL     1      -6.831  16.360  66.836  1.00  0.00    -0.196 C  
HETATM   11  N   UNL     1      -7.135  16.433  68.259  1.00  0.00    -0.138 N  
HETATM   12  C   UNL     1      -8.114  17.491  68.320  1.00  0.00    -0.268 C  
HETATM   13  N   UNL     1      -8.838  17.444  67.104  1.00  0.00    -0.227 N  
HETATM   14  O   UNL     1      -8.212  18.328  69.202  1.00  0.00    -0.104 OA 
BRANCH  13  15
HETATM   15  O   UNL     1      -8.879  18.723  66.485  1.00  0.00    -0.299 OA 
HETATM   16  S   UNL     1     -10.380  19.138  65.970  1.00  0.00    -0.407 S  
HETATM   17  O   UNL     1     -10.913  18.052  65.172  1.00  0.00    -0.645 OA 
HETATM   18  O   UNL     1     -10.307  20.487  65.455  1.00  0.00    -0.115 OA 
HETATM   19  O   UNL     1     -11.233  19.224  67.334  1.00  0.00    -0.344 OA 
ENDBRANCH  13  15
ENDBRANCH   2   6
TORSDOF 2
ENDMDL
MODEL       80
REMARK 921   NORMALIZED FREE ENERGY PREDICTED BY IDOCK:   -3.76 KCAL/MOL
REMARK 922        TOTAL FREE ENERGY PREDICTED BY IDOCK:   -4.58 KCAL/MOL
REMARK 923 INTER-LIGAND FREE ENERGY PREDICTED BY IDOCK:   -4.36 KCAL/MOL
REMARK 924 INTRA-LIGAND FREE ENERGY PREDICTED BY IDOCK:   -0.22 KCAL/MOL
REMARK 927      BINDING AFFINITY PREDICTED BY RF-SCORE:    0.00 PKD
ROOT
HETATM    1  N   UNL     1     -11.066  14.302  65.538  1.00  0.00    -0.313 N  
HETATM    2  C   UNL     1     -11.980  13.292  65.574  1.00  0.00    -0.405 C  
HETATM    3  H1  UNL     1     -10.267  14.294  66.173  1.00  0.00     0.000 HD 
HETATM    4  H2  UNL     1     -11.180  15.068  64.875  1.00  0.00     0.000 HD 
HETATM    5  O   UNL     1     -12.941  13.302  64.811  1.00  0.00    -0.710 OA 
ENDROOT
BRANCH   2   6
HETATM    6  C   UNL     1     -11.624  12.101  66.488  1.00  0.00    -0.359 C  
HETATM    7  C   UNL     1     -11.908  12.475  67.968  1.00  0.00    -0.382 C  
HETATM    8  C   UNL     1     -11.116  11.640  68.991  1.00  0.00    -0.297 C  
HETATM    9  C   UNL     1      -9.702  11.272  68.487  1.00  0.00    -0.198 C  
HETATM   10  C   UNL     1      -9.322  12.172  67.320  1.00  0.00    -0.183 C  
HETATM   11  N   UNL     1     -10.222  11.655  66.298  1.00  0.00    -0.220 N  
HETATM   12  C   UNL     1     -10.084  10.227  66.447  1.00  0.00    -0.234 C  
HETATM   13  N   UNL     1      -9.820   9.985  67.817  1.00  0.00    -0.153 N  
HETATM   14  O   UNL     1     -10.084   9.408  65.543  1.00  0.00    -0.217 OA 
BRANCH  13  15
HETATM   15  O   UNL     1      -8.670   9.164  67.977  1.00  0.00    -0.128 OA 
HETATM   16  S   UNL     1      -8.973   7.799  68.835  1.00  0.00    -0.140 S  
HETATM   17  O   UNL     1      -9.642   8.166  70.068  1.00  0.00    -0.170 OA 
HETATM   18  O   UNL     1      -7.761   7.010  68.842  1.00  0.00    -0.105 OA 
HETATM   19  O   UNL     1     -10.024   7.001  67.911  1.00  0.00    -0.144 OA 
ENDBRANCH  13  15
ENDBRANCH   2   6
TORSDOF 2
ENDMDL
MODEL       81
REMARK 921   NORMALIZED FREE ENERGY PREDICTED BY IDOCK:   -3.75 KCAL/MOL
REMARK 922        TOTAL FREE ENERGY PREDICTED BY IDOCK:   -4.56 KCAL/MOL
REMARK 923 INTER-LIGAND FREE ENERGY PREDICTED BY IDOCK:   -4.26 KCAL/MOL
REMARK 924 INTRA-LIGAND FREE ENERGY PREDICTED BY IDOCK:   -0.30 KCAL/MOL
REMARK 927      BINDING AFFINITY PREDICTED BY RF-SCORE:    0.00 PKD
ROOT
HETATM    1  N   UNL     1     -10.988   8.654  67.724  1.00  0.00    -0.487 N  
HETATM    2  C   UNL     1      -9.883   8.908  66.968  1.00  0.00    -0.214 C  
HETATM    3  H1  UNL     1     -11.483   9.418  68.182  1.00  0.00     0.000 HD 
HETATM    4  H2  UNL     1     -11.321   7.696  67.832  1.00  0.00     0.000 HD 
HETATM    5  O   UNL     1      -9.287   7.988  66.416  1.00  0.00    -0.185 OA 
ENDROOT
BRANCH   2   6
HETATM    6  C   UNL     1      -9.567  10.400  66.727  1.00  0.00    -0.171 C  
HETATM    7  C   UNL     1      -8.155  10.729  67.282  1.00  0.00    -0.117 C  
HETATM    8  C   UNL     1      -7.939  12.219  67.606  1.00  0.00    -0.161 C  
HETATM    9  C   UNL     1      -9.219  12.899  68.142  1.00  0.00    -0.212 C  
HETATM   10  C   UNL     1     -10.212  11.841  68.598  1.00  0.00    -0.201 C  
HETATM   11  N   UNL     1     -10.602  11.287  67.309  1.00  0.00    -0.221 N  
HETATM   12  C   UNL     1     -10.814  12.468  66.508  1.00  0.00    -0.256 C  
HETATM   13  N   UNL     1      -9.913  13.450  66.987  1.00  0.00    -0.242 N  
HETATM   14  O   UNL     1     -11.680  12.616  65.663  1.00  0.00    -0.368 OA 
BRANCH  13  15
HETATM   15  O   UNL     1     -10.590  14.668  67.270  1.00  0.00    -0.277 OA 
HETATM   16  S   UNL     1      -9.953  15.954  66.476  1.00  0.00    -0.290 S  
HETATM   17  O   UNL     1      -8.522  15.978  66.708  1.00  0.00    -0.207 OA 
HETATM   18  O   UNL     1     -10.783  17.102  66.766  1.00  0.00    -0.231 OA 
HETATM   19  O   UNL     1     -10.204  15.599  64.925  1.00  0.00    -0.418 OA 
ENDBRANCH  13  15
ENDBRANCH   2   6
TORSDOF 2
ENDMDL
MODEL       82
REMARK 921   NORMALIZED FREE ENERGY PREDICTED BY IDOCK:   -3.67 KCAL/MOL
REMARK 922        TOTAL FREE ENERGY PREDICTED BY IDOCK:   -4.47 KCAL/MOL
REMARK 923 INTER-LIGAND FREE ENERGY PREDICTED BY IDOCK:   -4.07 KCAL/MOL
REMARK 924 INTRA-LIGAND FREE ENERGY PREDICTED BY IDOCK:   -0.40 KCAL/MOL
REMARK 927      BINDING AFFINITY PREDICTED BY RF-SCORE:    0.00 PKD
ROOT
HETATM    1  N   UNL     1      -9.627   5.059  69.667  1.00  0.00    -0.153 N  
HETATM    2  C   UNL     1      -8.971   6.112  70.231  1.00  0.00    -0.153 C  
HETATM    3  H1  UNL     1     -10.230   5.205  68.857  1.00  0.00     0.000 HD 
HETATM    4  H2  UNL     1      -9.516   4.123  70.056  1.00  0.00     0.000 HD 
HETATM    5  O   UNL     1      -8.247   5.937  71.206  1.00  0.00    -0.119 OA 
ENDROOT
BRANCH   2   6
HETATM    6  C   UNL     1      -9.069   7.448  69.465  1.00  0.00    -0.143 C  
HETATM    7  C   UNL     1      -8.344   8.562  70.266  1.00  0.00    -0.125 C  
HETATM    8  C   UNL     1      -8.814   9.989  69.926  1.00  0.00    -0.177 C  
HETATM    9  C   UNL     1     -10.324  10.052  69.602  1.00  0.00    -0.247 C  
HETATM   10  C   UNL     1     -11.012   8.793  70.108  1.00  0.00    -0.223 C  
HETATM   11  N   UNL     1     -10.475   7.816  69.170  1.00  0.00    -0.219 N  
HETATM   12  C   UNL     1     -10.601   8.493  67.902  1.00  0.00    -0.156 C  
HETATM   13  N   UNL     1     -10.449   9.876  68.162  1.00  0.00    -0.202 N  
HETATM   14  O   UNL     1     -10.896   7.973  66.838  1.00  0.00    -0.267 OA 
BRANCH  13  15
HETATM   15  O   UNL     1     -11.519  10.622  67.598  1.00  0.00    -0.474 OA 
HETATM   16  S   UNL     1     -11.010  11.806  66.583  1.00  0.00    -0.305 S  
HETATM   17  O   UNL     1     -10.002  12.596  67.263  1.00  0.00    -0.209 OA 
HETATM   18  O   UNL     1     -12.184  12.420  66.004  1.00  0.00    -0.636 OA 
HETATM   19  O   UNL     1     -10.293  10.995  65.391  1.00  0.00    -0.261 OA 
ENDBRANCH  13  15
ENDBRANCH   2   6
TORSDOF 2
ENDMDL
MODEL       83
REMARK 921   NORMALIZED FREE ENERGY PREDICTED BY IDOCK:   -3.67 KCAL/MOL
REMARK 922        TOTAL FREE ENERGY PREDICTED BY IDOCK:   -4.47 KCAL/MOL
REMARK 923 INTER-LIGAND FREE ENERGY PREDICTED BY IDOCK:   -4.09 KCAL/MOL
REMARK 924 INTRA-LIGAND FREE ENERGY PREDICTED BY IDOCK:   -0.37 KCAL/MOL
REMARK 927      BINDING AFFINITY PREDICTED BY RF-SCORE:    0.00 PKD
ROOT
HETATM    1  N   UNL     1      -8.856   4.601  72.028  1.00  0.00    -0.122 N  
HETATM    2  C   UNL     1      -9.323   4.591  70.747  1.00  0.00    -0.151 C  
HETATM    3  H1  UNL     1      -8.946   5.440  72.600  1.00  0.00     0.000 HD 
HETATM    4  H2  UNL     1      -8.415   3.767  72.415  1.00  0.00     0.000 HD 
HETATM    5  O   UNL     1      -9.213   3.581  70.058  1.00  0.00    -0.122 OA 
ENDROOT
BRANCH   2   6
HETATM    6  C   UNL     1     -10.124   5.838  70.318  1.00  0.00    -0.211 C  
HETATM    7  C   UNL     1     -10.171   5.920  68.769  1.00  0.00    -0.243 C  
HETATM    8  C   UNL     1     -10.437   7.334  68.222  1.00  0.00    -0.239 C  
HETATM    9  C   UNL     1      -9.787   8.436  69.089  1.00  0.00    -0.183 C  
HETATM   10  C   UNL     1      -8.727   7.822  69.991  1.00  0.00    -0.141 C  
HETATM   11  N   UNL     1      -9.576   7.081  70.913  1.00  0.00    -0.168 N  
HETATM   12  C   UNL     1     -10.614   8.034  71.224  1.00  0.00    -0.209 C  
HETATM   13  N   UNL     1     -10.785   8.838  70.070  1.00  0.00    -0.227 N  
HETATM   14  O   UNL     1     -11.150   8.183  72.309  1.00  0.00    -0.291 OA 
BRANCH  13  15
HETATM   15  O   UNL     1     -10.724  10.219  70.398  1.00  0.00    -0.292 OA 
HETATM   16  S   UNL     1     -11.984  11.078  69.793  1.00  0.00    -0.373 S  
HETATM   17  O   UNL     1     -12.105  10.786  68.378  1.00  0.00    -0.501 OA 
HETATM   18  O   UNL     1     -11.859  12.435  70.275  1.00  0.00    -0.322 OA 
HETATM   19  O   UNL     1     -13.261  10.449  70.546  1.00  0.00    -0.300 OA 
ENDBRANCH  13  15
ENDBRANCH   2   6
TORSDOF 2
ENDMDL
MODEL       84
REMARK 921   NORMALIZED FREE ENERGY PREDICTED BY IDOCK:   -3.66 KCAL/MOL
REMARK 922        TOTAL FREE ENERGY PREDICTED BY IDOCK:   -4.46 KCAL/MOL
REMARK 923 INTER-LIGAND FREE ENERGY PREDICTED BY IDOCK:   -4.40 KCAL/MOL
REMARK 924 INTRA-LIGAND FREE ENERGY PREDICTED BY IDOCK:   -0.06 KCAL/MOL
REMARK 927      BINDING AFFINITY PREDICTED BY RF-SCORE:    0.00 PKD
ROOT
HETATM    1  N   UNL     1     -12.048  15.189  67.805  1.00  0.00    -0.412 N  
HETATM    2  C   UNL     1     -10.814  14.857  67.332  1.00  0.00    -0.304 C  
HETATM    3  H1  UNL     1     -12.657  14.471  68.198  1.00  0.00     0.000 HD 
HETATM    4  H2  UNL     1     -12.365  16.157  67.765  1.00  0.00     0.000 HD 
HETATM    5  O   UNL     1     -10.081  15.720  66.859  1.00  0.00    -0.254 OA 
ENDROOT
BRANCH   2   6
HETATM    6  C   UNL     1     -10.366  13.404  67.596  1.00  0.00    -0.238 C  
HETATM    7  C   UNL     1      -8.938  13.187  67.026  1.00  0.00    -0.228 C  
HETATM    8  C   UNL     1      -8.598  11.715  66.728  1.00  0.00    -0.180 C  
HETATM    9  C   UNL     1      -9.820  10.915  66.224  1.00  0.00    -0.216 C  
HETATM   10  C   UNL     1     -10.908  11.874  65.763  1.00  0.00    -0.295 C  
HETATM   11  N   UNL     1     -11.328  12.418  67.047  1.00  0.00    -0.306 N  
HETATM   12  C   UNL     1     -11.425  11.240  67.874  1.00  0.00    -0.288 C  
HETATM   13  N   UNL     1     -10.449  10.330  67.400  1.00  0.00    -0.233 N  
HETATM   14  O   UNL     1     -12.264  11.034  68.735  1.00  0.00    -0.546 OA 
BRANCH  13  15
HETATM   15  O   UNL     1     -11.020   9.052  67.151  1.00  0.00    -0.119 OA 
HETATM   16  S   UNL     1      -9.949   7.824  67.335  1.00  0.00    -0.219 S  
HETATM   17  O   UNL     1      -8.761   8.127  66.562  1.00  0.00    -0.130 OA 
HETATM   18  O   UNL     1     -10.671   6.584  67.154  1.00  0.00    -0.277 OA 
HETATM   19  O   UNL     1      -9.563   7.895  68.897  1.00  0.00    -0.153 OA 
ENDBRANCH  13  15
ENDBRANCH   2   6
TORSDOF 2
ENDMDL
MODEL       85
REMARK 921   NORMALIZED FREE ENERGY PREDICTED BY IDOCK:   -3.59 KCAL/MOL
REMARK 922        TOTAL FREE ENERGY PREDICTED BY IDOCK:   -4.38 KCAL/MOL
REMARK 923 INTER-LIGAND FREE ENERGY PREDICTED BY IDOCK:   -3.99 KCAL/MOL
REMARK 924 INTRA-LIGAND FREE ENERGY PREDICTED BY IDOCK:   -0.40 KCAL/MOL
REMARK 927      BINDING AFFINITY PREDICTED BY RF-SCORE:    0.00 PKD
ROOT
HETATM    1  N   UNL     1     -13.762   9.335  70.993  1.00  0.00    -0.561 N  
HETATM    2  C   UNL     1     -13.456   8.147  71.587  1.00  0.00    -0.332 C  
HETATM    3  H1  UNL     1     -13.027  10.012  70.792  1.00  0.00     0.000 HD 
HETATM    4  H2  UNL     1     -14.730   9.548  70.750  1.00  0.00     0.000 HD 
HETATM    5  O   UNL     1     -14.341   7.332  71.830  1.00  0.00    -0.394 OA 
ENDROOT
BRANCH   2   6
HETATM    6  C   UNL     1     -11.950   7.852  71.754  1.00  0.00    -0.298 C  
HETATM    7  C   UNL     1     -11.145   9.175  71.653  1.00  0.00    -0.445 C  
HETATM    8  C   UNL     1      -9.669   8.985  71.258  1.00  0.00    -0.371 C  
HETATM    9  C   UNL     1      -9.468   7.817  70.267  1.00  0.00    -0.160 C  
HETATM   10  C   UNL     1     -10.800   7.446  69.631  1.00  0.00    -0.210 C  
HETATM   11  N   UNL     1     -11.470   6.846  70.777  1.00  0.00    -0.315 N  
HETATM   12  C   UNL     1     -10.445   5.998  71.335  1.00  0.00    -0.231 C  
HETATM   13  N   UNL     1      -9.206   6.630  71.069  1.00  0.00    -0.160 N  
HETATM   14  O   UNL     1     -10.616   4.898  71.833  1.00  0.00    -0.191 OA 
BRANCH  13  15
HETATM   15  O   UNL     1      -8.295   5.729  70.454  1.00  0.00    -0.117 OA 
HETATM   16  S   UNL     1      -6.863   5.624  71.247  1.00  0.00    -0.064 S  
HETATM   17  O   UNL     1      -6.352   6.964  71.460  1.00  0.00    -0.041 OA 
HETATM   18  O   UNL     1      -6.071   4.611  70.585  1.00  0.00    -0.017 OA 
HETATM   19  O   UNL     1      -7.273   5.010  72.679  1.00  0.00    -0.083 OA 
ENDBRANCH  13  15
ENDBRANCH   2   6
TORSDOF 2
ENDMDL
MODEL       86
REMARK 921   NORMALIZED FREE ENERGY PREDICTED BY IDOCK:   -3.59 KCAL/MOL
REMARK 922        TOTAL FREE ENERGY PREDICTED BY IDOCK:   -4.38 KCAL/MOL
REMARK 923 INTER-LIGAND FREE ENERGY PREDICTED BY IDOCK:   -3.98 KCAL/MOL
REMARK 924 INTRA-LIGAND FREE ENERGY PREDICTED BY IDOCK:   -0.40 KCAL/MOL
REMARK 927      BINDING AFFINITY PREDICTED BY RF-SCORE:    0.00 PKD
ROOT
HETATM    1  N   UNL     1      -6.856  16.537  68.905  1.00  0.00    -0.173 N  
HETATM    2  C   UNL     1      -7.833  16.779  67.987  1.00  0.00    -0.176 C  
HETATM    3  H1  UNL     1      -6.527  15.586  69.066  1.00  0.00     0.000 HD 
HETATM    4  H2  UNL     1      -6.452  17.311  69.434  1.00  0.00     0.000 HD 
HETATM    5  O   UNL     1      -8.229  17.925  67.794  1.00  0.00    -0.226 OA 
ENDROOT
BRANCH   2   6
HETATM    6  C   UNL     1      -8.251  15.571  67.123  1.00  0.00    -0.215 C  
HETATM    7  C   UNL     1      -9.383  15.994  66.148  1.00  0.00    -0.377 C  
HETATM    8  C   UNL     1     -10.247  14.824  65.642  1.00  0.00    -0.382 C  
HETATM    9  C   UNL     1     -10.444  13.728  66.713  1.00  0.00    -0.270 C  
HETATM   10  C   UNL     1     -10.097  14.282  68.086  1.00  0.00    -0.232 C  
HETATM   11  N   UNL     1      -8.652  14.409  67.951  1.00  0.00    -0.156 N  
HETATM   12  C   UNL     1      -8.281  13.156  67.340  1.00  0.00    -0.187 C  
HETATM   13  N   UNL     1      -9.370  12.763  66.525  1.00  0.00    -0.239 N  
HETATM   14  O   UNL     1      -7.271  12.514  67.575  1.00  0.00    -0.122 OA 
BRANCH  13  15
HETATM   15  O   UNL     1      -9.764  11.427  66.808  1.00  0.00    -0.193 OA 
HETATM   16  S   UNL     1      -9.685  10.444  65.498  1.00  0.00    -0.269 S  
HETATM   17  O   UNL     1     -10.397  11.074  64.403  1.00  0.00    -0.317 OA 
HETATM   18  O   UNL     1     -10.010   9.105  65.936  1.00  0.00    -0.295 OA 
HETATM   19  O   UNL     1      -8.116  10.429  65.134  1.00  0.00    -0.153 OA 
ENDBRANCH  13  15
ENDBRANCH   2   6
TORSDOF 2
ENDMDL
MODEL       87
REMARK 921   NORMALIZED FREE ENERGY PREDICTED BY IDOCK:   -3.58 KCAL/MOL
REMARK 922        TOTAL FREE ENERGY PREDICTED BY IDOCK:   -4.37 KCAL/MOL
REMARK 923 INTER-LIGAND FREE ENERGY PREDICTED BY IDOCK:   -4.02 KCAL/MOL
REMARK 924 INTRA-LIGAND FREE ENERGY PREDICTED BY IDOCK:   -0.35 KCAL/MOL
REMARK 927      BINDING AFFINITY PREDICTED BY RF-SCORE:    0.00 PKD
ROOT
HETATM    1  N   UNL     1     -10.299  11.625  69.120  1.00  0.00    -0.412 N  
HETATM    2  C   UNL     1     -10.490  12.585  68.171  1.00  0.00    -0.229 C  
HETATM    3  H1  UNL     1      -9.620  11.770  69.867  1.00  0.00     0.000 HD 
HETATM    4  H2  UNL     1     -10.838  10.760  69.084  1.00  0.00     0.000 HD 
HETATM    5  O   UNL     1     -11.308  12.411  67.272  1.00  0.00    -0.282 OA 
ENDROOT
BRANCH   2   6
HETATM    6  C   UNL     1      -9.756  13.921  68.415  1.00  0.00    -0.226 C  
HETATM    7  C   UNL     1     -10.719  14.928  69.097  1.00  0.00    -0.253 C  
HETATM    8  C   UNL     1     -10.327  16.404  68.902  1.00  0.00    -0.270 C  
HETATM    9  C   UNL     1      -9.697  16.671  67.517  1.00  0.00    -0.247 C  
HETATM   10  C   UNL     1     -10.015  15.518  66.577  1.00  0.00    -0.269 C  
HETATM   11  N   UNL     1      -9.184  14.475  67.164  1.00  0.00    -0.213 N  
HETATM   12  C   UNL     1      -7.936  15.159  67.398  1.00  0.00    -0.190 C  
HETATM   13  N   UNL     1      -8.258  16.510  67.675  1.00  0.00    -0.156 N  
HETATM   14  O   UNL     1      -6.821  14.682  67.267  1.00  0.00    -0.254 OA 
BRANCH  13  15
HETATM   15  O   UNL     1      -7.503  17.393  66.856  1.00  0.00    -0.180 OA 
HETATM   16  S   UNL     1      -6.621  18.472  67.720  1.00  0.00    -0.216 S  
HETATM   17  O   UNL     1      -7.494  19.120  68.680  1.00  0.00    -0.307 OA 
HETATM   18  O   UNL     1      -5.830  19.239  66.784  1.00  0.00    -0.167 OA 
HETATM   19  O   UNL     1      -5.584  17.544  68.531  1.00  0.00    -0.152 OA 
ENDBRANCH  13  15
ENDBRANCH   2   6
TORSDOF 2
ENDMDL
MODEL       88
REMARK 921   NORMALIZED FREE ENERGY PREDICTED BY IDOCK:   -3.56 KCAL/MOL
REMARK 922        TOTAL FREE ENERGY PREDICTED BY IDOCK:   -4.35 KCAL/MOL
REMARK 923 INTER-LIGAND FREE ENERGY PREDICTED BY IDOCK:   -4.01 KCAL/MOL
REMARK 924 INTRA-LIGAND FREE ENERGY PREDICTED BY IDOCK:   -0.34 KCAL/MOL
REMARK 927      BINDING AFFINITY PREDICTED BY RF-SCORE:    0.00 PKD
ROOT
HETATM    1  N   UNL     1     -13.552  11.177  72.167  1.00  0.00    -0.439 N  
HETATM    2  C   UNL     1     -13.050   9.978  71.756  1.00  0.00    -0.457 C  
HETATM    3  H1  UNL     1     -12.951  12.000  72.198  1.00  0.00     0.000 HD 
HETATM    4  H2  UNL     1     -14.530  11.251  72.445  1.00  0.00     0.000 HD 
HETATM    5  O   UNL     1     -13.773   8.986  71.720  1.00  0.00    -0.390 OA 
ENDROOT
BRANCH   2   6
HETATM    6  C   UNL     1     -11.613  10.011  71.196  1.00  0.00    -0.378 C  
HETATM    7  C   UNL     1     -11.633  10.549  69.740  1.00  0.00    -0.368 C  
HETATM    8  C   UNL     1     -10.413  10.132  68.898  1.00  0.00    -0.230 C  
HETATM    9  C   UNL     1      -9.908   8.715  69.250  1.00  0.00    -0.188 C  
HETATM   10  C   UNL     1     -10.985   7.960  70.015  1.00  0.00    -0.207 C  
HETATM   11  N   UNL     1     -10.954   8.686  71.278  1.00  0.00    -0.250 N  
HETATM   12  C   UNL     1      -9.541   8.800  71.543  1.00  0.00    -0.284 C  
HETATM   13  N   UNL     1      -8.896   8.877  70.285  1.00  0.00    -0.160 N  
HETATM   14  O   UNL     1      -9.008   8.728  72.638  1.00  0.00    -0.380 OA 
BRANCH  13  15
HETATM   15  O   UNL     1      -7.843   7.927  70.192  1.00  0.00    -0.094 OA 
HETATM   16  S   UNL     1      -6.396   8.608  69.827  1.00  0.00    -0.035 S  
HETATM   17  O   UNL     1      -6.564   9.455  68.663  1.00  0.00    -0.052 OA 
HETATM   18  O   UNL     1      -5.400   7.560  69.860  1.00  0.00    -0.022 OA 
HETATM   19  O   UNL     1      -6.097   9.553  71.097  1.00  0.00    -0.073 OA 
ENDBRANCH  13  15
ENDBRANCH   2   6
TORSDOF 2
ENDMDL
MODEL       89
REMARK 921   NORMALIZED FREE ENERGY PREDICTED BY IDOCK:   -3.56 KCAL/MOL
REMARK 922        TOTAL FREE ENERGY PREDICTED BY IDOCK:   -4.35 KCAL/MOL
REMARK 923 INTER-LIGAND FREE ENERGY PREDICTED BY IDOCK:   -3.94 KCAL/MOL
REMARK 924 INTRA-LIGAND FREE ENERGY PREDICTED BY IDOCK:   -0.41 KCAL/MOL
REMARK 927      BINDING AFFINITY PREDICTED BY RF-SCORE:    0.00 PKD
ROOT
HETATM    1  N   UNL     1     -14.123   7.966  72.059  1.00  0.00    -0.549 N  
HETATM    2  C   UNL     1     -13.016   8.729  71.840  1.00  0.00    -0.376 C  
HETATM    3  H1  UNL     1     -14.076   6.952  71.959  1.00  0.00     0.000 HD 
HETATM    4  H2  UNL     1     -15.002   8.410  72.324  1.00  0.00     0.000 HD 
HETATM    5  O   UNL     1     -13.073   9.950  71.960  1.00  0.00    -0.423 OA 
ENDROOT
BRANCH   2   6
HETATM    6  C   UNL     1     -11.702   7.951  71.614  1.00  0.00    -0.281 C  
HETATM    7  C   UNL     1     -12.025   6.478  71.249  1.00  0.00    -0.364 C  
HETATM    8  C   UNL     1     -10.875   5.493  71.532  1.00  0.00    -0.263 C  
HETATM    9  C   UNL     1     -10.067   5.875  72.792  1.00  0.00    -0.183 C  
HETATM   10  C   UNL     1     -10.864   6.856  73.638  1.00  0.00    -0.166 C  
HETATM   11  N   UNL     1     -10.799   8.037  72.787  1.00  0.00    -0.368 N  
HETATM   12  C   UNL     1      -9.410   8.069  72.397  1.00  0.00    -0.208 C  
HETATM   13  N   UNL     1      -8.971   6.724  72.344  1.00  0.00    -0.135 N  
HETATM   14  O   UNL     1      -8.727   9.070  72.256  1.00  0.00    -0.367 OA 
BRANCH  13  15
HETATM   15  O   UNL     1      -7.780   6.545  73.098  1.00  0.00    -0.096 OA 
HETATM   16  S   UNL     1      -6.548   5.922  72.213  1.00  0.00    -0.061 S  
HETATM   17  O   UNL     1      -7.024   4.738  71.526  1.00  0.00    -0.041 OA 
HETATM   18  O   UNL     1      -5.377   5.884  73.060  1.00  0.00    -0.025 OA 
HETATM   19  O   UNL     1      -6.267   7.062  71.110  1.00  0.00    -0.036 OA 
ENDBRANCH  13  15
ENDBRANCH   2   6
TORSDOF 2
ENDMDL
MODEL       90
REMARK 921   NORMALIZED FREE ENERGY PREDICTED BY IDOCK:   -3.55 KCAL/MOL
REMARK 922        TOTAL FREE ENERGY PREDICTED BY IDOCK:   -4.34 KCAL/MOL
REMARK 923 INTER-LIGAND FREE ENERGY PREDICTED BY IDOCK:   -3.95 KCAL/MOL
REMARK 924 INTRA-LIGAND FREE ENERGY PREDICTED BY IDOCK:   -0.39 KCAL/MOL
REMARK 927      BINDING AFFINITY PREDICTED BY RF-SCORE:    0.00 PKD
ROOT
HETATM    1  N   UNL     1     -11.165   4.731  65.683  1.00  0.00    -0.927 N  
HETATM    2  C   UNL     1      -9.866   5.004  65.997  1.00  0.00    -0.188 C  
HETATM    3  H1  UNL     1     -11.912   4.986  66.328  1.00  0.00     0.000 HD 
HETATM    4  H2  UNL     1     -11.389   4.271  64.801  1.00  0.00     0.000 HD 
HETATM    5  O   UNL     1      -8.966   4.697  65.220  1.00  0.00    -0.138 OA 
ENDROOT
BRANCH   2   6
HETATM    6  C   UNL     1      -9.650   5.853  67.267  1.00  0.00    -0.116 C  
HETATM    7  C   UNL     1      -8.140   6.175  67.427  1.00  0.00    -0.109 C  
HETATM    8  C   UNL     1      -7.720   6.517  68.869  1.00  0.00    -0.109 C  
HETATM    9  C   UNL     1      -8.510   5.708  69.922  1.00  0.00    -0.121 C  
HETATM   10  C   UNL     1      -9.175   4.512  69.260  1.00  0.00    -0.133 C  
HETATM   11  N   UNL     1     -10.197   5.192  68.476  1.00  0.00    -0.144 N  
HETATM   12  C   UNL     1     -10.735   6.145  69.416  1.00  0.00    -0.320 C  
HETATM   13  N   UNL     1      -9.672   6.510  70.277  1.00  0.00    -0.168 N  
HETATM   14  O   UNL     1     -11.905   6.477  69.511  1.00  0.00    -0.266 OA 
BRANCH  13  15
HETATM   15  O   UNL     1     -10.051   6.373  71.641  1.00  0.00    -0.185 OA 
HETATM   16  S   UNL     1      -9.932   7.776  72.482  1.00  0.00    -0.250 S  
HETATM   17  O   UNL     1      -8.613   8.336  72.264  1.00  0.00    -0.160 OA 
HETATM   18  O   UNL     1     -10.435   7.530  73.815  1.00  0.00    -0.317 OA 
HETATM   19  O   UNL     1     -11.009   8.735  71.765  1.00  0.00    -0.294 OA 
ENDBRANCH  13  15
ENDBRANCH   2   6
TORSDOF 2
ENDMDL
MODEL       91
REMARK 921   NORMALIZED FREE ENERGY PREDICTED BY IDOCK:   -3.55 KCAL/MOL
REMARK 922        TOTAL FREE ENERGY PREDICTED BY IDOCK:   -4.34 KCAL/MOL
REMARK 923 INTER-LIGAND FREE ENERGY PREDICTED BY IDOCK:   -4.15 KCAL/MOL
REMARK 924 INTRA-LIGAND FREE ENERGY PREDICTED BY IDOCK:   -0.18 KCAL/MOL
REMARK 927      BINDING AFFINITY PREDICTED BY RF-SCORE:    0.00 PKD
ROOT
HETATM    1  N   UNL     1      -8.653  19.096  67.846  1.00  0.00    -0.297 N  
HETATM    2  C   UNL     1      -8.329  18.541  66.644  1.00  0.00    -0.272 C  
HETATM    3  H1  UNL     1      -9.378  18.674  68.426  1.00  0.00     0.000 HD 
HETATM    4  H2  UNL     1      -8.170  19.935  68.166  1.00  0.00     0.000 HD 
HETATM    5  O   UNL     1      -7.457  19.049  65.945  1.00  0.00    -0.343 OA 
ENDROOT
BRANCH   2   6
HETATM    6  C   UNL     1      -8.993  17.183  66.334  1.00  0.00    -0.260 C  
HETATM    7  C   UNL     1     -10.199  17.398  65.381  1.00  0.00     0.155 C  
HETATM    8  C   UNL     1     -11.247  16.271  65.429  1.00  0.00     0.037 C  
HETATM    9  C   UNL     1     -11.407  15.672  66.844  1.00  0.00    -0.017 C  
HETATM   10  C   UNL     1     -10.811  16.619  67.874  1.00  0.00    -0.321 C  
HETATM   11  N   UNL     1      -9.394  16.467  67.568  1.00  0.00    -0.218 N  
HETATM   12  C   UNL     1      -9.251  15.038  67.435  1.00  0.00    -0.195 C  
HETATM   13  N   UNL     1     -10.481  14.551  66.929  1.00  0.00    -0.267 N  
HETATM   14  O   UNL     1      -8.293  14.376  67.797  1.00  0.00    -0.147 OA 
BRANCH  13  15
HETATM   15  O   UNL     1     -10.971  13.480  67.724  1.00  0.00    -0.256 OA 
HETATM   16  S   UNL     1     -11.417  12.175  66.836  1.00  0.00    -0.338 S  
HETATM   17  O   UNL     1     -12.309  12.616  65.782  1.00  0.00    -0.594 OA 
HETATM   18  O   UNL     1     -11.799  11.129  67.759  1.00  0.00    -0.608 OA 
HETATM   19  O   UNL     1     -10.037  11.694  66.158  1.00  0.00    -0.212 OA 
ENDBRANCH  13  15
ENDBRANCH   2   6
TORSDOF 2
ENDMDL
MODEL       92
REMARK 921   NORMALIZED FREE ENERGY PREDICTED BY IDOCK:   -3.53 KCAL/MOL
REMARK 922        TOTAL FREE ENERGY PREDICTED BY IDOCK:   -4.32 KCAL/MOL
REMARK 923 INTER-LIGAND FREE ENERGY PREDICTED BY IDOCK:   -3.97 KCAL/MOL
REMARK 924 INTRA-LIGAND FREE ENERGY PREDICTED BY IDOCK:   -0.34 KCAL/MOL
REMARK 927      BINDING AFFINITY PREDICTED BY RF-SCORE:    0.00 PKD
ROOT
HETATM    1  N   UNL     1     -13.298   8.684  72.729  1.00  0.00    -0.674 N  
HETATM    2  C   UNL     1     -12.396   9.258  71.883  1.00  0.00    -0.382 C  
HETATM    3  H1  UNL     1     -13.251   7.685  72.927  1.00  0.00     0.000 HD 
HETATM    4  H2  UNL     1     -14.021   9.256  73.165  1.00  0.00     0.000 HD 
HETATM    5  O   UNL     1     -12.452  10.461  71.644  1.00  0.00    -0.391 OA 
ENDROOT
BRANCH   2   6
HETATM    6  C   UNL     1     -11.243   8.344  71.415  1.00  0.00    -0.261 C  
HETATM    7  C   UNL     1      -9.945   8.709  72.182  1.00  0.00    -0.386 C  
HETATM    8  C   UNL     1      -8.650   8.290  71.462  1.00  0.00    -0.197 C  
HETATM    9  C   UNL     1      -8.764   8.407  69.925  1.00  0.00    -0.136 C  
HETATM   10  C   UNL     1      -9.950   9.287  69.563  1.00  0.00    -0.187 C  
HETATM   11  N   UNL     1     -11.046   8.408  69.948  1.00  0.00    -0.170 N  
HETATM   12  C   UNL     1     -10.638   7.137  69.401  1.00  0.00    -0.233 C  
HETATM   13  N   UNL     1      -9.223   7.112  69.442  1.00  0.00    -0.148 N  
HETATM   14  O   UNL     1     -11.373   6.302  68.900  1.00  0.00    -0.373 OA 
BRANCH  13  15
HETATM   15  O   UNL     1      -8.682   6.764  68.174  1.00  0.00    -0.123 OA 
HETATM   16  S   UNL     1      -7.755   5.412  68.222  1.00  0.00    -0.081 S  
HETATM   17  O   UNL     1      -6.781   5.556  69.287  1.00  0.00    -0.052 OA 
HETATM   18  O   UNL     1      -7.351   5.112  66.867  1.00  0.00    -0.083 OA 
HETATM   19  O   UNL     1      -8.796   4.259  68.647  1.00  0.00    -0.093 OA 
ENDBRANCH  13  15
ENDBRANCH   2   6
TORSDOF 2
ENDMDL
MODEL       93
REMARK 921   NORMALIZED FREE ENERGY PREDICTED BY IDOCK:   -3.48 KCAL/MOL
REMARK 922        TOTAL FREE ENERGY PREDICTED BY IDOCK:   -4.26 KCAL/MOL
REMARK 923 INTER-LIGAND FREE ENERGY PREDICTED BY IDOCK:   -3.87 KCAL/MOL
REMARK 924 INTRA-LIGAND FREE ENERGY PREDICTED BY IDOCK:   -0.39 KCAL/MOL
REMARK 927      BINDING AFFINITY PREDICTED BY RF-SCORE:    0.00 PKD
ROOT
HETATM    1  N   UNL     1      -8.207  12.692  66.689  1.00  0.00    -0.408 N  
HETATM    2  C   UNL     1      -7.557  11.738  67.413  1.00  0.00    -0.143 C  
HETATM    3  H1  UNL     1      -9.193  12.886  66.865  1.00  0.00     0.000 HD 
HETATM    4  H2  UNL     1      -7.708  13.213  65.968  1.00  0.00     0.000 HD 
HETATM    5  O   UNL     1      -6.370  11.504  67.200  1.00  0.00    -0.096 OA 
ENDROOT
BRANCH   2   6
HETATM    6  C   UNL     1      -8.352  11.133  68.589  1.00  0.00    -0.154 C  
HETATM    7  C   UNL     1      -7.368  10.546  69.636  1.00  0.00    -0.151 C  
HETATM    8  C   UNL     1      -7.987   9.467  70.544  1.00  0.00    -0.199 C  
HETATM    9  C   UNL     1      -9.025   8.594  69.803  1.00  0.00    -0.145 C  
HETATM   10  C   UNL     1      -8.852   8.754  68.300  1.00  0.00    -0.141 C  
HETATM   11  N   UNL     1      -9.332  10.120  68.133  1.00  0.00    -0.134 N  
HETATM   12  C   UNL     1     -10.534  10.132  68.931  1.00  0.00    -0.210 C  
HETATM   13  N   UNL     1     -10.321   9.229  70.001  1.00  0.00    -0.203 N  
HETATM   14  O   UNL     1     -11.567  10.722  68.663  1.00  0.00    -0.290 OA 
BRANCH  13  15
HETATM   15  O   UNL     1     -11.389   8.298  70.103  1.00  0.00    -0.192 OA 
HETATM   16  S   UNL     1     -12.078   8.274  71.592  1.00  0.00    -0.323 S  
HETATM   17  O   UNL     1     -11.031   8.119  72.583  1.00  0.00    -0.351 OA 
HETATM   18  O   UNL     1     -13.204   7.369  71.538  1.00  0.00    -0.363 OA 
HETATM   19  O   UNL     1     -12.696   9.754  71.743  1.00  0.00    -0.370 OA 
ENDBRANCH  13  15
ENDBRANCH   2   6
TORSDOF 2
ENDMDL
MODEL       94
REMARK 921   NORMALIZED FREE ENERGY PREDICTED BY IDOCK:   -3.48 KCAL/MOL
REMARK 922        TOTAL FREE ENERGY PREDICTED BY IDOCK:   -4.26 KCAL/MOL
REMARK 923 INTER-LIGAND FREE ENERGY PREDICTED BY IDOCK:   -3.85 KCAL/MOL
REMARK 924 INTRA-LIGAND FREE ENERGY PREDICTED BY IDOCK:   -0.40 KCAL/MOL
REMARK 927      BINDING AFFINITY PREDICTED BY RF-SCORE:    0.00 PKD
ROOT
HETATM    1  N   UNL     1     -11.922   8.151  72.876  1.00  0.00    -0.552 N  
HETATM    2  C   UNL     1     -12.110   7.147  71.974  1.00  0.00    -0.292 C  
HETATM    3  H1  UNL     1     -11.384   8.978  72.618  1.00  0.00     0.000 HD 
HETATM    4  H2  UNL     1     -12.318   8.074  73.813  1.00  0.00     0.000 HD 
HETATM    5  O   UNL     1     -12.757   6.151  72.285  1.00  0.00    -0.140 OA 
ENDROOT
BRANCH   2   6
HETATM    6  C   UNL     1     -11.619   7.437  70.540  1.00  0.00    -0.229 C  
HETATM    7  C   UNL     1     -11.270   6.102  69.828  1.00  0.00    -0.494 C  
HETATM    8  C   UNL     1     -10.287   6.254  68.653  1.00  0.00    -0.243 C  
HETATM    9  C   UNL     1      -9.236   7.360  68.901  1.00  0.00    -0.142 C  
HETATM   10  C   UNL     1      -9.191   7.704  70.382  1.00  0.00    -0.156 C  
HETATM   11  N   UNL     1     -10.474   8.378  70.525  1.00  0.00    -0.203 N  
HETATM   12  C   UNL     1     -10.505   9.248  69.374  1.00  0.00    -0.219 C  
HETATM   13  N   UNL     1      -9.786   8.590  68.348  1.00  0.00    -0.152 N  
HETATM   14  O   UNL     1     -10.964  10.377  69.341  1.00  0.00    -0.219 OA 
BRANCH  13  15
HETATM   15  O   UNL     1      -8.796   9.443  67.789  1.00  0.00    -0.123 OA 
HETATM   16  S   UNL     1      -8.961   9.641  66.169  1.00  0.00    -0.163 S  
HETATM   17  O   UNL     1      -9.064   8.334  65.551  1.00  0.00    -0.126 OA 
HETATM   18  O   UNL     1      -7.966  10.600  65.744  1.00  0.00    -0.159 OA 
HETATM   19  O   UNL     1     -10.386  10.378  66.025  1.00  0.00    -0.241 OA 
ENDBRANCH  13  15
ENDBRANCH   2   6
TORSDOF 2
ENDMDL
MODEL       95
REMARK 921   NORMALIZED FREE ENERGY PREDICTED BY IDOCK:   -3.45 KCAL/MOL
REMARK 922        TOTAL FREE ENERGY PREDICTED BY IDOCK:   -4.23 KCAL/MOL
REMARK 923 INTER-LIGAND FREE ENERGY PREDICTED BY IDOCK:   -3.83 KCAL/MOL
REMARK 924 INTRA-LIGAND FREE ENERGY PREDICTED BY IDOCK:   -0.40 KCAL/MOL
REMARK 927      BINDING AFFINITY PREDICTED BY RF-SCORE:    0.00 PKD
ROOT
HETATM    1  N   UNL     1      -8.445   7.764  70.288  1.00  0.00    -0.131 N  
HETATM    2  C   UNL     1      -8.119   8.405  69.130  1.00  0.00    -0.119 C  
HETATM    3  H1  UNL     1      -9.035   8.225  70.980  1.00  0.00     0.000 HD 
HETATM    4  H2  UNL     1      -8.097   6.821  70.463  1.00  0.00     0.000 HD 
HETATM    5  O   UNL     1      -7.409   7.850  68.296  1.00  0.00    -0.093 OA 
ENDROOT
BRANCH   2   6
HETATM    6  C   UNL     1      -8.834   9.751  68.887  1.00  0.00    -0.140 C  
HETATM    7  C   UNL     1     -10.127   9.816  69.742  1.00  0.00    -0.268 C  
HETATM    8  C   UNL     1     -11.183  10.804  69.212  1.00  0.00    -0.333 C  
HETATM    9  C   UNL     1     -11.207  10.870  67.668  1.00  0.00    -0.309 C  
HETATM   10  C   UNL     1     -10.494   9.657  67.090  1.00  0.00    -0.249 C  
HETATM   11  N   UNL     1      -9.118   9.976  67.450  1.00  0.00    -0.135 N  
HETATM   12  C   UNL     1      -9.012  11.369  67.090  1.00  0.00    -0.162 C  
HETATM   13  N   UNL     1     -10.295  11.938  67.282  1.00  0.00    -0.203 N  
HETATM   14  O   UNL     1      -8.033  11.913  66.608  1.00  0.00    -0.132 OA 
BRANCH  13  15
HETATM   15  O   UNL     1     -10.719  12.643  66.123  1.00  0.00    -0.261 OA 
HETATM   16  S   UNL     1     -11.139  14.197  66.437  1.00  0.00    -0.327 S  
HETATM   17  O   UNL     1     -12.078  14.209  67.541  1.00  0.00    -0.395 OA 
HETATM   18  O   UNL     1     -11.452  14.829  65.174  1.00  0.00    -0.350 OA 
HETATM   19  O   UNL     1      -9.762  14.862  66.943  1.00  0.00    -0.228 OA 
ENDBRANCH  13  15
ENDBRANCH   2   6
TORSDOF 2
ENDMDL
MODEL       96
REMARK 921   NORMALIZED FREE ENERGY PREDICTED BY IDOCK:   -3.45 KCAL/MOL
REMARK 922        TOTAL FREE ENERGY PREDICTED BY IDOCK:   -4.23 KCAL/MOL
REMARK 923 INTER-LIGAND FREE ENERGY PREDICTED BY IDOCK:   -3.89 KCAL/MOL
REMARK 924 INTRA-LIGAND FREE ENERGY PREDICTED BY IDOCK:   -0.34 KCAL/MOL
REMARK 927      BINDING AFFINITY PREDICTED BY RF-SCORE:    0.00 PKD
ROOT
HETATM    1  N   UNL     1      -9.489   6.916  65.708  1.00  0.00    -0.374 N  
HETATM    2  C   UNL     1      -8.844   7.853  66.459  1.00  0.00    -0.152 C  
HETATM    3  H1  UNL     1     -10.467   7.048  65.452  1.00  0.00     0.000 HD 
HETATM    4  H2  UNL     1      -8.992   6.080  65.401  1.00  0.00     0.000 HD 
HETATM    5  O   UNL     1      -7.666   7.694  66.766  1.00  0.00    -0.098 OA 
ENDROOT
BRANCH   2   6
HETATM    6  C   UNL     1      -9.631   9.154  66.723  1.00  0.00    -0.195 C  
HETATM    7  C   UNL     1     -10.132   9.743  65.378  1.00  0.00    -0.196 C  
HETATM    8  C   UNL     1     -10.431  11.253  65.425  1.00  0.00    -0.326 C  
HETATM    9  C   UNL     1      -9.463  12.019  66.355  1.00  0.00    -0.231 C  
HETATM   10  C   UNL     1      -8.236  11.164  66.637  1.00  0.00    -0.158 C  
HETATM   11  N   UNL     1      -8.830  10.141  67.486  1.00  0.00    -0.125 N  
HETATM   12  C   UNL     1      -9.645  10.914  68.391  1.00  0.00    -0.177 C  
HETATM   13  N   UNL     1     -10.086  12.050  67.671  1.00  0.00    -0.194 N  
HETATM   14  O   UNL     1      -9.818  10.683  69.576  1.00  0.00    -0.187 OA 
BRANCH  13  15
HETATM   15  O   UNL     1      -9.815  13.247  68.389  1.00  0.00    -0.234 OA 
HETATM   16  S   UNL     1     -11.173  14.081  68.779  1.00  0.00    -0.287 S  
HETATM   17  O   UNL     1     -11.971  14.251  67.581  1.00  0.00    -0.383 OA 
HETATM   18  O   UNL     1     -10.773  15.213  69.585  1.00  0.00    -0.256 OA 
HETATM   19  O   UNL     1     -11.957  13.079  69.767  1.00  0.00    -0.316 OA 
ENDBRANCH  13  15
ENDBRANCH   2   6
TORSDOF 2
ENDMDL
MODEL       97
REMARK 921   NORMALIZED FREE ENERGY PREDICTED BY IDOCK:   -3.44 KCAL/MOL
REMARK 922        TOTAL FREE ENERGY PREDICTED BY IDOCK:   -4.22 KCAL/MOL
REMARK 923 INTER-LIGAND FREE ENERGY PREDICTED BY IDOCK:   -3.87 KCAL/MOL
REMARK 924 INTRA-LIGAND FREE ENERGY PREDICTED BY IDOCK:   -0.35 KCAL/MOL
REMARK 927      BINDING AFFINITY PREDICTED BY RF-SCORE:    0.00 PKD
ROOT
HETATM    1  N   UNL     1      -6.872  12.249  68.661  1.00  0.00    -0.081 N  
HETATM    2  C   UNL     1      -6.728  13.495  69.195  1.00  0.00    -0.103 C  
HETATM    3  H1  UNL     1      -7.347  12.125  67.768  1.00  0.00     0.000 HD 
HETATM    4  H2  UNL     1      -6.503  11.437  69.157  1.00  0.00     0.000 HD 
HETATM    5  O   UNL     1      -6.156  13.643  70.270  1.00  0.00    -0.149 OA 
ENDROOT
BRANCH   2   6
HETATM    6  C   UNL     1      -7.165  14.664  68.288  1.00  0.00    -0.117 C  
HETATM    7  C   UNL     1      -5.918  15.299  67.618  1.00  0.00    -0.119 C  
HETATM    8  C   UNL     1      -6.125  16.753  67.153  1.00  0.00    -0.209 C  
HETATM    9  C   UNL     1      -7.052  17.549  68.098  1.00  0.00    -0.206 C  
HETATM   10  C   UNL     1      -7.169  16.829  69.433  1.00  0.00    -0.105 C  
HETATM   11  N   UNL     1      -7.959  15.674  69.029  1.00  0.00    -0.190 N  
HETATM   12  C   UNL     1      -8.986  16.265  68.206  1.00  0.00    -0.192 C  
HETATM   13  N   UNL     1      -8.405  17.396  67.582  1.00  0.00    -0.209 N  
HETATM   14  O   UNL     1     -10.153  15.916  68.154  1.00  0.00    -0.224 OA 
BRANCH  13  15
HETATM   15  O   UNL     1      -9.210  18.552  67.770  1.00  0.00    -0.275 OA 
HETATM   16  S   UNL     1      -9.607  19.293  66.361  1.00  0.00    -0.381 S  
HETATM   17  O   UNL     1      -8.395  19.506  65.594  1.00  0.00    -0.383 OA 
HETATM   18  O   UNL     1     -10.500  20.384  66.678  1.00  0.00    -0.302 OA 
HETATM   19  O   UNL     1     -10.498  18.190  65.596  1.00  0.00    -0.626 OA 
ENDBRANCH  13  15
ENDBRANCH   2   6
TORSDOF 2
ENDMDL
MODEL       98
REMARK 921   NORMALIZED FREE ENERGY PREDICTED BY IDOCK:   -3.38 KCAL/MOL
REMARK 922        TOTAL FREE ENERGY PREDICTED BY IDOCK:   -4.15 KCAL/MOL
REMARK 923 INTER-LIGAND FREE ENERGY PREDICTED BY IDOCK:   -3.77 KCAL/MOL
REMARK 924 INTRA-LIGAND FREE ENERGY PREDICTED BY IDOCK:   -0.38 KCAL/MOL
REMARK 927      BINDING AFFINITY PREDICTED BY RF-SCORE:    0.00 PKD
ROOT
HETATM    1  N   UNL     1      -7.631  11.780  69.316  1.00  0.00    -0.340 N  
HETATM    2  C   UNL     1      -8.587  11.041  68.685  1.00  0.00    -0.157 C  
HETATM    3  H1  UNL     1      -7.221  11.449  70.189  1.00  0.00     0.000 HD 
HETATM    4  H2  UNL     1      -7.326  12.667  68.915  1.00  0.00     0.000 HD 
HETATM    5  O   UNL     1      -9.081  11.439  67.634  1.00  0.00    -0.150 OA 
ENDROOT
BRANCH   2   6
HETATM    6  C   UNL     1      -8.851   9.642  69.280  1.00  0.00    -0.164 C  
HETATM    7  C   UNL     1      -9.591   8.763  68.237  1.00  0.00    -0.160 C  
HETATM    8  C   UNL     1     -10.381   7.591  68.849  1.00  0.00    -0.220 C  
HETATM    9  C   UNL     1     -11.000   7.947  70.219  1.00  0.00    -0.248 C  
HETATM   10  C   UNL     1     -11.022   9.458  70.397  1.00  0.00    -0.266 C  
HETATM   11  N   UNL     1      -9.597   9.715  70.559  1.00  0.00    -0.247 N  
HETATM   12  C   UNL     1      -9.192   8.682  71.481  1.00  0.00    -0.246 C  
HETATM   13  N   UNL     1     -10.024   7.564  71.230  1.00  0.00    -0.186 N  
HETATM   14  O   UNL     1      -8.370   8.800  72.374  1.00  0.00    -0.387 OA 
BRANCH  13  15
HETATM   15  O   UNL     1     -10.619   7.091  72.431  1.00  0.00    -0.210 OA 
HETATM   16  S   UNL     1     -10.238   5.531  72.764  1.00  0.00    -0.194 S  
HETATM   17  O   UNL     1     -10.506   4.728  71.587  1.00  0.00    -0.178 OA 
HETATM   18  O   UNL     1     -10.816   5.204  74.048  1.00  0.00    -0.291 OA 
HETATM   19  O   UNL     1      -8.643   5.575  72.988  1.00  0.00    -0.122 OA 
ENDBRANCH  13  15
ENDBRANCH   2   6
TORSDOF 2
ENDMDL
MODEL       99
REMARK 921   NORMALIZED FREE ENERGY PREDICTED BY IDOCK:   -3.37 KCAL/MOL
REMARK 922        TOTAL FREE ENERGY PREDICTED BY IDOCK:   -4.14 KCAL/MOL
REMARK 923 INTER-LIGAND FREE ENERGY PREDICTED BY IDOCK:   -3.94 KCAL/MOL
REMARK 924 INTRA-LIGAND FREE ENERGY PREDICTED BY IDOCK:   -0.20 KCAL/MOL
REMARK 927      BINDING AFFINITY PREDICTED BY RF-SCORE:    0.00 PKD
ROOT
HETATM    1  N   UNL     1     -10.431   9.822  66.888  1.00  0.00    -0.230 N  
HETATM    2  C   UNL     1     -11.009  10.225  68.055  1.00  0.00    -0.289 C  
HETATM    3  H1  UNL     1      -9.718   9.094  66.894  1.00  0.00     0.000 HD 
HETATM    4  H2  UNL     1     -10.713  10.251  66.007  1.00  0.00     0.000 HD 
HETATM    5  O   UNL     1     -11.868  11.102  68.048  1.00  0.00    -0.582 OA 
ENDROOT
BRANCH   2   6
HETATM    6  C   UNL     1     -10.639   9.397  69.304  1.00  0.00    -0.225 C  
HETATM    7  C   UNL     1      -9.308   9.923  69.903  1.00  0.00    -0.250 C  
HETATM    8  C   UNL     1      -8.560   8.896  70.772  1.00  0.00    -0.236 C  
HETATM    9  C   UNL     1      -8.717   7.451  70.247  1.00  0.00    -0.146 C  
HETATM   10  C   UNL     1      -9.203   7.478  68.806  1.00  0.00    -0.145 C  
HETATM   11  N   UNL     1     -10.568   7.947  69.007  1.00  0.00    -0.200 N  
HETATM   12  C   UNL     1     -11.017   7.144  70.119  1.00  0.00    -0.267 C  
HETATM   13  N   UNL     1      -9.878   6.886  70.920  1.00  0.00    -0.185 N  
HETATM   14  O   UNL     1     -12.138   6.689  70.269  1.00  0.00    -0.350 OA 
BRANCH  13  15
HETATM   15  O   UNL     1      -9.748   5.497  71.189  1.00  0.00    -0.164 OA 
HETATM   16  S   UNL     1      -9.776   5.148  72.792  1.00  0.00    -0.155 S  
HETATM   17  O   UNL     1      -8.814   5.998  73.466  1.00  0.00    -0.126 OA 
HETATM   18  O   UNL     1      -9.737   3.710  72.926  1.00  0.00    -0.125 OA 
HETATM   19  O   UNL     1     -11.253   5.603  73.247  1.00  0.00    -0.268 OA 
ENDBRANCH  13  15
ENDBRANCH   2   6
TORSDOF 2
ENDMDL
MODEL      100
REMARK 921   NORMALIZED FREE ENERGY PREDICTED BY IDOCK:   -3.37 KCAL/MOL
REMARK 922        TOTAL FREE ENERGY PREDICTED BY IDOCK:   -4.14 KCAL/MOL
REMARK 923 INTER-LIGAND FREE ENERGY PREDICTED BY IDOCK:   -3.94 KCAL/MOL
REMARK 924 INTRA-LIGAND FREE ENERGY PREDICTED BY IDOCK:   -0.20 KCAL/MOL
REMARK 927      BINDING AFFINITY PREDICTED BY RF-SCORE:    0.00 PKD
ROOT
HETATM    1  N   UNL     1      -8.932   6.314  65.257  1.00  0.00    -0.368 N  
HETATM    2  C   UNL     1      -8.066   5.978  66.255  1.00  0.00    -0.112 C  
HETATM    3  H1  UNL     1      -9.894   6.570  65.477  1.00  0.00     0.000 HD 
HETATM    4  H2  UNL     1      -8.617   6.310  64.287  1.00  0.00     0.000 HD 
HETATM    5  O   UNL     1      -6.908   5.670  65.989  1.00  0.00    -0.055 OA 
ENDROOT
BRANCH   2   6
HETATM    6  C   UNL     1      -8.591   6.183  67.691  1.00  0.00    -0.106 C  
HETATM    7  C   UNL     1      -8.877   4.804  68.344  1.00  0.00    -0.119 C  
HETATM    8  C   UNL     1      -9.882   4.856  69.509  1.00  0.00    -0.287 C  
HETATM    9  C   UNL     1     -10.988   5.913  69.290  1.00  0.00    -0.327 C  
HETATM   10  C   UNL     1     -11.032   6.315  67.823  1.00  0.00    -0.332 C  
HETATM   11  N   UNL     1      -9.785   7.061  67.726  1.00  0.00    -0.133 N  
HETATM   12  C   UNL     1      -9.816   7.884  68.911  1.00  0.00    -0.173 C  
HETATM   13  N   UNL     1     -10.512   7.147  69.899  1.00  0.00    -0.217 N  
HETATM   14  O   UNL     1      -9.418   9.034  68.996  1.00  0.00    -0.153 OA 
BRANCH  13  15
HETATM   15  O   UNL     1     -11.553   7.924  70.476  1.00  0.00    -0.247 OA 
HETATM   16  S   UNL     1     -11.552   7.880  72.116  1.00  0.00    -0.351 S  
HETATM   17  O   UNL     1     -11.511   6.495  72.542  1.00  0.00    -0.268 OA 
HETATM   18  O   UNL     1     -12.586   8.780  72.577  1.00  0.00    -0.391 OA 
HETATM   19  O   UNL     1     -10.149   8.568  72.508  1.00  0.00    -0.298 OA 
ENDBRANCH  13  15
ENDBRANCH   2   6
TORSDOF 2
ENDMDL
MODEL      101
REMARK 921   NORMALIZED FREE ENERGY PREDICTED BY IDOCK:   -3.34 KCAL/MOL
REMARK 922        TOTAL FREE ENERGY PREDICTED BY IDOCK:   -4.10 KCAL/MOL
REMARK 923 INTER-LIGAND FREE ENERGY PREDICTED BY IDOCK:   -3.73 KCAL/MOL
REMARK 924 INTRA-LIGAND FREE ENERGY PREDICTED BY IDOCK:   -0.37 KCAL/MOL
REMARK 927      BINDING AFFINITY PREDICTED BY RF-SCORE:    0.00 PKD
ROOT
HETATM    1  N   UNL     1      -9.232   3.075  73.876  1.00  0.00    -0.081 N  
HETATM    2  C   UNL     1     -10.291   3.739  73.331  1.00  0.00    -0.163 C  
HETATM    3  H1  UNL     1      -8.279   3.356  73.648  1.00  0.00     0.000 HD 
HETATM    4  H2  UNL     1      -9.394   2.296  74.513  1.00  0.00     0.000 HD 
HETATM    5  O   UNL     1     -11.439   3.400  73.605  1.00  0.00    -0.199 OA 
ENDROOT
BRANCH   2   6
HETATM    6  C   UNL     1      -9.941   5.005  72.521  1.00  0.00    -0.177 C  
HETATM    7  C   UNL     1      -8.554   5.542  72.966  1.00  0.00    -0.121 C  
HETATM    8  C   UNL     1      -8.333   7.036  72.667  1.00  0.00    -0.119 C  
HETATM    9  C   UNL     1      -9.627   7.867  72.813  1.00  0.00    -0.247 C  
HETATM   10  C   UNL     1     -10.657   7.079  73.609  1.00  0.00    -0.345 C  
HETATM   11  N   UNL     1     -10.991   6.045  72.638  1.00  0.00    -0.249 N  
HETATM   12  C   UNL     1     -11.145   6.797  71.416  1.00  0.00    -0.254 C  
HETATM   13  N   UNL     1     -10.255   7.896  71.500  1.00  0.00    -0.188 N  
HETATM   14  O   UNL     1     -11.966   6.582  70.540  1.00  0.00    -0.388 OA 
BRANCH  13  15
HETATM   15  O   UNL     1     -10.927   9.118  71.227  1.00  0.00    -0.273 OA 
HETATM   16  S   UNL     1     -10.323   9.904  69.920  1.00  0.00    -0.272 S  
HETATM   17  O   UNL     1      -8.885  10.013  70.070  1.00  0.00    -0.192 OA 
HETATM   18  O   UNL     1     -11.148  11.069  69.692  1.00  0.00    -0.251 OA 
HETATM   19  O   UNL     1     -10.625   8.893  68.703  1.00  0.00    -0.209 OA 
ENDBRANCH  13  15
ENDBRANCH   2   6
TORSDOF 2
ENDMDL
MODEL      102
REMARK 921   NORMALIZED FREE ENERGY PREDICTED BY IDOCK:   -3.33 KCAL/MOL
REMARK 922        TOTAL FREE ENERGY PREDICTED BY IDOCK:   -4.10 KCAL/MOL
REMARK 923 INTER-LIGAND FREE ENERGY PREDICTED BY IDOCK:   -3.76 KCAL/MOL
REMARK 924 INTRA-LIGAND FREE ENERGY PREDICTED BY IDOCK:   -0.33 KCAL/MOL
REMARK 927      BINDING AFFINITY PREDICTED BY RF-SCORE:    0.00 PKD
ROOT
HETATM    1  N   UNL     1     -10.250   5.017  68.451  1.00  0.00    -0.115 N  
HETATM    2  C   UNL     1     -10.106   6.017  69.366  1.00  0.00    -0.192 C  
HETATM    3  H1  UNL     1     -10.683   5.208  67.547  1.00  0.00     0.000 HD 
HETATM    4  H2  UNL     1      -9.925   4.076  68.670  1.00  0.00     0.000 HD 
HETATM    5  O   UNL     1      -9.586   5.787  70.454  1.00  0.00    -0.161 OA 
ENDROOT
BRANCH   2   6
HETATM    6  C   UNL     1     -10.470   7.433  68.872  1.00  0.00    -0.203 C  
HETATM    7  C   UNL     1     -10.448   7.466  67.321  1.00  0.00    -0.385 C  
HETATM    8  C   UNL     1     -10.248   8.871  66.724  1.00  0.00    -0.348 C  
HETATM    9  C   UNL     1      -9.313   9.751  67.584  1.00  0.00    -0.140 C  
HETATM   10  C   UNL     1      -8.519   8.875  68.542  1.00  0.00    -0.129 C  
HETATM   11  N   UNL     1      -9.581   8.468  69.452  1.00  0.00    -0.169 N  
HETATM   12  C   UNL     1     -10.280   9.706  69.697  1.00  0.00    -0.222 C  
HETATM   13  N   UNL     1     -10.164  10.478  68.516  1.00  0.00    -0.166 N  
HETATM   14  O   UNL     1     -10.773  10.054  70.757  1.00  0.00    -0.303 OA 
BRANCH  13  15
HETATM   15  O   UNL     1      -9.687  11.785  68.806  1.00  0.00    -0.168 OA 
HETATM   16  S   UNL     1     -10.769  12.960  68.434  1.00  0.00    -0.261 S  
HETATM   17  O   UNL     1     -11.219  12.759  67.070  1.00  0.00    -0.267 OA 
HETATM   18  O   UNL     1     -10.210  14.222  68.865  1.00  0.00    -0.235 OA 
HETATM   19  O   UNL     1     -12.006  12.656  69.420  1.00  0.00    -0.301 OA 
ENDBRANCH  13  15
ENDBRANCH   2   6
TORSDOF 2
ENDMDL
MODEL      103
REMARK 921   NORMALIZED FREE ENERGY PREDICTED BY IDOCK:   -3.33 KCAL/MOL
REMARK 922        TOTAL FREE ENERGY PREDICTED BY IDOCK:   -4.09 KCAL/MOL
REMARK 923 INTER-LIGAND FREE ENERGY PREDICTED BY IDOCK:   -3.80 KCAL/MOL
REMARK 924 INTRA-LIGAND FREE ENERGY PREDICTED BY IDOCK:   -0.29 KCAL/MOL
REMARK 927      BINDING AFFINITY PREDICTED BY RF-SCORE:    0.00 PKD
ROOT
HETATM    1  N   UNL     1      -7.469   7.375  66.419  1.00  0.00    -0.082 N  
HETATM    2  C   UNL     1      -8.706   6.809  66.343  1.00  0.00    -0.138 C  
HETATM    3  H1  UNL     1      -7.324   8.220  66.971  1.00  0.00     0.000 HD 
HETATM    4  H2  UNL     1      -6.685   6.953  65.921  1.00  0.00     0.000 HD 
HETATM    5  O   UNL     1      -8.880   5.792  65.677  1.00  0.00    -0.153 OA 
ENDROOT
BRANCH   2   6
HETATM    6  C   UNL     1      -9.780   7.423  67.266  1.00  0.00    -0.157 C  
HETATM    7  C   UNL     1      -9.934   8.935  66.953  1.00  0.00    -0.315 C  
HETATM    8  C   UNL     1     -10.528   9.760  68.110  1.00  0.00    -0.258 C  
HETATM    9  C   UNL     1     -10.080   9.243  69.495  1.00  0.00    -0.198 C  
HETATM   10  C   UNL     1      -8.862   8.345  69.341  1.00  0.00    -0.142 C  
HETATM   11  N   UNL     1      -9.478   7.191  68.699  1.00  0.00    -0.140 N  
HETATM   12  C   UNL     1     -10.676   6.996  69.479  1.00  0.00    -0.241 C  
HETATM   13  N   UNL     1     -11.083   8.277  69.925  1.00  0.00    -0.163 N  
HETATM   14  O   UNL     1     -11.167   5.922  69.783  1.00  0.00    -0.389 OA 
BRANCH  13  15
HETATM   15  O   UNL     1     -11.300   8.284  71.329  1.00  0.00    -0.254 OA 
HETATM   16  S   UNL     1     -12.811   8.769  71.742  1.00  0.00    -0.381 S  
HETATM   17  O   UNL     1     -13.094  10.023  71.071  1.00  0.00    -0.375 OA 
HETATM   18  O   UNL     1     -12.936   8.637  73.176  1.00  0.00    -0.156 OA 
HETATM   19  O   UNL     1     -13.757   7.633  71.101  1.00  0.00    -0.254 OA 
ENDBRANCH  13  15
ENDBRANCH   2   6
TORSDOF 2
ENDMDL
MODEL      104
REMARK 921   NORMALIZED FREE ENERGY PREDICTED BY IDOCK:   -3.31 KCAL/MOL
REMARK 922        TOTAL FREE ENERGY PREDICTED BY IDOCK:   -4.07 KCAL/MOL
REMARK 923 INTER-LIGAND FREE ENERGY PREDICTED BY IDOCK:   -3.70 KCAL/MOL
REMARK 924 INTRA-LIGAND FREE ENERGY PREDICTED BY IDOCK:   -0.36 KCAL/MOL
REMARK 927      BINDING AFFINITY PREDICTED BY RF-SCORE:    0.00 PKD
ROOT
HETATM    1  N   UNL     1      -9.498  11.598  63.143  1.00  0.00    -0.546 N  
HETATM    2  C   UNL     1     -10.631  11.514  63.896  1.00  0.00    -0.391 C  
HETATM    3  H1  UNL     1      -8.612  11.252  63.511  1.00  0.00     0.000 HD 
HETATM    4  H2  UNL     1      -9.536  12.009  62.211  1.00  0.00     0.000 HD 
HETATM    5  O   UNL     1     -11.698  11.931  63.455  1.00  0.00    -0.447 OA 
ENDROOT
BRANCH   2   6
HETATM    6  C   UNL     1     -10.500  10.724  65.215  1.00  0.00    -0.212 C  
HETATM    7  C   UNL     1     -11.205  11.499  66.360  1.00  0.00    -0.307 C  
HETATM    8  C   UNL     1     -10.703  11.135  67.769  1.00  0.00    -0.267 C  
HETATM    9  C   UNL     1      -9.190  10.818  67.794  1.00  0.00    -0.152 C  
HETATM   10  C   UNL     1      -8.532  11.352  66.530  1.00  0.00    -0.170 C  
HETATM   11  N   UNL     1      -9.085  10.429  65.547  1.00  0.00    -0.167 N  
HETATM   12  C   UNL     1      -8.937   9.149  66.196  1.00  0.00    -0.173 C  
HETATM   13  N   UNL     1      -9.061   9.382  67.588  1.00  0.00    -0.122 N  
HETATM   14  O   UNL     1      -8.648   8.098  65.651  1.00  0.00    -0.151 OA 
BRANCH  13  15
HETATM   15  O   UNL     1      -7.972   8.811  68.300  1.00  0.00    -0.104 OA 
HETATM   16  S   UNL     1      -8.451   7.789  69.490  1.00  0.00    -0.131 S  
HETATM   17  O   UNL     1      -9.435   8.466  70.313  1.00  0.00    -0.161 OA 
HETATM   18  O   UNL     1      -7.261   7.203  70.067  1.00  0.00    -0.074 OA 
HETATM   19  O   UNL     1      -9.194   6.604  68.691  1.00  0.00    -0.130 OA 
ENDBRANCH  13  15
ENDBRANCH   2   6
TORSDOF 2
ENDMDL
MODEL      105
REMARK 921   NORMALIZED FREE ENERGY PREDICTED BY IDOCK:   -3.28 KCAL/MOL
REMARK 922        TOTAL FREE ENERGY PREDICTED BY IDOCK:   -4.03 KCAL/MOL
REMARK 923 INTER-LIGAND FREE ENERGY PREDICTED BY IDOCK:   -3.67 KCAL/MOL
REMARK 924 INTRA-LIGAND FREE ENERGY PREDICTED BY IDOCK:   -0.37 KCAL/MOL
REMARK 927      BINDING AFFINITY PREDICTED BY RF-SCORE:    0.00 PKD
ROOT
HETATM    1  N   UNL     1      -8.333  13.869  68.863  1.00  0.00    -0.346 N  
HETATM    2  C   UNL     1      -9.239  13.223  68.077  1.00  0.00    -0.217 C  
HETATM    3  H1  UNL     1      -7.689  13.335  69.447  1.00  0.00     0.000 HD 
HETATM    4  H2  UNL     1      -8.299  14.888  68.869  1.00  0.00     0.000 HD 
HETATM    5  O   UNL     1     -10.016  13.865  67.375  1.00  0.00    -0.235 OA 
ENDROOT
BRANCH   2   6
HETATM    6  C   UNL     1      -9.093  11.688  68.010  1.00  0.00    -0.177 C  
HETATM    7  C   UNL     1      -9.172  11.221  66.532  1.00  0.00    -0.200 C  
HETATM    8  C   UNL     1      -9.585   9.748  66.359  1.00  0.00    -0.256 C  
HETATM    9  C   UNL     1     -10.604   9.290  67.427  1.00  0.00    -0.255 C  
HETATM   10  C   UNL     1     -11.236  10.506  68.089  1.00  0.00    -0.293 C  
HETATM   11  N   UNL     1     -10.097  10.998  68.854  1.00  0.00    -0.203 N  
HETATM   12  C   UNL     1      -9.569   9.793  69.446  1.00  0.00    -0.207 C  
HETATM   13  N   UNL     1      -9.832   8.743  68.534  1.00  0.00    -0.164 N  
HETATM   14  O   UNL     1      -9.094   9.692  70.565  1.00  0.00    -0.242 OA 
BRANCH  13  15
HETATM   15  O   UNL     1     -10.477   7.654  69.180  1.00  0.00    -0.215 OA 
HETATM   16  S   UNL     1      -9.725   6.219  68.922  1.00  0.00    -0.132 S  
HETATM   17  O   UNL     1      -9.522   6.053  67.496  1.00  0.00    -0.113 OA 
HETATM   18  O   UNL     1     -10.413   5.218  69.707  1.00  0.00    -0.291 OA 
HETATM   19  O   UNL     1      -8.284   6.421  69.614  1.00  0.00    -0.121 OA 
ENDBRANCH  13  15
ENDBRANCH   2   6
TORSDOF 2
ENDMDL
MODEL      106
REMARK 921   NORMALIZED FREE ENERGY PREDICTED BY IDOCK:   -3.26 KCAL/MOL
REMARK 922        TOTAL FREE ENERGY PREDICTED BY IDOCK:   -4.02 KCAL/MOL
REMARK 923 INTER-LIGAND FREE ENERGY PREDICTED BY IDOCK:   -3.65 KCAL/MOL
REMARK 924 INTRA-LIGAND FREE ENERGY PREDICTED BY IDOCK:   -0.37 KCAL/MOL
REMARK 927      BINDING AFFINITY PREDICTED BY RF-SCORE:    0.00 PKD
ROOT
HETATM    1  N   UNL     1     -10.338  13.548  66.285  1.00  0.00    -0.287 N  
HETATM    2  C   UNL     1      -9.989  12.265  65.985  1.00  0.00    -0.252 C  
HETATM    3  H1  UNL     1     -10.502  13.821  67.253  1.00  0.00     0.000 HD 
HETATM    4  H2  UNL     1     -10.437  14.236  65.538  1.00  0.00     0.000 HD 
HETATM    5  O   UNL     1      -9.792  11.935  64.819  1.00  0.00    -0.248 OA 
ENDROOT
BRANCH   2   6
HETATM    6  C   UNL     1      -9.699  11.351  67.194  1.00  0.00    -0.182 C  
HETATM    7  C   UNL     1      -8.388  10.559  66.947  1.00  0.00    -0.126 C  
HETATM    8  C   UNL     1      -8.273   9.261  67.768  1.00  0.00    -0.115 C  
HETATM    9  C   UNL     1      -9.637   8.563  67.966  1.00  0.00    -0.149 C  
HETATM   10  C   UNL     1     -10.642   9.104  66.960  1.00  0.00    -0.195 C  
HETATM   11  N   UNL     1     -10.835  10.447  67.491  1.00  0.00    -0.291 N  
HETATM   12  C   UNL     1     -10.982  10.209  68.906  1.00  0.00    -0.223 C  
HETATM   13  N   UNL     1     -10.191   9.074  69.212  1.00  0.00    -0.199 N  
HETATM   14  O   UNL     1     -11.732  10.805  69.660  1.00  0.00    -0.274 OA 
BRANCH  13  15
HETATM   15  O   UNL     1     -10.944   8.105  69.928  1.00  0.00    -0.240 OA 
HETATM   16  S   UNL     1     -10.220   7.633  71.322  1.00  0.00    -0.186 S  
HETATM   17  O   UNL     1      -8.852   7.253  71.028  1.00  0.00    -0.142 OA 
HETATM   18  O   UNL     1     -11.124   6.731  72.000  1.00  0.00    -0.234 OA 
HETATM   19  O   UNL     1     -10.188   8.982  72.202  1.00  0.00    -0.300 OA 
ENDBRANCH  13  15
ENDBRANCH   2   6
TORSDOF 2
ENDMDL
MODEL      107
REMARK 921   NORMALIZED FREE ENERGY PREDICTED BY IDOCK:   -3.24 KCAL/MOL
REMARK 922        TOTAL FREE ENERGY PREDICTED BY IDOCK:   -3.99 KCAL/MOL
REMARK 923 INTER-LIGAND FREE ENERGY PREDICTED BY IDOCK:   -3.79 KCAL/MOL
REMARK 924 INTRA-LIGAND FREE ENERGY PREDICTED BY IDOCK:   -0.20 KCAL/MOL
REMARK 927      BINDING AFFINITY PREDICTED BY RF-SCORE:    0.00 PKD
ROOT
HETATM    1  N   UNL     1      -8.619  10.862  65.001  1.00  0.00    -0.345 N  
HETATM    2  C   UNL     1      -9.803  11.224  65.572  1.00  0.00    -0.231 C  
HETATM    3  H1  UNL     1      -8.004  10.200  65.474  1.00  0.00     0.000 HD 
HETATM    4  H2  UNL     1      -8.347  11.256  64.101  1.00  0.00     0.000 HD 
HETATM    5  O   UNL     1     -10.543  12.022  65.004  1.00  0.00    -0.268 OA 
ENDROOT
BRANCH   2   6
HETATM    6  C   UNL     1     -10.198  10.445  66.843  1.00  0.00    -0.227 C  
HETATM    7  C   UNL     1      -9.962  11.333  68.094  1.00  0.00    -0.191 C  
HETATM    8  C   UNL     1      -9.786  10.543  69.403  1.00  0.00    -0.188 C  
HETATM    9  C   UNL     1      -9.048   9.202  69.189  1.00  0.00    -0.144 C  
HETATM   10  C   UNL     1      -8.333   9.216  67.847  1.00  0.00    -0.117 C  
HETATM   11  N   UNL     1      -9.478   9.153  66.949  1.00  0.00    -0.161 N  
HETATM   12  C   UNL     1     -10.295   8.127  67.550  1.00  0.00    -0.261 C  
HETATM   13  N   UNL     1     -10.072   8.196  68.946  1.00  0.00    -0.197 N  
HETATM   14  O   UNL     1     -10.956   7.294  66.952  1.00  0.00    -0.343 OA 
BRANCH  13  15
HETATM   15  O   UNL     1      -9.738   6.919  69.473  1.00  0.00    -0.158 OA 
HETATM   16  S   UNL     1     -10.634   6.514  70.787  1.00  0.00    -0.242 S  
HETATM   17  O   UNL     1     -10.578   7.605  71.739  1.00  0.00    -0.210 OA 
HETATM   18  O   UNL     1     -10.271   5.166  71.163  1.00  0.00    -0.210 OA 
HETATM   19  O   UNL     1     -12.134   6.431  70.206  1.00  0.00    -0.294 OA 
ENDBRANCH  13  15
ENDBRANCH   2   6
TORSDOF 2
ENDMDL
MODEL      108
REMARK 921   NORMALIZED FREE ENERGY PREDICTED BY IDOCK:   -3.19 KCAL/MOL
REMARK 922        TOTAL FREE ENERGY PREDICTED BY IDOCK:   -3.93 KCAL/MOL
REMARK 923 INTER-LIGAND FREE ENERGY PREDICTED BY IDOCK:   -4.21 KCAL/MOL
REMARK 924 INTRA-LIGAND FREE ENERGY PREDICTED BY IDOCK:    0.28 KCAL/MOL
REMARK 927      BINDING AFFINITY PREDICTED BY RF-SCORE:    0.00 PKD
ROOT
HETATM    1  N   UNL     1      -5.957  19.421  65.959  1.00  0.00    -0.168 N  
HETATM    2  C   UNL     1      -6.990  20.011  66.625  1.00  0.00    -0.227 C  
HETATM    3  H1  UNL     1      -5.939  18.409  65.835  1.00  0.00     0.000 HD 
HETATM    4  H2  UNL     1      -5.200  19.993  65.585  1.00  0.00     0.000 HD 
HETATM    5  O   UNL     1      -7.012  21.229  66.775  1.00  0.00    -0.356 OA 
ENDROOT
BRANCH   2   6
HETATM    6  C   UNL     1      -8.163  19.081  66.998  1.00  0.00    -0.270 C  
HETATM    7  C   UNL     1      -8.907  19.650  68.236  1.00  0.00    -0.361 C  
HETATM    8  C   UNL     1      -9.707  18.598  69.027  1.00  0.00    -0.301 C  
HETATM    9  C   UNL     1      -9.017  17.216  69.039  1.00  0.00    -0.110 C  
HETATM   10  C   UNL     1      -7.557  17.366  68.637  1.00  0.00    -0.265 C  
HETATM   11  N   UNL     1      -7.715  17.686  67.224  1.00  0.00    -0.200 N  
HETATM   12  C   UNL     1      -8.699  16.725  66.790  1.00  0.00    -0.230 C  
HETATM   13  N   UNL     1      -9.543  16.477  67.899  1.00  0.00    -0.231 N  
HETATM   14  O   UNL     1      -8.720  16.157  65.710  1.00  0.00    -0.334 OA 
BRANCH  13  15
HETATM   15  O   UNL     1      -9.666  15.083  68.146  1.00  0.00    -0.209 OA 
HETATM   16  S   UNL     1     -10.851  14.724  69.223  1.00  0.00    -0.266 S  
HETATM   17  O   UNL     1     -10.664  15.543  70.405  1.00  0.00    -0.316 OA 
HETATM   18  O   UNL     1     -10.941  13.284  69.310  1.00  0.00    -0.196 OA 
HETATM   19  O   UNL     1     -12.193  15.215  68.479  1.00  0.00    -0.171 OA 
ENDBRANCH  13  15
ENDBRANCH   2   6
TORSDOF 2
ENDMDL
MODEL      109
REMARK 921   NORMALIZED FREE ENERGY PREDICTED BY IDOCK:   -3.18 KCAL/MOL
REMARK 922        TOTAL FREE ENERGY PREDICTED BY IDOCK:   -3.92 KCAL/MOL
REMARK 923 INTER-LIGAND FREE ENERGY PREDICTED BY IDOCK:   -3.59 KCAL/MOL
REMARK 924 INTRA-LIGAND FREE ENERGY PREDICTED BY IDOCK:   -0.33 KCAL/MOL
REMARK 927      BINDING AFFINITY PREDICTED BY RF-SCORE:    0.00 PKD
ROOT
HETATM    1  N   UNL     1      -9.777   8.337  66.096  1.00  0.00    -0.438 N  
HETATM    2  C   UNL     1      -9.615   9.054  67.244  1.00  0.00    -0.159 C  
HETATM    3  H1  UNL     1      -9.665   7.324  66.105  1.00  0.00     0.000 HD 
HETATM    4  H2  UNL     1     -10.010   8.816  65.226  1.00  0.00     0.000 HD 
HETATM    5  O   UNL     1      -9.749  10.274  67.234  1.00  0.00    -0.159 OA 
ENDROOT
BRANCH   2   6
HETATM    6  C   UNL     1      -9.436   8.222  68.532  1.00  0.00    -0.146 C  
HETATM    7  C   UNL     1      -8.361   7.127  68.300  1.00  0.00    -0.124 C  
HETATM    8  C   UNL     1      -8.470   5.926  69.257  1.00  0.00    -0.113 C  
HETATM    9  C   UNL     1      -9.935   5.586  69.615  1.00  0.00    -0.214 C  
HETATM   10  C   UNL     1     -10.875   6.242  68.615  1.00  0.00    -0.333 C  
HETATM   11  N   UNL     1     -10.717   7.639  68.998  1.00  0.00    -0.169 N  
HETATM   12  C   UNL     1     -10.793   7.582  70.438  1.00  0.00    -0.244 C  
HETATM   13  N   UNL     1     -10.253   6.332  70.824  1.00  0.00    -0.189 N  
HETATM   14  O   UNL     1     -11.325   8.408  71.161  1.00  0.00    -0.255 OA 
BRANCH  13  15
HETATM   15  O   UNL     1     -11.141   5.639  71.691  1.00  0.00    -0.251 OA 
HETATM   16  S   UNL     1     -10.441   5.203  73.110  1.00  0.00    -0.233 S  
HETATM   17  O   UNL     1      -9.201   4.511  72.820  1.00  0.00    -0.126 OA 
HETATM   18  O   UNL     1     -11.465   4.602  73.935  1.00  0.00    -0.204 OA 
HETATM   19  O   UNL     1     -10.080   6.614  73.798  1.00  0.00    -0.235 OA 
ENDBRANCH  13  15
ENDBRANCH   2   6
TORSDOF 2
ENDMDL
MODEL      110
REMARK 921   NORMALIZED FREE ENERGY PREDICTED BY IDOCK:   -3.18 KCAL/MOL
REMARK 922        TOTAL FREE ENERGY PREDICTED BY IDOCK:   -3.92 KCAL/MOL
REMARK 923 INTER-LIGAND FREE ENERGY PREDICTED BY IDOCK:   -3.66 KCAL/MOL
REMARK 924 INTRA-LIGAND FREE ENERGY PREDICTED BY IDOCK:   -0.26 KCAL/MOL
REMARK 927      BINDING AFFINITY PREDICTED BY RF-SCORE:    0.00 PKD
ROOT
HETATM    1  N   UNL     1      -9.662   8.753  71.787  1.00  0.00    -0.292 N  
HETATM    2  C   UNL     1     -10.378   9.324  70.777  1.00  0.00    -0.281 C  
HETATM    3  H1  UNL     1      -8.792   8.260  71.583  1.00  0.00     0.000 HD 
HETATM    4  H2  UNL     1      -9.996   8.817  72.748  1.00  0.00     0.000 HD 
HETATM    5  O   UNL     1     -11.425   9.916  71.022  1.00  0.00    -0.334 OA 
ENDROOT
BRANCH   2   6
HETATM    6  C   UNL     1      -9.700   9.318  69.391  1.00  0.00    -0.172 C  
HETATM    7  C   UNL     1      -8.529  10.336  69.379  1.00  0.00    -0.170 C  
HETATM    8  C   UNL     1      -8.136  10.827  67.974  1.00  0.00    -0.114 C  
HETATM    9  C   UNL     1      -9.354  10.957  67.031  1.00  0.00    -0.163 C  
HETATM   10  C   UNL     1     -10.637  10.973  67.848  1.00  0.00    -0.205 C  
HETATM   11  N   UNL     1     -10.667   9.588  68.300  1.00  0.00    -0.218 N  
HETATM   12  C   UNL     1     -10.345   8.856  67.099  1.00  0.00    -0.281 C  
HETATM   13  N   UNL     1      -9.483   9.682  66.339  1.00  0.00    -0.175 N  
HETATM   14  O   UNL     1     -10.820   7.784  66.764  1.00  0.00    -0.254 OA 
BRANCH  13  15
HETATM   15  O   UNL     1      -9.951   9.816  65.003  1.00  0.00    -0.286 OA 
HETATM   16  S   UNL     1      -8.758   9.661  63.888  1.00  0.00    -0.224 S  
HETATM   17  O   UNL     1      -7.669  10.548  64.249  1.00  0.00    -0.085 OA 
HETATM   18  O   UNL     1      -9.373   9.716  62.581  1.00  0.00    -0.258 OA 
HETATM   19  O   UNL     1      -8.255   8.143  64.085  1.00  0.00    -0.150 OA 
ENDBRANCH  13  15
ENDBRANCH   2   6
TORSDOF 2
ENDMDL
MODEL      111
REMARK 921   NORMALIZED FREE ENERGY PREDICTED BY IDOCK:   -3.17 KCAL/MOL
REMARK 922        TOTAL FREE ENERGY PREDICTED BY IDOCK:   -3.91 KCAL/MOL
REMARK 923 INTER-LIGAND FREE ENERGY PREDICTED BY IDOCK:   -3.56 KCAL/MOL
REMARK 924 INTRA-LIGAND FREE ENERGY PREDICTED BY IDOCK:   -0.36 KCAL/MOL
REMARK 927      BINDING AFFINITY PREDICTED BY RF-SCORE:    0.00 PKD
ROOT
HETATM    1  N   UNL     1      -8.580  10.758  69.518  1.00  0.00    -0.383 N  
HETATM    2  C   UNL     1      -9.646   9.914  69.602  1.00  0.00    -0.227 C  
HETATM    3  H1  UNL     1      -7.704  10.439  69.105  1.00  0.00     0.000 HD 
HETATM    4  H2  UNL     1      -8.657  11.713  69.870  1.00  0.00     0.000 HD 
HETATM    5  O   UNL     1     -10.700  10.298  70.100  1.00  0.00    -0.280 OA 
ENDROOT
BRANCH   2   6
HETATM    6  C   UNL     1      -9.481   8.555  68.888  1.00  0.00    -0.147 C  
HETATM    7  C   UNL     1     -10.356   8.530  67.607  1.00  0.00    -0.317 C  
HETATM    8  C   UNL     1     -10.715   7.114  67.119  1.00  0.00    -0.422 C  
HETATM    9  C   UNL     1     -10.925   6.122  68.285  1.00  0.00    -0.308 C  
HETATM   10  C   UNL     1     -11.135   6.889  69.582  1.00  0.00    -0.258 C  
HETATM   11  N   UNL     1      -9.792   7.417  69.785  1.00  0.00    -0.170 N  
HETATM   12  C   UNL     1      -8.958   6.271  69.514  1.00  0.00    -0.134 C  
HETATM   13  N   UNL     1      -9.633   5.498  68.539  1.00  0.00    -0.122 N  
HETATM   14  O   UNL     1      -7.928   5.979  70.099  1.00  0.00    -0.102 OA 
BRANCH  13  15
HETATM   15  O   UNL     1      -9.739   4.141  68.948  1.00  0.00    -0.166 OA 
HETATM   16  S   UNL     1      -9.054   3.096  67.886  1.00  0.00    -0.194 S  
HETATM   17  O   UNL     1      -9.568   3.379  66.561  1.00  0.00    -0.160 OA 
HETATM   18  O   UNL     1      -9.138   1.771  68.460  1.00  0.00    -0.107 OA 
HETATM   19  O   UNL     1      -7.495   3.500  67.916  1.00  0.00    -0.061 OA 
ENDBRANCH  13  15
ENDBRANCH   2   6
TORSDOF 2
ENDMDL
MODEL      112
REMARK 921   NORMALIZED FREE ENERGY PREDICTED BY IDOCK:   -3.16 KCAL/MOL
REMARK 922        TOTAL FREE ENERGY PREDICTED BY IDOCK:   -3.91 KCAL/MOL
REMARK 923 INTER-LIGAND FREE ENERGY PREDICTED BY IDOCK:   -3.52 KCAL/MOL
REMARK 924 INTRA-LIGAND FREE ENERGY PREDICTED BY IDOCK:   -0.39 KCAL/MOL
REMARK 927      BINDING AFFINITY PREDICTED BY RF-SCORE:    0.00 PKD
ROOT
HETATM    1  N   UNL     1      -9.532   9.930  68.254  1.00  0.00    -0.139 N  
HETATM    2  C   UNL     1     -10.349  10.083  69.334  1.00  0.00    -0.227 C  
HETATM    3  H1  UNL     1      -9.044   9.048  68.101  1.00  0.00     0.000 HD 
HETATM    4  H2  UNL     1      -9.409  10.700  67.596  1.00  0.00     0.000 HD 
HETATM    5  O   UNL     1     -10.936  11.145  69.518  1.00  0.00    -0.242 OA 
ENDROOT
BRANCH   2   6
HETATM    6  C   UNL     1     -10.601   8.809  70.167  1.00  0.00    -0.221 C  
HETATM    7  C   UNL     1     -11.641   9.110  71.279  1.00  0.00    -0.401 C  
HETATM    8  C   UNL     1     -11.579   8.145  72.477  1.00  0.00    -0.468 C  
HETATM    9  C   UNL     1     -10.136   7.690  72.795  1.00  0.00    -0.254 C  
HETATM   10  C   UNL     1      -9.142   8.626  72.125  1.00  0.00    -0.231 C  
HETATM   11  N   UNL     1      -9.346   8.257  70.730  1.00  0.00    -0.157 N  
HETATM   12  C   UNL     1      -9.365   6.816  70.785  1.00  0.00    -0.161 C  
HETATM   13  N   UNL     1      -9.911   6.463  72.043  1.00  0.00    -0.157 N  
HETATM   14  O   UNL     1      -8.895   6.060  69.950  1.00  0.00    -0.135 OA 
BRANCH  13  15
HETATM   15  O   UNL     1      -9.073   5.538  72.721  1.00  0.00    -0.134 OA 
HETATM   16  S   UNL     1      -9.832   4.127  73.076  1.00  0.00    -0.138 S  
HETATM   17  O   UNL     1     -11.081   4.430  73.746  1.00  0.00    -0.274 OA 
HETATM   18  O   UNL     1      -8.854   3.242  73.669  1.00  0.00    -0.077 OA 
HETATM   19  O   UNL     1     -10.175   3.512  71.627  1.00  0.00    -0.101 OA 
ENDBRANCH  13  15
ENDBRANCH   2   6
TORSDOF 2
ENDMDL
MODEL      113
REMARK 921   NORMALIZED FREE ENERGY PREDICTED BY IDOCK:   -3.16 KCAL/MOL
REMARK 922        TOTAL FREE ENERGY PREDICTED BY IDOCK:   -3.91 KCAL/MOL
REMARK 923 INTER-LIGAND FREE ENERGY PREDICTED BY IDOCK:   -4.36 KCAL/MOL
REMARK 924 INTRA-LIGAND FREE ENERGY PREDICTED BY IDOCK:    0.45 KCAL/MOL
REMARK 927      BINDING AFFINITY PREDICTED BY RF-SCORE:    0.00 PKD
ROOT
HETATM    1  N   UNL     1      -9.620  11.585  68.953  1.00  0.00    -0.395 N  
HETATM    2  C   UNL     1     -10.281  12.431  68.112  1.00  0.00    -0.225 C  
HETATM    3  H1  UNL     1      -9.084  11.957  69.736  1.00  0.00     0.000 HD 
HETATM    4  H2  UNL     1      -9.662  10.578  68.798  1.00  0.00     0.000 HD 
HETATM    5  O   UNL     1     -10.926  11.983  67.169  1.00  0.00    -0.243 OA 
ENDROOT
BRANCH   2   6
HETATM    6  C   UNL     1     -10.296  13.915  68.533  1.00  0.00    -0.244 C  
HETATM    7  C   UNL     1     -11.613  14.580  68.051  1.00  0.00    -0.364 C  
HETATM    8  C   UNL     1     -11.529  16.111  67.909  1.00  0.00    -0.103 C  
HETATM    9  C   UNL     1     -10.139  16.585  67.430  1.00  0.00    -0.279 C  
HETATM   10  C   UNL     1      -9.374  15.415  66.831  1.00  0.00    -0.236 C  
HETATM   11  N   UNL     1      -9.104  14.644  68.038  1.00  0.00    -0.183 N  
HETATM   12  C   UNL     1      -8.665  15.656  68.968  1.00  0.00    -0.240 C  
HETATM   13  N   UNL     1      -9.351  16.847  68.627  1.00  0.00    -0.261 N  
HETATM   14  O   UNL     1      -7.788  15.528  69.806  1.00  0.00    -0.181 OA 
BRANCH  13  15
HETATM   15  O   UNL     1      -8.447  17.932  68.475  1.00  0.00    -0.296 OA 
HETATM   16  S   UNL     1      -9.200  19.356  68.165  1.00  0.00    -0.348 S  
HETATM   17  O   UNL     1     -10.118  19.162  67.059  1.00  0.00    -0.324 OA 
HETATM   18  O   UNL     1      -8.187  20.387  68.132  1.00  0.00    -0.110 OA 
HETATM   19  O   UNL     1     -10.067  19.619  69.496  1.00  0.00    -0.326 OA 
ENDBRANCH  13  15
ENDBRANCH   2   6
TORSDOF 2
ENDMDL
MODEL      114
REMARK 921   NORMALIZED FREE ENERGY PREDICTED BY IDOCK:   -3.14 KCAL/MOL
REMARK 922        TOTAL FREE ENERGY PREDICTED BY IDOCK:   -3.88 KCAL/MOL
REMARK 923 INTER-LIGAND FREE ENERGY PREDICTED BY IDOCK:   -3.76 KCAL/MOL
REMARK 924 INTRA-LIGAND FREE ENERGY PREDICTED BY IDOCK:   -0.11 KCAL/MOL
REMARK 927      BINDING AFFINITY PREDICTED BY RF-SCORE:    0.00 PKD
ROOT
HETATM    1  N   UNL     1      -8.557  19.499  68.089  1.00  0.00    -0.321 N  
HETATM    2  C   UNL     1      -8.573  18.880  66.875  1.00  0.00    -0.291 C  
HETATM    3  H1  UNL     1      -8.803  18.981  68.932  1.00  0.00     0.000 HD 
HETATM    4  H2  UNL     1      -8.298  20.483  68.155  1.00  0.00     0.000 HD 
HETATM    5  O   UNL     1      -8.276  19.504  65.860  1.00  0.00    -0.411 OA 
ENDROOT
BRANCH   2   6
HETATM    6  C   UNL     1      -8.808  17.355  66.905  1.00  0.00    -0.242 C  
HETATM    7  C   UNL     1     -10.326  17.064  67.043  1.00  0.00    -0.304 C  
HETATM    8  C   UNL     1     -10.650  15.675  67.623  1.00  0.00    -0.294 C  
HETATM    9  C   UNL     1      -9.621  15.222  68.683  1.00  0.00    -0.206 C  
HETATM   10  C   UNL     1      -8.820  16.421  69.168  1.00  0.00    -0.186 C  
HETATM   11  N   UNL     1      -8.026  16.695  67.978  1.00  0.00    -0.168 N  
HETATM   12  C   UNL     1      -7.577  15.380  67.588  1.00  0.00    -0.167 C  
HETATM   13  N   UNL     1      -8.593  14.472  67.973  1.00  0.00    -0.154 N  
HETATM   14  O   UNL     1      -6.483  15.105  67.123  1.00  0.00    -0.291 OA 
BRANCH  13  15
HETATM   15  O   UNL     1      -8.057  13.399  68.735  1.00  0.00    -0.081 OA 
HETATM   16  S   UNL     1      -8.655  11.937  68.292  1.00  0.00    -0.151 S  
HETATM   17  O   UNL     1     -10.103  12.016  68.275  1.00  0.00    -0.192 OA 
HETATM   18  O   UNL     1      -7.964  10.930  69.065  1.00  0.00    -0.136 OA 
HETATM   19  O   UNL     1      -8.144  11.768  66.774  1.00  0.00    -0.166 OA 
ENDBRANCH  13  15
ENDBRANCH   2   6
TORSDOF 2
ENDMDL
MODEL      115
REMARK 921   NORMALIZED FREE ENERGY PREDICTED BY IDOCK:   -3.11 KCAL/MOL
REMARK 922        TOTAL FREE ENERGY PREDICTED BY IDOCK:   -3.84 KCAL/MOL
REMARK 923 INTER-LIGAND FREE ENERGY PREDICTED BY IDOCK:   -3.45 KCAL/MOL
REMARK 924 INTRA-LIGAND FREE ENERGY PREDICTED BY IDOCK:   -0.39 KCAL/MOL
REMARK 927      BINDING AFFINITY PREDICTED BY RF-SCORE:    0.00 PKD
ROOT
HETATM    1  N   UNL     1      -5.558   8.120  68.613  1.00  0.00    -0.035 N  
HETATM    2  C   UNL     1      -6.356   7.710  67.587  1.00  0.00    -0.050 C  
HETATM    3  H1  UNL     1      -5.791   8.962  69.139  1.00  0.00     0.000 HD 
HETATM    4  H2  UNL     1      -4.726   7.583  68.857  1.00  0.00     0.000 HD 
HETATM    5  O   UNL     1      -6.075   6.696  66.954  1.00  0.00    -0.032 OA 
ENDROOT
BRANCH   2   6
HETATM    6  C   UNL     1      -7.675   8.491  67.413  1.00  0.00    -0.098 C  
HETATM    7  C   UNL     1      -8.053   8.549  65.909  1.00  0.00    -0.116 C  
HETATM    8  C   UNL     1      -8.993   9.711  65.541  1.00  0.00    -0.223 C  
HETATM    9  C   UNL     1      -8.714  10.983  66.373  1.00  0.00    -0.173 C  
HETATM   10  C   UNL     1      -7.341  10.885  67.020  1.00  0.00    -0.118 C  
HETATM   11  N   UNL     1      -7.600   9.847  68.009  1.00  0.00    -0.085 N  
HETATM   12  C   UNL     1      -8.861  10.258  68.576  1.00  0.00    -0.127 C  
HETATM   13  N   UNL     1      -9.577  10.912  67.544  1.00  0.00    -0.155 N  
HETATM   14  O   UNL     1      -9.188  10.158  69.747  1.00  0.00    -0.208 OA 
BRANCH  13  15
HETATM   15  O   UNL     1     -10.043  12.184  67.974  1.00  0.00    -0.192 OA 
HETATM   16  S   UNL     1     -11.660  12.375  67.776  1.00  0.00    -0.354 S  
HETATM   17  O   UNL     1     -12.004  12.023  66.412  1.00  0.00    -0.611 OA 
HETATM   18  O   UNL     1     -12.021  13.657  68.337  1.00  0.00    -0.355 OA 
HETATM   19  O   UNL     1     -12.291  11.262  68.756  1.00  0.00    -0.518 OA 
ENDBRANCH  13  15
ENDBRANCH   2   6
TORSDOF 2
ENDMDL
MODEL      116
REMARK 921   NORMALIZED FREE ENERGY PREDICTED BY IDOCK:   -3.08 KCAL/MOL
REMARK 922        TOTAL FREE ENERGY PREDICTED BY IDOCK:   -3.81 KCAL/MOL
REMARK 923 INTER-LIGAND FREE ENERGY PREDICTED BY IDOCK:   -3.43 KCAL/MOL
REMARK 924 INTRA-LIGAND FREE ENERGY PREDICTED BY IDOCK:   -0.38 KCAL/MOL
REMARK 927      BINDING AFFINITY PREDICTED BY RF-SCORE:    0.00 PKD
ROOT
HETATM    1  N   UNL     1     -11.427  14.003  64.861  1.00  0.00    -0.342 N  
HETATM    2  C   UNL     1     -11.450  12.651  64.694  1.00  0.00    -0.330 C  
HETATM    3  H1  UNL     1     -10.709  14.436  65.440  1.00  0.00     0.000 HD 
HETATM    4  H2  UNL     1     -12.131  14.584  64.405  1.00  0.00     0.000 HD 
HETATM    5  O   UNL     1     -12.316  12.130  63.996  1.00  0.00    -0.442 OA 
ENDROOT
BRANCH   2   6
HETATM    6  C   UNL     1     -10.247  11.884  65.281  1.00  0.00    -0.272 C  
HETATM    7  C   UNL     1     -10.046  10.556  64.505  1.00  0.00    -0.402 C  
HETATM    8  C   UNL     1      -9.279   9.477  65.292  1.00  0.00    -0.307 C  
HETATM    9  C   UNL     1      -9.594   9.512  66.805  1.00  0.00    -0.176 C  
HETATM   10  C   UNL     1     -10.870  10.305  67.046  1.00  0.00    -0.181 C  
HETATM   11  N   UNL     1     -10.396  11.648  66.737  1.00  0.00    -0.217 N  
HETATM   12  C   UNL     1      -9.130  11.703  67.427  1.00  0.00    -0.169 C  
HETATM   13  N   UNL     1      -8.605  10.388  67.417  1.00  0.00    -0.125 N  
HETATM   14  O   UNL     1      -8.668  12.675  68.001  1.00  0.00    -0.175 OA 
BRANCH  13  15
HETATM   15  O   UNL     1      -8.230   9.979  68.725  1.00  0.00    -0.104 OA 
HETATM   16  S   UNL     1      -6.642   9.584  68.843  1.00  0.00    -0.047 S  
HETATM   17  O   UNL     1      -6.321   8.642  67.788  1.00  0.00    -0.055 OA 
HETATM   18  O   UNL     1      -6.367   9.285  70.230  1.00  0.00    -0.042 OA 
HETATM   19  O   UNL     1      -5.887  10.971  68.523  1.00  0.00    -0.043 OA 
ENDBRANCH  13  15
ENDBRANCH   2   6
TORSDOF 2
ENDMDL
MODEL      117
REMARK 921   NORMALIZED FREE ENERGY PREDICTED BY IDOCK:   -3.07 KCAL/MOL
REMARK 922        TOTAL FREE ENERGY PREDICTED BY IDOCK:   -3.81 KCAL/MOL
REMARK 923 INTER-LIGAND FREE ENERGY PREDICTED BY IDOCK:   -3.48 KCAL/MOL
REMARK 924 INTRA-LIGAND FREE ENERGY PREDICTED BY IDOCK:   -0.33 KCAL/MOL
REMARK 927      BINDING AFFINITY PREDICTED BY RF-SCORE:    0.00 PKD
ROOT
HETATM    1  N   UNL     1      -6.497  18.153  68.018  1.00  0.00    -0.187 N  
HETATM    2  C   UNL     1      -7.704  17.839  67.467  1.00  0.00    -0.206 C  
HETATM    3  H1  UNL     1      -6.251  17.805  68.945  1.00  0.00     0.000 HD 
HETATM    4  H2  UNL     1      -5.839  18.737  67.503  1.00  0.00     0.000 HD 
HETATM    5  O   UNL     1      -8.001  18.258  66.352  1.00  0.00    -0.254 OA 
ENDROOT
BRANCH   2   6
HETATM    6  C   UNL     1      -8.550  16.813  68.251  1.00  0.00    -0.226 C  
HETATM    7  C   UNL     1      -8.368  15.403  67.628  1.00  0.00    -0.174 C  
HETATM    8  C   UNL     1      -9.521  14.428  67.931  1.00  0.00    -0.214 C  
HETATM    9  C   UNL     1     -10.893  15.136  67.989  1.00  0.00    -0.284 C  
HETATM   10  C   UNL     1     -10.796  16.503  67.328  1.00  0.00    -0.173 C  
HETATM   11  N   UNL     1      -9.979  17.202  68.310  1.00  0.00    -0.283 N  
HETATM   12  C   UNL     1     -10.591  16.822  69.560  1.00  0.00    -0.283 C  
HETATM   13  N   UNL     1     -11.107  15.516  69.379  1.00  0.00    -0.269 N  
HETATM   14  O   UNL     1     -10.731  17.538  70.537  1.00  0.00     0.624 OA 
BRANCH  13  15
HETATM   15  O   UNL     1     -12.471  15.447  69.774  1.00  0.00    -0.291 OA 
HETATM   16  S   UNL     1     -12.773  14.223  70.823  1.00  0.00    -0.344 S  
HETATM   17  O   UNL     1     -12.230  12.997  70.272  1.00  0.00    -0.339 OA 
HETATM   18  O   UNL     1     -14.159  14.322  71.222  1.00  0.00    -0.299 OA 
HETATM   19  O   UNL     1     -11.903  14.619  72.120  1.00  0.00    -0.277 OA 
ENDBRANCH  13  15
ENDBRANCH   2   6
TORSDOF 2
ENDMDL
MODEL      118
REMARK 921   NORMALIZED FREE ENERGY PREDICTED BY IDOCK:   -3.02 KCAL/MOL
REMARK 922        TOTAL FREE ENERGY PREDICTED BY IDOCK:   -3.75 KCAL/MOL
REMARK 923 INTER-LIGAND FREE ENERGY PREDICTED BY IDOCK:   -3.49 KCAL/MOL
REMARK 924 INTRA-LIGAND FREE ENERGY PREDICTED BY IDOCK:   -0.26 KCAL/MOL
REMARK 927      BINDING AFFINITY PREDICTED BY RF-SCORE:    0.00 PKD
ROOT
HETATM    1  N   UNL     1     -11.687   6.942  72.992  1.00  0.00    -0.481 N  
HETATM    2  C   UNL     1     -10.388   7.269  72.745  1.00  0.00    -0.240 C  
HETATM    3  H1  UNL     1     -12.275   6.577  72.243  1.00  0.00     0.000 HD 
HETATM    4  H2  UNL     1     -12.073   7.062  73.929  1.00  0.00     0.000 HD 
HETATM    5  O   UNL     1      -9.680   7.708  73.647  1.00  0.00    -0.287 OA 
ENDROOT
BRANCH   2   6
HETATM    6  C   UNL     1      -9.856   6.888  71.347  1.00  0.00    -0.178 C  
HETATM    7  C   UNL     1      -9.602   8.176  70.518  1.00  0.00    -0.177 C  
HETATM    8  C   UNL     1      -9.607   7.953  68.995  1.00  0.00    -0.155 C  
HETATM    9  C   UNL     1     -10.624   6.875  68.558  1.00  0.00    -0.212 C  
HETATM   10  C   UNL     1     -11.626   6.630  69.675  1.00  0.00    -0.243 C  
HETATM   11  N   UNL     1     -10.769   5.957  70.642  1.00  0.00    -0.269 N  
HETATM   12  C   UNL     1     -10.050   5.012  69.823  1.00  0.00    -0.267 C  
HETATM   13  N   UNL     1      -9.908   5.607  68.545  1.00  0.00    -0.135 N  
HETATM   14  O   UNL     1      -9.732   3.880  70.145  1.00  0.00    -0.196 OA 
BRANCH  13  15
HETATM   15  O   UNL     1     -10.349   4.726  67.521  1.00  0.00    -0.106 OA 
HETATM   16  S   UNL     1      -9.209   4.459  66.372  1.00  0.00    -0.154 S  
HETATM   17  O   UNL     1      -8.709   5.738  65.909  1.00  0.00    -0.141 OA 
HETATM   18  O   UNL     1      -9.739   3.478  65.451  1.00  0.00    -0.161 OA 
HETATM   19  O   UNL     1      -8.027   3.722  67.182  1.00  0.00    -0.090 OA 
ENDBRANCH  13  15
ENDBRANCH   2   6
TORSDOF 2
ENDMDL
MODEL      119
REMARK 921   NORMALIZED FREE ENERGY PREDICTED BY IDOCK:   -2.98 KCAL/MOL
REMARK 922        TOTAL FREE ENERGY PREDICTED BY IDOCK:   -3.70 KCAL/MOL
REMARK 923 INTER-LIGAND FREE ENERGY PREDICTED BY IDOCK:   -3.34 KCAL/MOL
REMARK 924 INTRA-LIGAND FREE ENERGY PREDICTED BY IDOCK:   -0.36 KCAL/MOL
REMARK 927      BINDING AFFINITY PREDICTED BY RF-SCORE:    0.00 PKD
ROOT
HETATM    1  N   UNL     1      -9.988   3.471  66.190  1.00  0.00    -0.407 N  
HETATM    2  C   UNL     1      -9.572   3.613  67.480  1.00  0.00    -0.144 C  
HETATM    3  H1  UNL     1     -10.239   4.291  65.639  1.00  0.00     0.000 HD 
HETATM    4  H2  UNL     1     -10.049   2.541  65.774  1.00  0.00     0.000 HD 
HETATM    5  O   UNL     1      -9.271   2.625  68.144  1.00  0.00    -0.167 OA 
ENDROOT
BRANCH   2   6
HETATM    6  C   UNL     1      -9.350   5.064  67.955  1.00  0.00    -0.124 C  
HETATM    7  C   UNL     1      -8.594   5.060  69.310  1.00  0.00    -0.096 C  
HETATM    8  C   UNL     1      -8.787   6.341  70.142  1.00  0.00    -0.149 C  
HETATM    9  C   UNL     1     -10.202   6.941  69.985  1.00  0.00    -0.196 C  
HETATM   10  C   UNL     1     -11.142   5.896  69.401  1.00  0.00    -0.299 C  
HETATM   11  N   UNL     1     -10.622   5.820  68.042  1.00  0.00    -0.233 N  
HETATM   12  C   UNL     1     -10.451   7.209  67.691  1.00  0.00    -0.239 C  
HETATM   13  N   UNL     1     -10.133   7.895  68.888  1.00  0.00    -0.192 N  
HETATM   14  O   UNL     1     -10.656   7.702  66.594  1.00  0.00    -0.274 OA 
BRANCH  13  15
HETATM   15  O   UNL     1     -10.980   9.021  69.071  1.00  0.00    -0.120 OA 
HETATM   16  S   UNL     1     -10.160  10.442  69.103  1.00  0.00    -0.231 S  
HETATM   17  O   UNL     1      -9.074  10.327  70.058  1.00  0.00    -0.088 OA 
HETATM   18  O   UNL     1     -11.134  11.506  69.193  1.00  0.00    -0.233 OA 
HETATM   19  O   UNL     1      -9.522  10.539  67.627  1.00  0.00    -0.148 OA 
ENDBRANCH  13  15
ENDBRANCH   2   6
TORSDOF 2
ENDMDL
MODEL      120
REMARK 921   NORMALIZED FREE ENERGY PREDICTED BY IDOCK:   -2.96 KCAL/MOL
REMARK 922        TOTAL FREE ENERGY PREDICTED BY IDOCK:   -3.68 KCAL/MOL
REMARK 923 INTER-LIGAND FREE ENERGY PREDICTED BY IDOCK:   -3.37 KCAL/MOL
REMARK 924 INTRA-LIGAND FREE ENERGY PREDICTED BY IDOCK:   -0.32 KCAL/MOL
REMARK 927      BINDING AFFINITY PREDICTED BY RF-SCORE:    0.00 PKD
ROOT
HETATM    1  N   UNL     1      -6.618   5.768  66.206  1.00  0.00    -0.050 N  
HETATM    2  C   UNL     1      -7.737   4.995  66.111  1.00  0.00    -0.091 C  
HETATM    3  H1  UNL     1      -6.576   6.526  66.887  1.00  0.00     0.000 HD 
HETATM    4  H2  UNL     1      -5.822   5.588  65.594  1.00  0.00     0.000 HD 
HETATM    5  O   UNL     1      -7.789   4.083  65.291  1.00  0.00    -0.087 OA 
ENDROOT
BRANCH   2   6
HETATM    6  C   UNL     1      -8.810   5.237  67.193  1.00  0.00    -0.109 C  
HETATM    7  C   UNL     1     -10.163   5.587  66.517  1.00  0.00    -0.273 C  
HETATM    8  C   UNL     1     -11.136   6.365  67.422  1.00  0.00    -0.412 C  
HETATM    9  C   UNL     1     -10.407   7.343  68.371  1.00  0.00    -0.194 C  
HETATM   10  C   UNL     1      -8.989   7.582  67.874  1.00  0.00    -0.131 C  
HETATM   11  N   UNL     1      -8.398   6.282  68.160  1.00  0.00    -0.115 N  
HETATM   12  C   UNL     1      -8.875   6.003  69.493  1.00  0.00    -0.125 C  
HETATM   13  N   UNL     1     -10.148   6.612  69.604  1.00  0.00    -0.178 N  
HETATM   14  O   UNL     1      -8.246   5.449  70.379  1.00  0.00    -0.101 OA 
BRANCH  13  15
HETATM   15  O   UNL     1     -10.223   7.430  70.764  1.00  0.00    -0.197 OA 
HETATM   16  S   UNL     1     -11.474   7.032  71.748  1.00  0.00    -0.281 S  
HETATM   17  O   UNL     1     -12.687   6.978  70.956  1.00  0.00    -0.367 OA 
HETATM   18  O   UNL     1     -11.382   7.862  72.929  1.00  0.00    -0.406 OA 
HETATM   19  O   UNL     1     -11.117   5.535  72.222  1.00  0.00    -0.250 OA 
ENDBRANCH  13  15
ENDBRANCH   2   6
TORSDOF 2
ENDMDL
MODEL      121
REMARK 921   NORMALIZED FREE ENERGY PREDICTED BY IDOCK:   -2.92 KCAL/MOL
REMARK 922        TOTAL FREE ENERGY PREDICTED BY IDOCK:   -3.64 KCAL/MOL
REMARK 923 INTER-LIGAND FREE ENERGY PREDICTED BY IDOCK:   -3.25 KCAL/MOL
REMARK 924 INTRA-LIGAND FREE ENERGY PREDICTED BY IDOCK:   -0.39 KCAL/MOL
REMARK 927      BINDING AFFINITY PREDICTED BY RF-SCORE:    0.00 PKD
ROOT
HETATM    1  N   UNL     1     -10.991   8.001  72.770  1.00  0.00    -0.386 N  
HETATM    2  C   UNL     1     -11.076   7.152  71.707  1.00  0.00    -0.236 C  
HETATM    3  H1  UNL     1     -10.326   8.774  72.757  1.00  0.00     0.000 HD 
HETATM    4  H2  UNL     1     -11.593   7.863  73.581  1.00  0.00     0.000 HD 
HETATM    5  O   UNL     1     -11.876   6.221  71.724  1.00  0.00    -0.316 OA 
ENDROOT
BRANCH   2   6
HETATM    6  C   UNL     1     -10.248   7.549  70.467  1.00  0.00    -0.201 C  
HETATM    7  C   UNL     1      -9.192   8.614  70.864  1.00  0.00    -0.234 C  
HETATM    8  C   UNL     1      -8.694   9.475  69.688  1.00  0.00    -0.189 C  
HETATM    9  C   UNL     1      -9.804   9.757  68.650  1.00  0.00    -0.157 C  
HETATM   10  C   UNL     1     -11.167   9.474  69.264  1.00  0.00    -0.000 C  
HETATM   11  N   UNL     1     -11.107   8.021  69.355  1.00  0.00     0.000 N  
HETATM   12  C   UNL     1     -10.579   7.645  68.066  1.00  0.00    -0.151 C  
HETATM   13  N   UNL     1      -9.724   8.696  67.655  1.00  0.00    -0.152 N  
HETATM   14  O   UNL     1     -10.902   6.664  67.417  1.00  0.00    -0.286 OA 
BRANCH  13  15
HETATM   15  O   UNL     1     -10.048   9.134  66.343  1.00  0.00    -0.283 OA 
HETATM   16  S   UNL     1      -8.752   9.161  65.337  1.00  0.00    -0.196 S  
HETATM   17  O   UNL     1      -7.681   9.894  65.983  1.00  0.00    -0.102 OA 
HETATM   18  O   UNL     1      -9.228   9.524  64.021  1.00  0.00    -0.219 OA 
HETATM   19  O   UNL     1      -8.317   7.613  65.247  1.00  0.00    -0.139 OA 
ENDBRANCH  13  15
ENDBRANCH   2   6
TORSDOF 2
ENDMDL
MODEL      122
REMARK 921   NORMALIZED FREE ENERGY PREDICTED BY IDOCK:   -2.92 KCAL/MOL
REMARK 922        TOTAL FREE ENERGY PREDICTED BY IDOCK:   -3.63 KCAL/MOL
REMARK 923 INTER-LIGAND FREE ENERGY PREDICTED BY IDOCK:   -3.35 KCAL/MOL
REMARK 924 INTRA-LIGAND FREE ENERGY PREDICTED BY IDOCK:   -0.28 KCAL/MOL
REMARK 927      BINDING AFFINITY PREDICTED BY RF-SCORE:    0.00 PKD
ROOT
HETATM    1  N   UNL     1      -9.374  10.251  69.940  1.00  0.00    -0.408 N  
HETATM    2  C   UNL     1     -10.508   9.506  70.069  1.00  0.00    -0.247 C  
HETATM    3  H1  UNL     1      -8.547   9.853  69.496  1.00  0.00     0.000 HD 
HETATM    4  H2  UNL     1      -9.353  11.209  70.289  1.00  0.00     0.000 HD 
HETATM    5  O   UNL     1     -11.504   9.985  70.604  1.00  0.00    -0.293 OA 
ENDROOT
BRANCH   2   6
HETATM    6  C   UNL     1     -10.493   8.137  69.357  1.00  0.00    -0.220 C  
HETATM    7  C   UNL     1     -10.843   7.017  70.373  1.00  0.00    -0.283 C  
HETATM    8  C   UNL     1     -10.342   5.619  69.965  1.00  0.00    -0.345 C  
HETATM    9  C   UNL     1      -8.988   5.669  69.223  1.00  0.00    -0.113 C  
HETATM   10  C   UNL     1      -8.319   7.014  69.462  1.00  0.00    -0.133 C  
HETATM   11  N   UNL     1      -9.198   7.876  68.683  1.00  0.00    -0.143 N  
HETATM   12  C   UNL     1      -9.366   7.133  67.458  1.00  0.00    -0.124 C  
HETATM   13  N   UNL     1      -9.295   5.761  67.802  1.00  0.00    -0.105 N  
HETATM   14  O   UNL     1      -9.440   7.606  66.337  1.00  0.00    -0.190 OA 
BRANCH  13  15
HETATM   15  O   UNL     1      -8.356   5.078  66.982  1.00  0.00    -0.107 OA 
HETATM   16  S   UNL     1      -8.957   3.695  66.337  1.00  0.00    -0.155 S  
HETATM   17  O   UNL     1      -9.534   2.900  67.403  1.00  0.00    -0.189 OA 
HETATM   18  O   UNL     1      -7.950   3.152  65.453  1.00  0.00    -0.084 OA 
HETATM   19  O   UNL     1     -10.155   4.211  65.392  1.00  0.00    -0.212 OA 
ENDBRANCH  13  15
ENDBRANCH   2   6
TORSDOF 2
ENDMDL
MODEL      123
REMARK 921   NORMALIZED FREE ENERGY PREDICTED BY IDOCK:   -2.90 KCAL/MOL
REMARK 922        TOTAL FREE ENERGY PREDICTED BY IDOCK:   -3.61 KCAL/MOL
REMARK 923 INTER-LIGAND FREE ENERGY PREDICTED BY IDOCK:   -3.52 KCAL/MOL
REMARK 924 INTRA-LIGAND FREE ENERGY PREDICTED BY IDOCK:   -0.09 KCAL/MOL
REMARK 927      BINDING AFFINITY PREDICTED BY RF-SCORE:    0.00 PKD
ROOT
HETATM    1  N   UNL     1      -7.435   2.993  70.023  1.00  0.00    -0.044 N  
HETATM    2  C   UNL     1      -7.517   4.104  69.238  1.00  0.00    -0.054 C  
HETATM    3  H1  UNL     1      -7.852   2.991  70.954  1.00  0.00     0.000 HD 
HETATM    4  H2  UNL     1      -6.956   2.161  69.679  1.00  0.00     0.000 HD 
HETATM    5  O   UNL     1      -7.016   4.106  68.118  1.00  0.00    -0.050 OA 
ENDROOT
BRANCH   2   6
HETATM    6  C   UNL     1      -8.407   5.241  69.780  1.00  0.00    -0.098 C  
HETATM    7  C   UNL     1      -7.851   5.735  71.143  1.00  0.00    -0.111 C  
HETATM    8  C   UNL     1      -8.893   6.441  72.029  1.00  0.00    -0.134 C  
HETATM    9  C   UNL     1     -10.304   5.828  71.885  1.00  0.00    -0.214 C  
HETATM   10  C   UNL     1     -10.205   4.452  71.244  1.00  0.00    -0.067 C  
HETATM   11  N   UNL     1      -9.828   4.831  69.888  1.00  0.00    -0.205 N  
HETATM   12  C   UNL     1     -10.729   5.921  69.602  1.00  0.00    -0.345 C  
HETATM   13  N   UNL     1     -10.978   6.576  70.832  1.00  0.00    -0.259 N  
HETATM   14  O   UNL     1     -11.256   6.152  68.527  1.00  0.00    -0.341 OA 
BRANCH  13  15
HETATM   15  O   UNL     1     -12.374   6.724  71.058  1.00  0.00    -0.378 OA 
HETATM   16  S   UNL     1     -12.759   8.149  71.774  1.00  0.00    -0.337 S  
HETATM   17  O   UNL     1     -11.926   8.316  72.949  1.00  0.00    -0.316 OA 
HETATM   18  O   UNL     1     -14.200   8.221  71.856  1.00  0.00    -0.410 OA 
HETATM   19  O   UNL     1     -12.315   9.249  70.684  1.00  0.00    -0.158 OA 
ENDBRANCH  13  15
ENDBRANCH   2   6
TORSDOF 2
ENDMDL
MODEL      124
REMARK 921   NORMALIZED FREE ENERGY PREDICTED BY IDOCK:   -2.88 KCAL/MOL
REMARK 922        TOTAL FREE ENERGY PREDICTED BY IDOCK:   -3.59 KCAL/MOL
REMARK 923 INTER-LIGAND FREE ENERGY PREDICTED BY IDOCK:   -3.21 KCAL/MOL
REMARK 924 INTRA-LIGAND FREE ENERGY PREDICTED BY IDOCK:   -0.39 KCAL/MOL
REMARK 927      BINDING AFFINITY PREDICTED BY RF-SCORE:    0.00 PKD
ROOT
HETATM    1  N   UNL     1     -12.181   8.306  70.537  1.00  0.00    -0.469 N  
HETATM    2  C   UNL     1     -10.821   8.311  70.622  1.00  0.00    -0.236 C  
HETATM    3  H1  UNL     1     -12.647   8.765  69.755  1.00  0.00     0.000 HD 
HETATM    4  H2  UNL     1     -12.734   7.842  71.257  1.00  0.00     0.000 HD 
HETATM    5  O   UNL     1     -10.259   7.759  71.563  1.00  0.00    -0.181 OA 
ENDROOT
BRANCH   2   6
HETATM    6  C   UNL     1     -10.077   8.886  69.398  1.00  0.00    -0.202 C  
HETATM    7  C   UNL     1     -10.954   9.969  68.716  1.00  0.00    -0.242 C  
HETATM    8  C   UNL     1     -10.607  10.220  67.237  1.00  0.00    -0.324 C  
HETATM    9  C   UNL     1     -10.167   8.931  66.506  1.00  0.00    -0.249 C  
HETATM   10  C   UNL     1     -10.592   7.712  67.311  1.00  0.00    -0.318 C  
HETATM   11  N   UNL     1      -9.680   7.825  68.442  1.00  0.00    -0.156 N  
HETATM   12  C   UNL     1      -8.419   8.116  67.803  1.00  0.00    -0.132 C  
HETATM   13  N   UNL     1      -8.718   8.854  66.632  1.00  0.00    -0.125 N  
HETATM   14  O   UNL     1      -7.326   7.705  68.152  1.00  0.00    -0.093 OA 
BRANCH  13  15
HETATM   15  O   UNL     1      -8.088   8.282  65.494  1.00  0.00    -0.112 OA 
HETATM   16  S   UNL     1      -7.180   9.361  64.655  1.00  0.00    -0.109 S  
HETATM   17  O   UNL     1      -7.987  10.534  64.385  1.00  0.00    -0.121 OA 
HETATM   18  O   UNL     1      -6.518   8.640  63.590  1.00  0.00    -0.083 OA 
HETATM   19  O   UNL     1      -6.028   9.774  65.702  1.00  0.00    -0.058 OA 
ENDBRANCH  13  15
ENDBRANCH   2   6
TORSDOF 2
ENDMDL
MODEL      125
REMARK 921   NORMALIZED FREE ENERGY PREDICTED BY IDOCK:   -2.87 KCAL/MOL
REMARK 922        TOTAL FREE ENERGY PREDICTED BY IDOCK:   -3.58 KCAL/MOL
REMARK 923 INTER-LIGAND FREE ENERGY PREDICTED BY IDOCK:   -3.22 KCAL/MOL
REMARK 924 INTRA-LIGAND FREE ENERGY PREDICTED BY IDOCK:   -0.37 KCAL/MOL
REMARK 927      BINDING AFFINITY PREDICTED BY RF-SCORE:    0.00 PKD
ROOT
HETATM    1  N   UNL     1      -9.415   8.978  70.585  1.00  0.00    -0.215 N  
HETATM    2  C   UNL     1      -8.443   9.727  69.990  1.00  0.00    -0.206 C  
HETATM    3  H1  UNL     1     -10.377   9.029  70.250  1.00  0.00     0.000 HD 
HETATM    4  H2  UNL     1      -9.179   8.366  71.366  1.00  0.00     0.000 HD 
HETATM    5  O   UNL     1      -7.284   9.666  70.393  1.00  0.00    -0.113 OA 
ENDROOT
BRANCH   2   6
HETATM    6  C   UNL     1      -8.868  10.483  68.714  1.00  0.00    -0.158 C  
HETATM    7  C   UNL     1      -8.000  10.012  67.516  1.00  0.00    -0.106 C  
HETATM    8  C   UNL     1      -7.926  11.024  66.358  1.00  0.00    -0.161 C  
HETATM    9  C   UNL     1      -7.932  12.488  66.850  1.00  0.00    -0.008 C  
HETATM   10  C   UNL     1      -7.588  12.535  68.331  1.00  0.00    -0.129 C  
HETATM   11  N   UNL     1      -8.800  11.953  68.892  1.00  0.00     0.079 N  
HETATM   12  C   UNL     1      -9.843  12.634  68.164  1.00  0.00    -0.226 C  
HETATM   13  N   UNL     1      -9.325  12.914  66.877  1.00  0.00    -0.234 N  
HETATM   14  O   UNL     1     -10.917  12.994  68.618  1.00  0.00    -0.247 OA 
BRANCH  13  15
HETATM   15  O   UNL     1      -9.497  14.285  66.545  1.00  0.00    -0.272 OA 
HETATM   16  S   UNL     1     -10.383  14.508  65.183  1.00  0.00    -0.395 S  
HETATM   17  O   UNL     1      -9.824  13.686  64.127  1.00  0.00     0.004 OA 
HETATM   18  O   UNL     1     -10.569  15.932  65.011  1.00  0.00    -0.497 OA 
HETATM   19  O   UNL     1     -11.827  13.910  65.573  1.00  0.00    -0.335 OA 
ENDBRANCH  13  15
ENDBRANCH   2   6
TORSDOF 2
ENDMDL
MODEL      126
REMARK 921   NORMALIZED FREE ENERGY PREDICTED BY IDOCK:   -2.87 KCAL/MOL
REMARK 922        TOTAL FREE ENERGY PREDICTED BY IDOCK:   -3.58 KCAL/MOL
REMARK 923 INTER-LIGAND FREE ENERGY PREDICTED BY IDOCK:   -3.25 KCAL/MOL
REMARK 924 INTRA-LIGAND FREE ENERGY PREDICTED BY IDOCK:   -0.33 KCAL/MOL
REMARK 927      BINDING AFFINITY PREDICTED BY RF-SCORE:    0.00 PKD
ROOT
HETATM    1  N   UNL     1     -10.403   2.440  72.790  1.00  0.00    -0.153 N  
HETATM    2  C   UNL     1     -10.340   3.798  72.885  1.00  0.00    -0.165 C  
HETATM    3  H1  UNL     1     -10.328   1.986  71.880  1.00  0.00     0.000 HD 
HETATM    4  H2  UNL     1     -10.525   1.876  73.631  1.00  0.00     0.000 HD 
HETATM    5  O   UNL     1     -10.430   4.345  73.981  1.00  0.00    -0.197 OA 
ENDROOT
BRANCH   2   6
HETATM    6  C   UNL     1      -9.982   4.544  71.583  1.00  0.00    -0.196 C  
HETATM    7  C   UNL     1      -8.449   4.474  71.346  1.00  0.00    -0.112 C  
HETATM    8  C   UNL     1      -7.902   5.589  70.437  1.00  0.00    -0.101 C  
HETATM    9  C   UNL     1      -8.648   6.928  70.629  1.00  0.00    -0.141 C  
HETATM   10  C   UNL     1      -9.425   6.902  71.937  1.00  0.00    -0.141 C  
HETATM   11  N   UNL     1     -10.468   5.945  71.594  1.00  0.00    -0.225 N  
HETATM   12  C   UNL     1     -10.881   6.384  70.283  1.00  0.00    -0.293 C  
HETATM   13  N   UNL     1      -9.737   6.941  69.662  1.00  0.00    -0.156 N  
HETATM   14  O   UNL     1     -12.021   6.375  69.850  1.00  0.00    -0.304 OA 
BRANCH  13  15
HETATM   15  O   UNL     1     -10.015   8.238  69.150  1.00  0.00    -0.185 OA 
HETATM   16  S   UNL     1      -9.788   8.349  67.529  1.00  0.00    -0.197 S  
HETATM   17  O   UNL     1      -8.471   7.833  67.211  1.00  0.00    -0.116 OA 
HETATM   18  O   UNL     1     -10.197   9.675  67.122  1.00  0.00    -0.212 OA 
HETATM   19  O   UNL     1     -10.884   7.335  66.926  1.00  0.00    -0.355 OA 
ENDBRANCH  13  15
ENDBRANCH   2   6
TORSDOF 2
ENDMDL
MODEL      127
REMARK 921   NORMALIZED FREE ENERGY PREDICTED BY IDOCK:   -2.87 KCAL/MOL
REMARK 922        TOTAL FREE ENERGY PREDICTED BY IDOCK:   -3.58 KCAL/MOL
REMARK 923 INTER-LIGAND FREE ENERGY PREDICTED BY IDOCK:   -3.31 KCAL/MOL
REMARK 924 INTRA-LIGAND FREE ENERGY PREDICTED BY IDOCK:   -0.27 KCAL/MOL
REMARK 927      BINDING AFFINITY PREDICTED BY RF-SCORE:    0.00 PKD
ROOT
HETATM    1  N   UNL     1      -7.555   7.039  66.505  1.00  0.00    -0.087 N  
HETATM    2  C   UNL     1      -7.215   7.890  67.514  1.00  0.00    -0.088 C  
HETATM    3  H1  UNL     1      -8.444   7.152  66.017  1.00  0.00     0.000 HD 
HETATM    4  H2  UNL     1      -6.920   6.287  66.237  1.00  0.00     0.000 HD 
HETATM    5  O   UNL     1      -6.146   7.754  68.101  1.00  0.00    -0.038 OA 
ENDROOT
BRANCH   2   6
HETATM    6  C   UNL     1      -8.162   9.090  67.723  1.00  0.00    -0.109 C  
HETATM    7  C   UNL     1      -9.589   8.578  68.054  1.00  0.00    -0.168 C  
HETATM    8  C   UNL     1     -10.707   9.592  67.751  1.00  0.00    -0.302 C  
HETATM    9  C   UNL     1     -10.405  10.449  66.501  1.00  0.00    -0.224 C  
HETATM   10  C   UNL     1      -9.310   9.788  65.676  1.00  0.00    -0.227 C  
HETATM   11  N   UNL     1      -8.167  10.003  66.555  1.00  0.00    -0.118 N  
HETATM   12  C   UNL     1      -8.324  11.382  66.947  1.00  0.00    -0.159 C  
HETATM   13  N   UNL     1      -9.716  11.643  66.970  1.00  0.00    -0.185 N  
HETATM   14  O   UNL     1      -7.423  12.188  67.111  1.00  0.00    -0.149 OA 
BRANCH  13  15
HETATM   15  O   UNL     1     -10.030  12.804  66.213  1.00  0.00    -0.254 OA 
HETATM   16  S   UNL     1     -10.895  13.908  67.064  1.00  0.00    -0.288 S  
HETATM   17  O   UNL     1     -12.032  13.240  67.666  1.00  0.00    -0.355 OA 
HETATM   18  O   UNL     1     -11.063  15.073  66.224  1.00  0.00    -0.340 OA 
HETATM   19  O   UNL     1      -9.888  14.345  68.243  1.00  0.00    -0.216 OA 
ENDBRANCH  13  15
ENDBRANCH   2   6
TORSDOF 2
ENDMDL
MODEL      128
REMARK 921   NORMALIZED FREE ENERGY PREDICTED BY IDOCK:   -2.87 KCAL/MOL
REMARK 922        TOTAL FREE ENERGY PREDICTED BY IDOCK:   -3.57 KCAL/MOL
REMARK 923 INTER-LIGAND FREE ENERGY PREDICTED BY IDOCK:   -3.27 KCAL/MOL
REMARK 924 INTRA-LIGAND FREE ENERGY PREDICTED BY IDOCK:   -0.31 KCAL/MOL
REMARK 927      BINDING AFFINITY PREDICTED BY RF-SCORE:    0.00 PKD
ROOT
HETATM    1  N   UNL     1      -9.177   2.700  65.799  1.00  0.00    -0.284 N  
HETATM    2  C   UNL     1      -8.945   4.010  65.503  1.00  0.00    -0.131 C  
HETATM    3  H1  UNL     1      -9.255   2.400  66.771  1.00  0.00     0.000 HD 
HETATM    4  H2  UNL     1      -9.273   2.018  65.047  1.00  0.00     0.000 HD 
HETATM    5  O   UNL     1      -8.850   4.371  64.333  1.00  0.00    -0.137 OA 
ENDROOT
BRANCH   2   6
HETATM    6  C   UNL     1      -8.988   4.983  66.700  1.00  0.00    -0.114 C  
HETATM    7  C   UNL     1      -9.523   4.244  67.955  1.00  0.00    -0.216 C  
HETATM    8  C   UNL     1     -10.123   5.174  69.025  1.00  0.00    -0.257 C  
HETATM    9  C   UNL     1     -10.849   6.392  68.409  1.00  0.00    -0.311 C  
HETATM   10  C   UNL     1     -11.138   6.130  66.939  1.00  0.00    -0.219 C  
HETATM   11  N   UNL     1      -9.786   6.196  66.399  1.00  0.00    -0.143 N  
HETATM   12  C   UNL     1      -9.246   7.371  67.040  1.00  0.00    -0.142 C  
HETATM   13  N   UNL     1      -9.863   7.459  68.312  1.00  0.00    -0.156 N  
HETATM   14  O   UNL     1      -8.493   8.183  66.530  1.00  0.00    -0.121 OA 
BRANCH  13  15
HETATM   15  O   UNL     1     -10.415   8.752  68.522  1.00  0.00    -0.206 OA 
HETATM   16  S   UNL     1     -10.098   9.349  70.016  1.00  0.00    -0.244 S  
HETATM   17  O   UNL     1     -10.473   8.353  71.001  1.00  0.00    -0.198 OA 
HETATM   18  O   UNL     1     -10.622  10.696  70.069  1.00  0.00    -0.230 OA 
HETATM   19  O   UNL     1      -8.494   9.490  70.031  1.00  0.00    -0.157 OA 
ENDBRANCH  13  15
ENDBRANCH   2   6
TORSDOF 2
ENDMDL
MODEL      129
REMARK 921   NORMALIZED FREE ENERGY PREDICTED BY IDOCK:   -2.86 KCAL/MOL
REMARK 922        TOTAL FREE ENERGY PREDICTED BY IDOCK:   -3.57 KCAL/MOL
REMARK 923 INTER-LIGAND FREE ENERGY PREDICTED BY IDOCK:   -3.17 KCAL/MOL
REMARK 924 INTRA-LIGAND FREE ENERGY PREDICTED BY IDOCK:   -0.40 KCAL/MOL
REMARK 927      BINDING AFFINITY PREDICTED BY RF-SCORE:    0.00 PKD
ROOT
HETATM    1  N   UNL     1      -9.063   5.742  65.042  1.00  0.00    -0.363 N  
HETATM    2  C   UNL     1      -8.027   6.198  65.802  1.00  0.00    -0.115 C  
HETATM    3  H1  UNL     1      -9.883   6.329  64.887  1.00  0.00     0.000 HD 
HETATM    4  H2  UNL     1      -9.019   4.812  64.627  1.00  0.00     0.000 HD 
HETATM    5  O   UNL     1      -7.041   5.492  65.988  1.00  0.00    -0.065 OA 
ENDROOT
BRANCH   2   6
HETATM    6  C   UNL     1      -8.118   7.676  66.237  1.00  0.00    -0.112 C  
HETATM    7  C   UNL     1      -7.251   7.900  67.505  1.00  0.00    -0.088 C  
HETATM    8  C   UNL     1      -7.664   9.125  68.341  1.00  0.00    -0.094 C  
HETATM    9  C   UNL     1      -9.192   9.361  68.330  1.00  0.00    -0.130 C  
HETATM   10  C   UNL     1      -9.903   8.102  67.857  1.00  0.00    -0.169 C  
HETATM   11  N   UNL     1      -9.520   8.106  66.452  1.00  0.00    -0.217 N  
HETATM   12  C   UNL     1      -9.727   9.483  66.071  1.00  0.00    -0.272 C  
HETATM   13  N   UNL     1      -9.466  10.266  67.222  1.00  0.00    -0.149 N  
HETATM   14  O   UNL     1     -10.154   9.874  64.998  1.00  0.00    -0.286 OA 
BRANCH  13  15
HETATM   15  O   UNL     1     -10.538  11.161  67.484  1.00  0.00    -0.197 OA 
HETATM   16  S   UNL     1     -10.071  12.734  67.499  1.00  0.00    -0.216 S  
HETATM   17  O   UNL     1      -8.929  12.868  68.383  1.00  0.00    -0.187 OA 
HETATM   18  O   UNL     1     -11.258  13.540  67.674  1.00  0.00    -0.261 OA 
HETATM   19  O   UNL     1      -9.571  12.991  65.990  1.00  0.00    -0.248 OA 
ENDBRANCH  13  15
ENDBRANCH   2   6
TORSDOF 2
ENDMDL
MODEL      130
REMARK 921   NORMALIZED FREE ENERGY PREDICTED BY IDOCK:   -2.85 KCAL/MOL
REMARK 922        TOTAL FREE ENERGY PREDICTED BY IDOCK:   -3.55 KCAL/MOL
REMARK 923 INTER-LIGAND FREE ENERGY PREDICTED BY IDOCK:   -3.29 KCAL/MOL
REMARK 924 INTRA-LIGAND FREE ENERGY PREDICTED BY IDOCK:   -0.27 KCAL/MOL
REMARK 927      BINDING AFFINITY PREDICTED BY RF-SCORE:    0.00 PKD
ROOT
HETATM    1  N   UNL     1      -6.008  19.584  67.645  1.00  0.00    -0.193 N  
HETATM    2  C   UNL     1      -7.331  19.903  67.716  1.00  0.00    -0.288 C  
HETATM    3  H1  UNL     1      -5.721  18.637  67.399  1.00  0.00     0.000 HD 
HETATM    4  H2  UNL     1      -5.302  20.294  67.840  1.00  0.00     0.000 HD 
HETATM    5  O   UNL     1      -7.676  21.043  68.013  1.00  0.00     0.047 OA 
ENDROOT
BRANCH   2   6
HETATM    6  C   UNL     1      -8.309  18.809  67.236  1.00  0.00    -0.268 C  
HETATM    7  C   UNL     1      -9.766  19.237  67.555  1.00  0.00    -0.406 C  
HETATM    8  C   UNL     1     -10.761  18.065  67.642  1.00  0.00    -0.360 C  
HETATM    9  C   UNL     1     -10.122  16.791  68.242  1.00  0.00    -0.274 C  
HETATM   10  C   UNL     1      -8.832  17.153  68.962  1.00  0.00    -0.105 C  
HETATM   11  N   UNL     1      -7.989  17.485  67.821  1.00  0.00    -0.205 N  
HETATM   12  C   UNL     1      -8.263  16.408  66.901  1.00  0.00    -0.218 C  
HETATM   13  N   UNL     1      -9.606  16.017  67.122  1.00  0.00    -0.217 N  
HETATM   14  O   UNL     1      -7.454  15.872  66.162  1.00  0.00     0.189 OA 
BRANCH  13  15
HETATM   15  O   UNL     1      -9.703  14.613  67.321  1.00  0.00    -0.225 OA 
HETATM   16  S   UNL     1     -10.517  13.849  66.120  1.00  0.00    -0.304 S  
HETATM   17  O   UNL     1     -11.781  14.528  65.913  1.00  0.00    -0.361 OA 
HETATM   18  O   UNL     1     -10.459  12.429  66.386  1.00  0.00    -0.237 OA 
HETATM   19  O   UNL     1      -9.595  14.101  64.823  1.00  0.00     0.139 OA 
ENDBRANCH  13  15
ENDBRANCH   2   6
TORSDOF 2
ENDMDL
MODEL      131
REMARK 921   NORMALIZED FREE ENERGY PREDICTED BY IDOCK:   -2.83 KCAL/MOL
REMARK 922        TOTAL FREE ENERGY PREDICTED BY IDOCK:   -3.54 KCAL/MOL
REMARK 923 INTER-LIGAND FREE ENERGY PREDICTED BY IDOCK:   -3.15 KCAL/MOL
REMARK 924 INTRA-LIGAND FREE ENERGY PREDICTED BY IDOCK:   -0.39 KCAL/MOL
REMARK 927      BINDING AFFINITY PREDICTED BY RF-SCORE:    0.00 PKD
ROOT
HETATM    1  N   UNL     1      -6.370   8.303  67.051  1.00  0.00    -0.055 N  
HETATM    2  C   UNL     1      -6.516   7.327  67.991  1.00  0.00    -0.045 C  
HETATM    3  H1  UNL     1      -6.999   9.105  67.043  1.00  0.00     0.000 HD 
HETATM    4  H2  UNL     1      -5.630   8.230  66.353  1.00  0.00     0.000 HD 
HETATM    5  O   UNL     1      -5.759   6.361  68.000  1.00  0.00    -0.011 OA 
ENDROOT
BRANCH   2   6
HETATM    6  C   UNL     1      -7.550   7.616  69.100  1.00  0.00    -0.100 C  
HETATM    7  C   UNL     1      -7.125   6.899  70.409  1.00  0.00    -0.067 C  
HETATM    8  C   UNL     1      -8.283   6.644  71.391  1.00  0.00    -0.116 C  
HETATM    9  C   UNL     1      -9.612   6.328  70.668  1.00  0.00    -0.172 C  
HETATM   10  C   UNL     1      -9.333   5.943  69.223  1.00  0.00    -0.128 C  
HETATM   11  N   UNL     1      -8.923   7.236  68.691  1.00  0.00    -0.129 N  
HETATM   12  C   UNL     1      -9.916   8.130  69.233  1.00  0.00    -0.188 C  
HETATM   13  N   UNL     1     -10.301   7.598  70.487  1.00  0.00    -0.209 N  
HETATM   14  O   UNL     1     -10.404   9.092  68.662  1.00  0.00    -0.201 OA 
BRANCH  13  15
HETATM   15  O   UNL     1     -11.714   7.486  70.582  1.00  0.00    -0.281 OA 
HETATM   16  S   UNL     1     -12.339   8.306  71.858  1.00  0.00    -0.357 S  
HETATM   17  O   UNL     1     -11.611   7.926  73.053  1.00  0.00    -0.351 OA 
HETATM   18  O   UNL     1     -13.778   8.197  71.786  1.00  0.00    -0.354 OA 
HETATM   19  O   UNL     1     -11.987   9.842  71.524  1.00  0.00    -0.379 OA 
ENDBRANCH  13  15
ENDBRANCH   2   6
TORSDOF 2
ENDMDL
MODEL      132
REMARK 921   NORMALIZED FREE ENERGY PREDICTED BY IDOCK:   -2.82 KCAL/MOL
REMARK 922        TOTAL FREE ENERGY PREDICTED BY IDOCK:   -3.52 KCAL/MOL
REMARK 923 INTER-LIGAND FREE ENERGY PREDICTED BY IDOCK:   -3.13 KCAL/MOL
REMARK 924 INTRA-LIGAND FREE ENERGY PREDICTED BY IDOCK:   -0.39 KCAL/MOL
REMARK 927      BINDING AFFINITY PREDICTED BY RF-SCORE:    0.00 PKD
ROOT
HETATM    1  N   UNL     1      -9.874   8.369  66.068  1.00  0.00    -0.474 N  
HETATM    2  C   UNL     1      -9.942   9.325  67.037  1.00  0.00    -0.224 C  
HETATM    3  H1  UNL     1      -9.825   7.383  66.323  1.00  0.00     0.000 HD 
HETATM    4  H2  UNL     1      -9.871   8.640  65.084  1.00  0.00     0.000 HD 
HETATM    5  O   UNL     1     -10.000  10.512  66.729  1.00  0.00    -0.189 OA 
ENDROOT
BRANCH   2   6
HETATM    6  C   UNL     1     -10.114   8.804  68.479  1.00  0.00    -0.189 C  
HETATM    7  C   UNL     1     -11.033   9.768  69.275  1.00  0.00    -0.222 C  
HETATM    8  C   UNL     1     -10.852   9.691  70.803  1.00  0.00    -0.400 C  
HETATM    9  C   UNL     1      -9.387   9.417  71.212  1.00  0.00     0.010 C  
HETATM   10  C   UNL     1      -8.462   9.714  70.041  1.00  0.00    -0.204 C  
HETATM   11  N   UNL     1      -8.810   8.609  69.157  1.00  0.00    -0.137 N  
HETATM   12  C   UNL     1      -8.831   7.480  70.055  1.00  0.00    -0.144 C  
HETATM   13  N   UNL     1      -9.246   7.971  71.316  1.00  0.00    -0.145 N  
HETATM   14  O   UNL     1      -8.453   6.350  69.795  1.00  0.00    -0.124 OA 
BRANCH  13  15
HETATM   15  O   UNL     1      -8.348   7.570  72.341  1.00  0.00    -0.102 OA 
HETATM   16  S   UNL     1      -9.090   6.771  73.567  1.00  0.00    -0.145 S  
HETATM   17  O   UNL     1     -10.220   7.560  74.016  1.00  0.00    -0.184 OA 
HETATM   18  O   UNL     1      -8.064   6.333  74.487  1.00  0.00    -0.117 OA 
HETATM   19  O   UNL     1      -9.656   5.440  72.858  1.00  0.00    -0.144 OA 
ENDBRANCH  13  15
ENDBRANCH   2   6
TORSDOF 2
ENDMDL
MODEL      133
REMARK 921   NORMALIZED FREE ENERGY PREDICTED BY IDOCK:   -2.79 KCAL/MOL
REMARK 922        TOTAL FREE ENERGY PREDICTED BY IDOCK:   -3.49 KCAL/MOL
REMARK 923 INTER-LIGAND FREE ENERGY PREDICTED BY IDOCK:   -3.28 KCAL/MOL
REMARK 924 INTRA-LIGAND FREE ENERGY PREDICTED BY IDOCK:   -0.21 KCAL/MOL
REMARK 927      BINDING AFFINITY PREDICTED BY RF-SCORE:    0.00 PKD
ROOT
HETATM    1  N   UNL     1     -11.262   4.550  65.194  1.00  0.00    -0.978 N  
HETATM    2  C   UNL     1     -10.024   4.218  65.658  1.00  0.00    -0.224 C  
HETATM    3  H1  UNL     1     -11.760   5.348  65.589  1.00  0.00     0.000 HD 
HETATM    4  H2  UNL     1     -11.691   4.000  64.450  1.00  0.00     0.000 HD 
HETATM    5  O   UNL     1      -9.425   3.257  65.184  1.00  0.00    -0.156 OA 
ENDROOT
BRANCH   2   6
HETATM    6  C   UNL     1      -9.395   5.212  66.657  1.00  0.00    -0.137 C  
HETATM    7  C   UNL     1      -9.931   4.925  68.085  1.00  0.00    -0.171 C  
HETATM    8  C   UNL     1      -9.836   6.125  69.045  1.00  0.00    -0.170 C  
HETATM    9  C   UNL     1     -10.068   7.475  68.329  1.00  0.00    -0.183 C  
HETATM   10  C   UNL     1     -10.734   7.236  66.983  1.00  0.00    -0.336 C  
HETATM   11  N   UNL     1      -9.630   6.621  66.259  1.00  0.00    -0.096 N  
HETATM   12  C   UNL     1      -8.515   7.471  66.600  1.00  0.00    -0.130 C  
HETATM   13  N   UNL     1      -8.759   7.955  67.908  1.00  0.00    -0.125 N  
HETATM   14  O   UNL     1      -7.605   7.793  65.855  1.00  0.00    -0.085 OA 
BRANCH  13  15
HETATM   15  O   UNL     1      -8.639   9.370  67.959  1.00  0.00    -0.120 OA 
HETATM   16  S   UNL     1      -7.548   9.881  69.073  1.00  0.00    -0.093 S  
HETATM   17  O   UNL     1      -7.849   9.244  70.340  1.00  0.00    -0.112 OA 
HETATM   18  O   UNL     1      -7.447  11.319  68.958  1.00  0.00    -0.121 OA 
HETATM   19  O   UNL     1      -6.153   9.287  68.531  1.00  0.00    -0.044 OA 
ENDBRANCH  13  15
ENDBRANCH   2   6
TORSDOF 2
ENDMDL
MODEL      134
REMARK 921   NORMALIZED FREE ENERGY PREDICTED BY IDOCK:   -2.79 KCAL/MOL
REMARK 922        TOTAL FREE ENERGY PREDICTED BY IDOCK:   -3.49 KCAL/MOL
REMARK 923 INTER-LIGAND FREE ENERGY PREDICTED BY IDOCK:   -3.15 KCAL/MOL
REMARK 924 INTRA-LIGAND FREE ENERGY PREDICTED BY IDOCK:   -0.34 KCAL/MOL
REMARK 927      BINDING AFFINITY PREDICTED BY RF-SCORE:    0.00 PKD
ROOT
HETATM    1  N   UNL     1      -9.922   3.608  66.179  1.00  0.00    -0.417 N  
HETATM    2  C   UNL     1      -9.234   3.961  67.302  1.00  0.00    -0.176 C  
HETATM    3  H1  UNL     1     -10.345   4.325  65.590  1.00  0.00     0.000 HD 
HETATM    4  H2  UNL     1     -10.013   2.624  65.928  1.00  0.00     0.000 HD 
HETATM    5  O   UNL     1      -8.725   3.099  68.011  1.00  0.00    -0.091 OA 
ENDROOT
BRANCH   2   6
HETATM    6  C   UNL     1      -9.007   5.475  67.497  1.00  0.00    -0.107 C  
HETATM    7  C   UNL     1      -9.335   5.867  68.963  1.00  0.00    -0.138 C  
HETATM    8  C   UNL     1      -9.680   7.355  69.154  1.00  0.00    -0.165 C  
HETATM    9  C   UNL     1     -10.448   7.943  67.949  1.00  0.00    -0.198 C  
HETATM   10  C   UNL     1     -11.017   6.816  67.101  1.00  0.00    -0.388 C  
HETATM   11  N   UNL     1      -9.788   6.283  66.530  1.00  0.00    -0.153 N  
HETATM   12  C   UNL     1      -9.082   7.475  66.128  1.00  0.00    -0.137 C  
HETATM   13  N   UNL     1      -9.447   8.491  67.044  1.00  0.00    -0.162 N  
HETATM   14  O   UNL     1      -8.398   7.601  65.126  1.00  0.00    -0.138 OA 
BRANCH  13  15
HETATM   15  O   UNL     1      -9.887   9.659  66.363  1.00  0.00    -0.208 OA 
HETATM   16  S   UNL     1      -9.128  11.021  66.870  1.00  0.00    -0.159 S  
HETATM   17  O   UNL     1      -9.210  11.086  68.316  1.00  0.00    -0.152 OA 
HETATM   18  O   UNL     1      -9.587  12.112  66.040  1.00  0.00    -0.238 OA 
HETATM   19  O   UNL     1      -7.590  10.765  66.466  1.00  0.00    -0.126 OA 
ENDBRANCH  13  15
ENDBRANCH   2   6
TORSDOF 2
ENDMDL
MODEL      135
REMARK 921   NORMALIZED FREE ENERGY PREDICTED BY IDOCK:   -2.78 KCAL/MOL
REMARK 922        TOTAL FREE ENERGY PREDICTED BY IDOCK:   -3.48 KCAL/MOL
REMARK 923 INTER-LIGAND FREE ENERGY PREDICTED BY IDOCK:   -3.14 KCAL/MOL
REMARK 924 INTRA-LIGAND FREE ENERGY PREDICTED BY IDOCK:   -0.34 KCAL/MOL
REMARK 927      BINDING AFFINITY PREDICTED BY RF-SCORE:    0.00 PKD
ROOT
HETATM    1  N   UNL     1      -9.083   6.279  65.462  1.00  0.00    -0.369 N  
HETATM    2  C   UNL     1      -8.218   6.535  66.484  1.00  0.00    -0.113 C  
HETATM    3  H1  UNL     1     -10.084   6.207  65.644  1.00  0.00     0.000 HD 
HETATM    4  H2  UNL     1      -8.728   6.160  64.514  1.00  0.00     0.000 HD 
HETATM    5  O   UNL     1      -7.013   6.622  66.266  1.00  0.00    -0.059 OA 
ENDROOT
BRANCH   2   6
HETATM    6  C   UNL     1      -8.869   6.869  67.843  1.00  0.00    -0.123 C  
HETATM    7  C   UNL     1      -8.525   8.329  68.241  1.00  0.00    -0.136 C  
HETATM    8  C   UNL     1      -8.627   8.609  69.752  1.00  0.00    -0.131 C  
HETATM    9  C   UNL     1      -8.201   7.395  70.609  1.00  0.00    -0.112 C  
HETATM   10  C   UNL     1      -7.409   6.416  69.755  1.00  0.00    -0.080 C  
HETATM   11  N   UNL     1      -8.472   5.908  68.899  1.00  0.00    -0.105 N  
HETATM   12  C   UNL     1      -9.542   5.662  69.836  1.00  0.00    -0.161 C  
HETATM   13  N   UNL     1      -9.408   6.623  70.867  1.00  0.00    -0.158 N  
HETATM   14  O   UNL     1     -10.331   4.733  69.796  1.00  0.00    -0.227 OA 
BRANCH  13  15
HETATM   15  O   UNL     1      -9.412   6.003  72.146  1.00  0.00    -0.149 OA 
HETATM   16  S   UNL     1     -10.655   6.500  73.095  1.00  0.00    -0.280 S  
HETATM   17  O   UNL     1     -10.671   7.950  73.115  1.00  0.00    -0.368 OA 
HETATM   18  O   UNL     1     -10.605   5.730  74.318  1.00  0.00    -0.253 OA 
HETATM   19  O   UNL     1     -11.960   5.994  72.298  1.00  0.00    -0.318 OA 
ENDBRANCH  13  15
ENDBRANCH   2   6
TORSDOF 2
ENDMDL
MODEL      136
REMARK 921   NORMALIZED FREE ENERGY PREDICTED BY IDOCK:   -2.78 KCAL/MOL
REMARK 922        TOTAL FREE ENERGY PREDICTED BY IDOCK:   -3.48 KCAL/MOL
REMARK 923 INTER-LIGAND FREE ENERGY PREDICTED BY IDOCK:   -3.27 KCAL/MOL
REMARK 924 INTRA-LIGAND FREE ENERGY PREDICTED BY IDOCK:   -0.20 KCAL/MOL
REMARK 927      BINDING AFFINITY PREDICTED BY RF-SCORE:    0.00 PKD
ROOT
HETATM    1  N   UNL     1     -12.300   7.889  70.816  1.00  0.00    -0.509 N  
HETATM    2  C   UNL     1     -11.170   8.643  70.709  1.00  0.00    -0.261 C  
HETATM    3  H1  UNL     1     -12.556   7.242  70.071  1.00  0.00     0.000 HD 
HETATM    4  H2  UNL     1     -12.891   7.972  71.643  1.00  0.00     0.000 HD 
HETATM    5  O   UNL     1     -10.861   9.423  71.606  1.00  0.00    -0.368 OA 
ENDROOT
BRANCH   2   6
HETATM    6  C   UNL     1     -10.260   8.318  69.506  1.00  0.00    -0.210 C  
HETATM    7  C   UNL     1     -10.677   9.183  68.287  1.00  0.00    -0.173 C  
HETATM    8  C   UNL     1     -10.254   8.599  66.927  1.00  0.00    -0.367 C  
HETATM    9  C   UNL     1     -10.309   7.054  66.904  1.00  0.00    -0.268 C  
HETATM   10  C   UNL     1     -11.154   6.552  68.065  1.00  0.00    -0.238 C  
HETATM   11  N   UNL     1     -10.270   6.872  69.178  1.00  0.00    -0.180 N  
HETATM   12  C   UNL     1      -8.986   6.416  68.705  1.00  0.00    -0.125 C  
HETATM   13  N   UNL     1      -8.988   6.584  67.299  1.00  0.00    -0.114 N  
HETATM   14  O   UNL     1      -8.120   5.885  69.380  1.00  0.00    -0.105 OA 
BRANCH  13  15
HETATM   15  O   UNL     1      -8.602   5.385  66.641  1.00  0.00    -0.114 OA 
HETATM   16  S   UNL     1      -7.342   5.596  65.612  1.00  0.00    -0.074 S  
HETATM   17  O   UNL     1      -7.644   6.709  64.733  1.00  0.00    -0.088 OA 
HETATM   18  O   UNL     1      -6.984   4.297  65.088  1.00  0.00    -0.055 OA 
HETATM   19  O   UNL     1      -6.135   6.037  66.583  1.00  0.00    -0.024 OA 
ENDBRANCH  13  15
ENDBRANCH   2   6
TORSDOF 2
ENDMDL
MODEL      137
REMARK 921   NORMALIZED FREE ENERGY PREDICTED BY IDOCK:   -2.76 KCAL/MOL
REMARK 922        TOTAL FREE ENERGY PREDICTED BY IDOCK:   -3.46 KCAL/MOL
REMARK 923 INTER-LIGAND FREE ENERGY PREDICTED BY IDOCK:   -3.30 KCAL/MOL
REMARK 924 INTRA-LIGAND FREE ENERGY PREDICTED BY IDOCK:   -0.16 KCAL/MOL
REMARK 927      BINDING AFFINITY PREDICTED BY RF-SCORE:    0.00 PKD
ROOT
HETATM    1  N   UNL     1      -7.422  10.807  64.977  1.00  0.00    -0.358 N  
HETATM    2  C   UNL     1      -8.720  10.532  65.289  1.00  0.00    -0.188 C  
HETATM    3  H1  UNL     1      -6.674  10.543  65.618  1.00  0.00     0.000 HD 
HETATM    4  H2  UNL     1      -7.199  11.279  64.102  1.00  0.00     0.000 HD 
HETATM    5  O   UNL     1      -9.621  10.850  64.518  1.00  0.00    -0.226 OA 
ENDROOT
BRANCH   2   6
HETATM    6  C   UNL     1      -8.936   9.666  66.548  1.00  0.00    -0.147 C  
HETATM    7  C   UNL     1      -9.993   8.569  66.252  1.00  0.00    -0.251 C  
HETATM    8  C   UNL     1     -10.691   8.012  67.506  1.00  0.00    -0.238 C  
HETATM    9  C   UNL     1     -10.900   9.090  68.594  1.00  0.00    -0.017 C  
HETATM   10  C   UNL     1     -10.749  10.475  67.982  1.00  0.00    -0.245 C  
HETATM   11  N   UNL     1      -9.315  10.484  67.725  1.00  0.00    -0.148 N  
HETATM   12  C   UNL     1      -8.771   9.951  68.951  1.00  0.00    -0.140 C  
HETATM   13  N   UNL     1      -9.730   9.041  69.460  1.00  0.00    -0.167 N  
HETATM   14  O   UNL     1      -7.738  10.307  69.492  1.00  0.00    -0.135 OA 
BRANCH  13  15
HETATM   15  O   UNL     1     -10.029   9.323  70.820  1.00  0.00    -0.246 OA 
HETATM   16  S   UNL     1     -10.323   7.973  71.704  1.00  0.00    -0.225 S  
HETATM   17  O   UNL     1     -11.313   7.172  71.011  1.00  0.00    -0.259 OA 
HETATM   18  O   UNL     1     -10.513   8.383  73.078  1.00  0.00    -0.180 OA 
HETATM   19  O   UNL     1      -8.919   7.184  71.661  1.00  0.00    -0.133 OA 
ENDBRANCH  13  15
ENDBRANCH   2   6
TORSDOF 2
ENDMDL
MODEL      138
REMARK 921   NORMALIZED FREE ENERGY PREDICTED BY IDOCK:   -2.76 KCAL/MOL
REMARK 922        TOTAL FREE ENERGY PREDICTED BY IDOCK:   -3.45 KCAL/MOL
REMARK 923 INTER-LIGAND FREE ENERGY PREDICTED BY IDOCK:   -3.62 KCAL/MOL
REMARK 924 INTRA-LIGAND FREE ENERGY PREDICTED BY IDOCK:    0.17 KCAL/MOL
REMARK 927      BINDING AFFINITY PREDICTED BY RF-SCORE:    0.00 PKD
ROOT
HETATM    1  N   UNL     1      -8.553  16.112  66.325  1.00  0.00    -0.330 N  
HETATM    2  C   UNL     1      -8.876  15.286  67.360  1.00  0.00    -0.179 C  
HETATM    3  H1  UNL     1      -8.338  15.723  65.407  1.00  0.00     0.000 HD 
HETATM    4  H2  UNL     1      -8.525  17.121  66.469  1.00  0.00     0.000 HD 
HETATM    5  O   UNL     1      -9.134  15.754  68.465  1.00  0.00    -0.182 OA 
ENDROOT
BRANCH   2   6
HETATM    6  C   UNL     1      -9.058  13.798  66.996  1.00  0.00    -0.246 C  
HETATM    7  C   UNL     1      -9.721  13.680  65.597  1.00  0.00    -0.119 C  
HETATM    8  C   UNL     1     -10.442  12.342  65.354  1.00  0.00    -0.302 C  
HETATM    9  C   UNL     1     -11.107  11.787  66.634  1.00  0.00    -0.310 C  
HETATM   10  C   UNL     1     -11.231  12.893  67.670  1.00  0.00    -0.278 C  
HETATM   11  N   UNL     1      -9.829  13.065  68.028  1.00  0.00    -0.218 N  
HETATM   12  C   UNL     1      -9.373  11.704  68.179  1.00  0.00    -0.188 C  
HETATM   13  N   UNL     1     -10.125  10.920  67.271  1.00  0.00    -0.185 N  
HETATM   14  O   UNL     1      -8.576  11.303  69.010  1.00  0.00    -0.098 OA 
BRANCH  13  15
HETATM   15  O   UNL     1     -10.709   9.801  67.925  1.00  0.00    -0.245 OA 
HETATM   16  S   UNL     1      -9.917   8.397  67.621  1.00  0.00    -0.206 S  
HETATM   17  O   UNL     1      -9.760   8.257  66.186  1.00  0.00    -0.207 OA 
HETATM   18  O   UNL     1     -10.542   7.363  68.415  1.00  0.00    -0.198 OA 
HETATM   19  O   UNL     1      -8.461   8.641  68.264  1.00  0.00    -0.128 OA 
ENDBRANCH  13  15
ENDBRANCH   2   6
TORSDOF 2
ENDMDL
MODEL      139
REMARK 921   NORMALIZED FREE ENERGY PREDICTED BY IDOCK:   -2.75 KCAL/MOL
REMARK 922        TOTAL FREE ENERGY PREDICTED BY IDOCK:   -3.44 KCAL/MOL
REMARK 923 INTER-LIGAND FREE ENERGY PREDICTED BY IDOCK:   -3.26 KCAL/MOL
REMARK 924 INTRA-LIGAND FREE ENERGY PREDICTED BY IDOCK:   -0.18 KCAL/MOL
REMARK 927      BINDING AFFINITY PREDICTED BY RF-SCORE:    0.00 PKD
ROOT
HETATM    1  N   UNL     1      -6.880   5.423  65.758  1.00  0.00    -0.059 N  
HETATM    2  C   UNL     1      -7.607   4.783  66.716  1.00  0.00    -0.087 C  
HETATM    3  H1  UNL     1      -6.917   6.439  65.680  1.00  0.00     0.000 HD 
HETATM    4  H2  UNL     1      -6.298   4.885  65.116  1.00  0.00     0.000 HD 
HETATM    5  O   UNL     1      -7.563   3.559  66.809  1.00  0.00    -0.078 OA 
ENDROOT
BRANCH   2   6
HETATM    6  C   UNL     1      -8.314   5.695  67.740  1.00  0.00    -0.100 C  
HETATM    7  C   UNL     1      -7.413   5.873  68.990  1.00  0.00    -0.085 C  
HETATM    8  C   UNL     1      -8.177   6.274  70.265  1.00  0.00    -0.125 C  
HETATM    9  C   UNL     1      -9.579   5.629  70.341  1.00  0.00    -0.170 C  
HETATM   10  C   UNL     1      -9.662   4.461  69.370  1.00  0.00    -0.197 C  
HETATM   11  N   UNL     1      -9.657   5.183  68.104  1.00  0.00    -0.128 N  
HETATM   12  C   UNL     1     -10.596   6.252  68.346  1.00  0.00    -0.260 C  
HETATM   13  N   UNL     1     -10.505   6.568  69.724  1.00  0.00    -0.197 N  
HETATM   14  O   UNL     1     -11.388   6.707  67.539  1.00  0.00    -0.271 OA 
BRANCH  13  15
HETATM   15  O   UNL     1     -11.789   6.570  70.332  1.00  0.00    -0.400 OA 
HETATM   16  S   UNL     1     -11.976   7.774  71.430  1.00  0.00    -0.314 S  
HETATM   17  O   UNL     1     -10.859   7.736  72.353  1.00  0.00    -0.253 OA 
HETATM   18  O   UNL     1     -13.343   7.730  71.899  1.00  0.00    -0.318 OA 
HETATM   19  O   UNL     1     -11.849   9.113  70.543  1.00  0.00    -0.218 OA 
ENDBRANCH  13  15
ENDBRANCH   2   6
TORSDOF 2
ENDMDL
MODEL      140
REMARK 921   NORMALIZED FREE ENERGY PREDICTED BY IDOCK:   -2.73 KCAL/MOL
REMARK 922        TOTAL FREE ENERGY PREDICTED BY IDOCK:   -3.42 KCAL/MOL
REMARK 923 INTER-LIGAND FREE ENERGY PREDICTED BY IDOCK:   -3.07 KCAL/MOL
REMARK 924 INTRA-LIGAND FREE ENERGY PREDICTED BY IDOCK:   -0.35 KCAL/MOL
REMARK 927      BINDING AFFINITY PREDICTED BY RF-SCORE:    0.00 PKD
ROOT
HETATM    1  N   UNL     1     -12.367   7.916  70.905  1.00  0.00    -0.503 N  
HETATM    2  C   UNL     1     -11.405   8.841  70.628  1.00  0.00    -0.254 C  
HETATM    3  H1  UNL     1     -12.547   7.152  70.254  1.00  0.00     0.000 HD 
HETATM    4  H2  UNL     1     -12.910   7.989  71.766  1.00  0.00     0.000 HD 
HETATM    5  O   UNL     1     -11.189   9.761  71.411  1.00  0.00    -0.366 OA 
ENDROOT
BRANCH   2   6
HETATM    6  C   UNL     1     -10.529   8.544  69.393  1.00  0.00    -0.218 C  
HETATM    7  C   UNL     1      -9.507   7.427  69.735  1.00  0.00    -0.159 C  
HETATM    8  C   UNL     1      -8.260   7.416  68.831  1.00  0.00    -0.129 C  
HETATM    9  C   UNL     1      -7.823   8.837  68.410  1.00  0.00    -0.104 C  
HETATM   10  C   UNL     1      -8.469   9.867  69.324  1.00  0.00    -0.158 C  
HETATM   11  N   UNL     1      -9.855   9.762  68.885  1.00  0.00    -0.166 N  
HETATM   12  C   UNL     1      -9.731   9.752  67.448  1.00  0.00    -0.163 C  
HETATM   13  N   UNL     1      -8.497   9.125  67.150  1.00  0.00    -0.120 N  
HETATM   14  O   UNL     1     -10.493  10.285  66.658  1.00  0.00    -0.230 OA 
BRANCH  13  15
HETATM   15  O   UNL     1      -7.717   9.923  66.270  1.00  0.00    -0.101 OA 
HETATM   16  S   UNL     1      -7.288   9.131  64.898  1.00  0.00    -0.103 S  
HETATM   17  O   UNL     1      -6.693   7.861  65.265  1.00  0.00    -0.050 OA 
HETATM   18  O   UNL     1      -6.592  10.073  64.050  1.00  0.00    -0.123 OA 
HETATM   19  O   UNL     1      -8.699   8.836  64.179  1.00  0.00    -0.127 OA 
ENDBRANCH  13  15
ENDBRANCH   2   6
TORSDOF 2
ENDMDL
MODEL      141
REMARK 921   NORMALIZED FREE ENERGY PREDICTED BY IDOCK:   -2.72 KCAL/MOL
REMARK 922        TOTAL FREE ENERGY PREDICTED BY IDOCK:   -3.41 KCAL/MOL
REMARK 923 INTER-LIGAND FREE ENERGY PREDICTED BY IDOCK:   -3.04 KCAL/MOL
REMARK 924 INTRA-LIGAND FREE ENERGY PREDICTED BY IDOCK:   -0.38 KCAL/MOL
REMARK 927      BINDING AFFINITY PREDICTED BY RF-SCORE:    0.00 PKD
ROOT
HETATM    1  N   UNL     1      -9.526   2.893  66.415  1.00  0.00    -0.385 N  
HETATM    2  C   UNL     1      -9.646   4.206  66.070  1.00  0.00    -0.194 C  
HETATM    3  H1  UNL     1      -9.288   2.634  67.372  1.00  0.00     0.000 HD 
HETATM    4  H2  UNL     1      -9.673   2.167  65.714  1.00  0.00     0.000 HD 
HETATM    5  O   UNL     1      -9.932   4.518  64.918  1.00  0.00    -0.144 OA 
ENDROOT
BRANCH   2   6
HETATM    6  C   UNL     1      -9.574   5.213  67.238  1.00  0.00    -0.142 C  
HETATM    7  C   UNL     1     -10.838   6.114  67.228  1.00  0.00    -0.438 C  
HETATM    8  C   UNL     1     -10.655   7.462  67.948  1.00  0.00    -0.255 C  
HETATM    9  C   UNL     1      -9.229   8.034  67.779  1.00  0.00    -0.134 C  
HETATM   10  C   UNL     1      -8.530   7.340  66.620  1.00  0.00    -0.124 C  
HETATM   11  N   UNL     1      -8.330   6.018  67.200  1.00  0.00    -0.106 N  
HETATM   12  C   UNL     1      -7.843   6.323  68.523  1.00  0.00    -0.105 C  
HETATM   13  N   UNL     1      -8.447   7.545  68.907  1.00  0.00    -0.129 N  
HETATM   14  O   UNL     1      -6.990   5.702  69.135  1.00  0.00    -0.059 OA 
BRANCH  13  15
HETATM   15  O   UNL     1      -7.473   8.477  69.357  1.00  0.00    -0.083 OA 
HETATM   16  S   UNL     1      -7.777   9.044  70.866  1.00  0.00    -0.120 S  
HETATM   17  O   UNL     1      -9.147   9.516  70.914  1.00  0.00    -0.209 OA 
HETATM   18  O   UNL     1      -6.672   9.896  71.243  1.00  0.00    -0.330 OA 
HETATM   19  O   UNL     1      -7.667   7.729  71.789  1.00  0.00    -0.081 OA 
ENDBRANCH  13  15
ENDBRANCH   2   6
TORSDOF 2
ENDMDL
MODEL      142
REMARK 921   NORMALIZED FREE ENERGY PREDICTED BY IDOCK:   -2.69 KCAL/MOL
REMARK 922        TOTAL FREE ENERGY PREDICTED BY IDOCK:   -3.38 KCAL/MOL
REMARK 923 INTER-LIGAND FREE ENERGY PREDICTED BY IDOCK:   -3.62 KCAL/MOL
REMARK 924 INTRA-LIGAND FREE ENERGY PREDICTED BY IDOCK:    0.25 KCAL/MOL
REMARK 927      BINDING AFFINITY PREDICTED BY RF-SCORE:    0.00 PKD
ROOT
HETATM    1  N   UNL     1      -6.010   6.683  69.334  1.00  0.00    -0.021 N  
HETATM    2  C   UNL     1      -7.368   6.719  69.218  1.00  0.00    -0.093 C  
HETATM    3  H1  UNL     1      -5.454   7.503  69.092  1.00  0.00     0.000 HD 
HETATM    4  H2  UNL     1      -5.550   5.835  69.662  1.00  0.00     0.000 HD 
HETATM    5  O   UNL     1      -8.038   5.732  69.508  1.00  0.00    -0.104 OA 
ENDROOT
BRANCH   2   6
HETATM    6  C   UNL     1      -7.974   8.097  68.881  1.00  0.00    -0.114 C  
HETATM    7  C   UNL     1      -8.703   8.666  70.128  1.00  0.00    -0.144 C  
HETATM    8  C   UNL     1      -9.779   9.717  69.802  1.00  0.00    -0.256 C  
HETATM    9  C   UNL     1     -10.517   9.418  68.477  1.00  0.00    -0.208 C  
HETATM   10  C   UNL     1     -10.283   7.970  68.074  1.00  0.00    -0.210 C  
HETATM   11  N   UNL     1      -8.875   8.034  67.705  1.00  0.00    -0.125 N  
HETATM   12  C   UNL     1      -8.811   9.237  66.910  1.00  0.00    -0.127 C  
HETATM   13  N   UNL     1      -9.791  10.118  67.428  1.00  0.00    -0.180 N  
HETATM   14  O   UNL     1      -8.122   9.405  65.917  1.00  0.00    -0.111 OA 
BRANCH  13  15
HETATM   15  O   UNL     1     -10.635  10.607  66.394  1.00  0.00    -0.233 OA 
HETATM   16  S   UNL     1     -11.524  11.907  66.853  1.00  0.00    -0.281 S  
HETATM   17  O   UNL     1     -12.197  11.591  68.097  1.00  0.00    -0.576 OA 
HETATM   18  O   UNL     1     -12.257  12.365  65.694  1.00  0.00    -0.599 OA 
HETATM   19  O   UNL     1     -10.412  13.033  67.155  1.00  0.00    -0.241 OA 
ENDBRANCH  13  15
ENDBRANCH   2   6
TORSDOF 2
ENDMDL
MODEL      143
REMARK 921   NORMALIZED FREE ENERGY PREDICTED BY IDOCK:   -2.68 KCAL/MOL
REMARK 922        TOTAL FREE ENERGY PREDICTED BY IDOCK:   -3.36 KCAL/MOL
REMARK 923 INTER-LIGAND FREE ENERGY PREDICTED BY IDOCK:   -3.01 KCAL/MOL
REMARK 924 INTRA-LIGAND FREE ENERGY PREDICTED BY IDOCK:   -0.35 KCAL/MOL
REMARK 927      BINDING AFFINITY PREDICTED BY RF-SCORE:    0.00 PKD
ROOT
HETATM    1  N   UNL     1     -10.128   4.230  70.588  1.00  0.00    -0.148 N  
HETATM    2  C   UNL     1      -9.825   5.512  70.936  1.00  0.00    -0.183 C  
HETATM    3  H1  UNL     1     -10.468   4.020  69.650  1.00  0.00     0.000 HD 
HETATM    4  H2  UNL     1     -10.016   3.478  71.268  1.00  0.00     0.000 HD 
HETATM    5  O   UNL     1      -9.417   5.765  72.066  1.00  0.00    -0.151 OA 
ENDROOT
BRANCH   2   6
HETATM    6  C   UNL     1      -9.865   6.544  69.789  1.00  0.00    -0.165 C  
HETATM    7  C   UNL     1     -11.089   6.263  68.878  1.00  0.00    -0.434 C  
HETATM    8  C   UNL     1     -10.954   6.826  67.451  1.00  0.00    -0.407 C  
HETATM    9  C   UNL     1      -9.502   6.766  66.927  1.00  0.00    -0.156 C  
HETATM   10  C   UNL     1      -8.689   5.799  67.775  1.00  0.00    -0.107 C  
HETATM   11  N   UNL     1      -8.601   6.560  69.014  1.00  0.00    -0.125 N  
HETATM   12  C   UNL     1      -8.269   7.885  68.549  1.00  0.00    -0.127 C  
HETATM   13  N   UNL     1      -8.878   8.034  67.279  1.00  0.00    -0.129 N  
HETATM   14  O   UNL     1      -7.517   8.671  69.099  1.00  0.00    -0.080 OA 
BRANCH  13  15
HETATM   15  O   UNL     1      -7.937   8.481  66.312  1.00  0.00    -0.098 OA 
HETATM   16  S   UNL     1      -8.353   9.913  65.629  1.00  0.00    -0.143 S  
HETATM   17  O   UNL     1      -9.721   9.821  65.158  1.00  0.00    -0.294 OA 
HETATM   18  O   UNL     1      -7.277  10.305  64.746  1.00  0.00    -0.139 OA 
HETATM   19  O   UNL     1      -8.316  10.943  66.866  1.00  0.00    -0.126 OA 
ENDBRANCH  13  15
ENDBRANCH   2   6
TORSDOF 2
ENDMDL
MODEL      144
REMARK 921   NORMALIZED FREE ENERGY PREDICTED BY IDOCK:   -2.67 KCAL/MOL
REMARK 922        TOTAL FREE ENERGY PREDICTED BY IDOCK:   -3.36 KCAL/MOL
REMARK 923 INTER-LIGAND FREE ENERGY PREDICTED BY IDOCK:   -2.98 KCAL/MOL
REMARK 924 INTRA-LIGAND FREE ENERGY PREDICTED BY IDOCK:   -0.38 KCAL/MOL
REMARK 927      BINDING AFFINITY PREDICTED BY RF-SCORE:    0.00 PKD
ROOT
HETATM    1  N   UNL     1      -9.899   7.670  73.693  1.00  0.00    -0.314 N  
HETATM    2  C   UNL     1     -10.844   7.950  72.751  1.00  0.00    -0.386 C  
HETATM    3  H1  UNL     1      -8.915   7.620  73.432  1.00  0.00     0.000 HD 
HETATM    4  H2  UNL     1     -10.177   7.510  74.661  1.00  0.00     0.000 HD 
HETATM    5  O   UNL     1     -12.029   8.010  73.065  1.00  0.00    -0.240 OA 
ENDROOT
BRANCH   2   6
HETATM    6  C   UNL     1     -10.305   8.344  71.360  1.00  0.00    -0.222 C  
HETATM    7  C   UNL     1     -11.191   7.706  70.257  1.00  0.00    -0.230 C  
HETATM    8  C   UNL     1     -10.487   7.552  68.896  1.00  0.00    -0.214 C  
HETATM    9  C   UNL     1      -8.984   7.227  69.041  1.00  0.00    -0.134 C  
HETATM   10  C   UNL     1      -8.697   6.737  70.452  1.00  0.00    -0.151 C  
HETATM   11  N   UNL     1      -8.878   7.978  71.194  1.00  0.00    -0.135 N  
HETATM   12  C   UNL     1      -8.164   8.936  70.386  1.00  0.00    -0.138 C  
HETATM   13  N   UNL     1      -8.280   8.502  69.043  1.00  0.00    -0.115 N  
HETATM   14  O   UNL     1      -7.499   9.871  70.801  1.00  0.00    -0.313 OA 
BRANCH  13  15
HETATM   15  O   UNL     1      -7.006   8.439  68.416  1.00  0.00    -0.067 OA 
HETATM   16  S   UNL     1      -6.912   9.358  67.061  1.00  0.00    -0.086 S  
HETATM   17  O   UNL     1      -8.035   9.033  66.203  1.00  0.00    -0.100 OA 
HETATM   18  O   UNL     1      -5.551   9.287  66.579  1.00  0.00    -0.050 OA 
HETATM   19  O   UNL     1      -7.117  10.858  67.611  1.00  0.00    -0.084 OA 
ENDBRANCH  13  15
ENDBRANCH   2   6
TORSDOF 2
ENDMDL
MODEL      145
REMARK 921   NORMALIZED FREE ENERGY PREDICTED BY IDOCK:   -2.67 KCAL/MOL
REMARK 922        TOTAL FREE ENERGY PREDICTED BY IDOCK:   -3.35 KCAL/MOL
REMARK 923 INTER-LIGAND FREE ENERGY PREDICTED BY IDOCK:   -2.97 KCAL/MOL
REMARK 924 INTRA-LIGAND FREE ENERGY PREDICTED BY IDOCK:   -0.38 KCAL/MOL
REMARK 927      BINDING AFFINITY PREDICTED BY RF-SCORE:    0.00 PKD
ROOT
HETATM    1  N   UNL     1     -11.315   8.078  72.672  1.00  0.00    -0.397 N  
HETATM    2  C   UNL     1     -11.558   7.011  71.860  1.00  0.00    -0.284 C  
HETATM    3  H1  UNL     1     -10.509   8.679  72.501  1.00  0.00     0.000 HD 
HETATM    4  H2  UNL     1     -11.939   8.275  73.455  1.00  0.00     0.000 HD 
HETATM    5  O   UNL     1     -12.527   6.286  72.067  1.00  0.00    -0.306 OA 
ENDROOT
BRANCH   2   6
HETATM    6  C   UNL     1     -10.659   6.903  70.611  1.00  0.00    -0.222 C  
HETATM    7  C   UNL     1     -11.530   6.575  69.368  1.00  0.00    -0.346 C  
HETATM    8  C   UNL     1     -10.754   5.915  68.213  1.00  0.00    -0.319 C  
HETATM    9  C   UNL     1      -9.637   4.972  68.714  1.00  0.00    -0.150 C  
HETATM   10  C   UNL     1      -9.874   4.625  70.176  1.00  0.00    -0.236 C  
HETATM   11  N   UNL     1      -9.573   5.910  70.793  1.00  0.00    -0.168 N  
HETATM   12  C   UNL     1      -8.360   6.307  70.122  1.00  0.00    -0.129 C  
HETATM   13  N   UNL     1      -8.426   5.774  68.812  1.00  0.00    -0.107 N  
HETATM   14  O   UNL     1      -7.417   6.891  70.630  1.00  0.00    -0.079 OA 
BRANCH  13  15
HETATM   15  O   UNL     1      -7.246   5.047  68.497  1.00  0.00    -0.060 OA 
HETATM   16  S   UNL     1      -6.517   5.573  67.124  1.00  0.00    -0.045 S  
HETATM   17  O   UNL     1      -7.507   5.627  66.066  1.00  0.00    -0.079 OA 
HETATM   18  O   UNL     1      -5.288   4.827  66.970  1.00  0.00    -0.011 OA 
HETATM   19  O   UNL     1      -6.085   7.082  67.485  1.00  0.00    -0.033 OA 
ENDBRANCH  13  15
ENDBRANCH   2   6
TORSDOF 2
ENDMDL
MODEL      146
REMARK 921   NORMALIZED FREE ENERGY PREDICTED BY IDOCK:   -2.66 KCAL/MOL
REMARK 922        TOTAL FREE ENERGY PREDICTED BY IDOCK:   -3.35 KCAL/MOL
REMARK 923 INTER-LIGAND FREE ENERGY PREDICTED BY IDOCK:   -4.51 KCAL/MOL
REMARK 924 INTRA-LIGAND FREE ENERGY PREDICTED BY IDOCK:    1.16 KCAL/MOL
REMARK 927      BINDING AFFINITY PREDICTED BY RF-SCORE:    0.00 PKD
ROOT
HETATM    1  N   UNL     1      -9.865  16.452  69.757  1.00  0.00    -0.031 N  
HETATM    2  C   UNL     1      -8.888  15.653  69.242  1.00  0.00    -0.264 C  
HETATM    3  H1  UNL     1     -10.843  16.278  69.528  1.00  0.00     0.000 HD 
HETATM    4  H2  UNL     1      -9.618  17.226  70.373  1.00  0.00     0.000 HD 
HETATM    5  O   UNL     1      -7.710  15.863  69.518  1.00  0.00    -0.223 OA 
ENDROOT
BRANCH   2   6
HETATM    6  C   UNL     1      -9.378  14.413  68.465  1.00  0.00    -0.204 C  
HETATM    7  C   UNL     1      -8.271  13.939  67.487  1.00  0.00    -0.196 C  
HETATM    8  C   UNL     1      -8.792  13.102  66.305  1.00  0.00     0.195 C  
HETATM    9  C   UNL     1     -10.182  13.569  65.817  1.00  0.00    -0.297 C  
HETATM   10  C   UNL     1     -10.470  14.966  66.344  1.00  0.00    -0.299 C  
HETATM   11  N   UNL     1     -10.656  14.671  67.759  1.00  0.00    -0.249 N  
HETATM   12  C   UNL     1     -11.502  13.502  67.729  1.00  0.00    -0.315 C  
HETATM   13  N   UNL     1     -11.167  12.788  66.554  1.00  0.00    -0.293 N  
HETATM   14  O   UNL     1     -12.405  13.250  68.509  1.00  0.00    -0.161 OA 
BRANCH  13  15
HETATM   15  O   UNL     1     -12.327  12.488  65.790  1.00  0.00    -0.627 OA 
HETATM   16  S   UNL     1     -12.003  12.244  64.200  1.00  0.00    -0.445 S  
HETATM   17  O   UNL     1     -11.217  13.360  63.712  1.00  0.00    -0.289 OA 
HETATM   18  O   UNL     1     -13.238  11.852  63.558  1.00  0.00    -0.676 OA 
HETATM   19  O   UNL     1     -11.065  10.934  64.207  1.00  0.00    -0.134 OA 
ENDBRANCH  13  15
ENDBRANCH   2   6
TORSDOF 2
ENDMDL
MODEL      147
REMARK 921   NORMALIZED FREE ENERGY PREDICTED BY IDOCK:   -2.66 KCAL/MOL
REMARK 922        TOTAL FREE ENERGY PREDICTED BY IDOCK:   -3.34 KCAL/MOL
REMARK 923 INTER-LIGAND FREE ENERGY PREDICTED BY IDOCK:   -2.95 KCAL/MOL
REMARK 924 INTRA-LIGAND FREE ENERGY PREDICTED BY IDOCK:   -0.39 KCAL/MOL
REMARK 927      BINDING AFFINITY PREDICTED BY RF-SCORE:    0.00 PKD
ROOT
HETATM    1  N   UNL     1      -9.246   3.304  73.718  1.00  0.00    -0.092 N  
HETATM    2  C   UNL     1     -10.423   3.871  73.330  1.00  0.00    -0.176 C  
HETATM    3  H1  UNL     1      -8.359   3.724  73.438  1.00  0.00     0.000 HD 
HETATM    4  H2  UNL     1      -9.251   2.459  74.287  1.00  0.00     0.000 HD 
HETATM    5  O   UNL     1     -11.491   3.365  73.666  1.00  0.00    -0.199 OA 
ENDROOT
BRANCH   2   6
HETATM    6  C   UNL     1     -10.307   5.236  72.621  1.00  0.00    -0.202 C  
HETATM    7  C   UNL     1     -11.696   5.930  72.594  1.00  0.00    -0.247 C  
HETATM    8  C   UNL     1     -11.850   6.986  71.485  1.00  0.00    -0.351 C  
HETATM    9  C   UNL     1     -11.091   6.603  70.194  1.00  0.00    -0.329 C  
HETATM   10  C   UNL     1     -10.753   5.120  70.216  1.00  0.00    -0.051 C  
HETATM   11  N   UNL     1      -9.736   5.107  71.259  1.00  0.00    -0.162 N  
HETATM   12  C   UNL     1      -8.910   6.237  70.910  1.00  0.00    -0.136 C  
HETATM   13  N   UNL     1      -9.762   7.190  70.302  1.00  0.00    -0.176 N  
HETATM   14  O   UNL     1      -7.697   6.299  71.018  1.00  0.00    -0.100 OA 
BRANCH  13  15
HETATM   15  O   UNL     1      -9.238   7.620  69.052  1.00  0.00    -0.141 OA 
HETATM   16  S   UNL     1      -9.055   9.247  68.959  1.00  0.00    -0.150 S  
HETATM   17  O   UNL     1     -10.301   9.876  69.351  1.00  0.00    -0.194 OA 
HETATM   18  O   UNL     1      -8.427   9.544  67.692  1.00  0.00    -0.121 OA 
HETATM   19  O   UNL     1      -7.955   9.566  70.092  1.00  0.00    -0.124 OA 
ENDBRANCH  13  15
ENDBRANCH   2   6
TORSDOF 2
ENDMDL
MODEL      148
REMARK 921   NORMALIZED FREE ENERGY PREDICTED BY IDOCK:   -2.64 KCAL/MOL
REMARK 922        TOTAL FREE ENERGY PREDICTED BY IDOCK:   -3.33 KCAL/MOL
REMARK 923 INTER-LIGAND FREE ENERGY PREDICTED BY IDOCK:   -2.92 KCAL/MOL
REMARK 924 INTRA-LIGAND FREE ENERGY PREDICTED BY IDOCK:   -0.40 KCAL/MOL
REMARK 927      BINDING AFFINITY PREDICTED BY RF-SCORE:    0.00 PKD
ROOT
HETATM    1  N   UNL     1      -9.237  10.433  69.925  1.00  0.00    -0.396 N  
HETATM    2  C   UNL     1      -9.921   9.255  69.964  1.00  0.00    -0.209 C  
HETATM    3  H1  UNL     1      -8.342  10.490  69.440  1.00  0.00     0.000 HD 
HETATM    4  H2  UNL     1      -9.621  11.260  70.383  1.00  0.00     0.000 HD 
HETATM    5  O   UNL     1     -10.998   9.186  70.549  1.00  0.00    -0.234 OA 
ENDROOT
BRANCH   2   6
HETATM    6  C   UNL     1      -9.341   8.117  69.098  1.00  0.00    -0.151 C  
HETATM    7  C   UNL     1      -8.173   8.662  68.234  1.00  0.00    -0.122 C  
HETATM    8  C   UNL     1      -7.879   7.826  66.975  1.00  0.00    -0.112 C  
HETATM    9  C   UNL     1      -9.160   7.226  66.351  1.00  0.00    -0.158 C  
HETATM   10  C   UNL     1     -10.383   7.953  66.888  1.00  0.00    -0.330 C  
HETATM   11  N   UNL     1     -10.382   7.470  68.263  1.00  0.00    -0.193 N  
HETATM   12  C   UNL     1     -10.144   6.057  68.102  1.00  0.00    -0.160 C  
HETATM   13  N   UNL     1      -9.336   5.909  66.948  1.00  0.00    -0.125 N  
HETATM   14  O   UNL     1     -10.642   5.165  68.769  1.00  0.00    -0.114 OA 
BRANCH  13  15
HETATM   15  O   UNL     1      -9.896   4.959  66.051  1.00  0.00    -0.171 OA 
HETATM   16  S   UNL     1      -8.863   3.739  65.683  1.00  0.00    -0.129 S  
HETATM   17  O   UNL     1      -7.600   4.314  65.261  1.00  0.00    -0.082 OA 
HETATM   18  O   UNL     1      -9.578   2.797  64.852  1.00  0.00    -0.138 OA 
HETATM   19  O   UNL     1      -8.631   3.005  67.098  1.00  0.00    -0.094 OA 
ENDBRANCH  13  15
ENDBRANCH   2   6
TORSDOF 2
ENDMDL
MODEL      149
REMARK 921   NORMALIZED FREE ENERGY PREDICTED BY IDOCK:   -2.61 KCAL/MOL
REMARK 922        TOTAL FREE ENERGY PREDICTED BY IDOCK:   -3.29 KCAL/MOL
REMARK 923 INTER-LIGAND FREE ENERGY PREDICTED BY IDOCK:   -3.05 KCAL/MOL
REMARK 924 INTRA-LIGAND FREE ENERGY PREDICTED BY IDOCK:   -0.24 KCAL/MOL
REMARK 927      BINDING AFFINITY PREDICTED BY RF-SCORE:    0.00 PKD
ROOT
HETATM    1  N   UNL     1      -8.340   7.780  68.590  1.00  0.00    -0.128 N  
HETATM    2  C   UNL     1      -9.440   8.478  68.188  1.00  0.00    -0.141 C  
HETATM    3  H1  UNL     1      -7.549   8.267  69.010  1.00  0.00     0.000 HD 
HETATM    4  H2  UNL     1      -8.309   6.768  68.470  1.00  0.00     0.000 HD 
HETATM    5  O   UNL     1     -10.392   7.891  67.681  1.00  0.00    -0.210 OA 
ENDROOT
BRANCH   2   6
HETATM    6  C   UNL     1      -9.459   9.973  68.570  1.00  0.00    -0.148 C  
HETATM    7  C   UNL     1     -10.927  10.462  68.687  1.00  0.00    -0.288 C  
HETATM    8  C   UNL     1     -11.099  11.983  68.517  1.00  0.00    -0.289 C  
HETATM    9  C   UNL     1     -10.107  12.579  67.493  1.00  0.00    -0.207 C  
HETATM   10  C   UNL     1      -9.526  11.468  66.632  1.00  0.00    -0.193 C  
HETATM   11  N   UNL     1      -8.683  10.800  67.614  1.00  0.00    -0.126 N  
HETATM   12  C   UNL     1      -8.023  11.903  68.267  1.00  0.00    -0.148 C  
HETATM   13  N   UNL     1      -8.929  12.991  68.244  1.00  0.00    -0.194 N  
HETATM   14  O   UNL     1      -6.867  11.919  68.657  1.00  0.00    -0.074 OA 
BRANCH  13  15
HETATM   15  O   UNL     1      -8.311  14.159  67.720  1.00  0.00    -0.149 OA 
HETATM   16  S   UNL     1      -8.134  15.347  68.837  1.00  0.00    -0.203 S  
HETATM   17  O   UNL     1      -9.412  15.566  69.485  1.00  0.00    -0.258 OA 
HETATM   18  O   UNL     1      -7.411  16.430  68.211  1.00  0.00    -0.149 OA 
HETATM   19  O   UNL     1      -7.129  14.699  69.916  1.00  0.00    -0.148 OA 
ENDBRANCH  13  15
ENDBRANCH   2   6
TORSDOF 2
ENDMDL
MODEL      150
REMARK 921   NORMALIZED FREE ENERGY PREDICTED BY IDOCK:   -2.61 KCAL/MOL
REMARK 922        TOTAL FREE ENERGY PREDICTED BY IDOCK:   -3.29 KCAL/MOL
REMARK 923 INTER-LIGAND FREE ENERGY PREDICTED BY IDOCK:   -2.96 KCAL/MOL
REMARK 924 INTRA-LIGAND FREE ENERGY PREDICTED BY IDOCK:   -0.33 KCAL/MOL
REMARK 927      BINDING AFFINITY PREDICTED BY RF-SCORE:    0.00 PKD
ROOT
HETATM    1  N   UNL     1      -7.487   5.353  64.771  1.00  0.00    -0.068 N  
HETATM    2  C   UNL     1      -7.079   6.512  65.362  1.00  0.00    -0.064 C  
HETATM    3  H1  UNL     1      -8.462   5.234  64.496  1.00  0.00     0.000 HD 
HETATM    4  H2  UNL     1      -6.817   4.604  64.604  1.00  0.00     0.000 HD 
HETATM    5  O   UNL     1      -5.906   6.655  65.694  1.00  0.00    -0.028 OA 
ENDROOT
BRANCH   2   6
HETATM    6  C   UNL     1      -8.128   7.643  65.411  1.00  0.00    -0.128 C  
HETATM    7  C   UNL     1      -8.344   8.216  63.985  1.00  0.00    -0.008 C  
HETATM    8  C   UNL     1      -8.911   9.648  63.962  1.00  0.00    -0.256 C  
HETATM    9  C   UNL     1      -8.383  10.511  65.130  1.00  0.00    -0.150 C  
HETATM   10  C   UNL     1      -7.145   9.863  65.732  1.00  0.00    -0.110 C  
HETATM   11  N   UNL     1      -7.753   8.705  66.375  1.00  0.00    -0.094 N  
HETATM   12  C   UNL     1      -8.907   9.275  67.027  1.00  0.00    -0.123 C  
HETATM   13  N   UNL     1      -9.334  10.360  66.223  1.00  0.00    -0.162 N  
HETATM   14  O   UNL     1      -9.350   8.949  68.116  1.00  0.00    -0.142 OA 
BRANCH  13  15
HETATM   15  O   UNL     1      -9.486  11.541  66.999  1.00  0.00    -0.179 OA 
HETATM   16  S   UNL     1     -11.017  12.129  66.977  1.00  0.00    -0.287 S  
HETATM   17  O   UNL     1     -11.450  12.240  65.598  1.00  0.00    -0.340 OA 
HETATM   18  O   UNL     1     -11.063  13.261  67.875  1.00  0.00    -0.246 OA 
HETATM   19  O   UNL     1     -11.876  10.962  67.681  1.00  0.00    -0.572 OA 
ENDBRANCH  13  15
ENDBRANCH   2   6
TORSDOF 2
ENDMDL
MODEL      151
REMARK 921   NORMALIZED FREE ENERGY PREDICTED BY IDOCK:   -2.60 KCAL/MOL
REMARK 922        TOTAL FREE ENERGY PREDICTED BY IDOCK:   -3.28 KCAL/MOL
REMARK 923 INTER-LIGAND FREE ENERGY PREDICTED BY IDOCK:   -2.92 KCAL/MOL
REMARK 924 INTRA-LIGAND FREE ENERGY PREDICTED BY IDOCK:   -0.36 KCAL/MOL
REMARK 927      BINDING AFFINITY PREDICTED BY RF-SCORE:    0.00 PKD
ROOT
HETATM    1  N   UNL     1      -7.965  10.780  65.220  1.00  0.00    -0.336 N  
HETATM    2  C   UNL     1      -9.249  10.609  65.643  1.00  0.00    -0.196 C  
HETATM    3  H1  UNL     1      -7.191  10.408  65.769  1.00  0.00     0.000 HD 
HETATM    4  H2  UNL     1      -7.778  11.282  64.352  1.00  0.00     0.000 HD 
HETATM    5  O   UNL     1     -10.182  11.057  64.982  1.00  0.00    -0.264 OA 
ENDROOT
BRANCH   2   6
HETATM    6  C   UNL     1      -9.432   9.690  66.869  1.00  0.00    -0.153 C  
HETATM    7  C   UNL     1     -10.731  10.081  67.624  1.00  0.00    -0.340 C  
HETATM    8  C   UNL     1     -10.752   9.652  69.103  1.00  0.00    -0.237 C  
HETATM    9  C   UNL     1      -9.357   9.730  69.761  1.00  0.00    -0.226 C  
HETATM   10  C   UNL     1      -8.435  10.595  68.915  1.00  0.00    -0.154 C  
HETATM   11  N   UNL     1      -8.251   9.719  67.765  1.00  0.00    -0.113 N  
HETATM   12  C   UNL     1      -8.008   8.437  68.379  1.00  0.00    -0.118 C  
HETATM   13  N   UNL     1      -8.741   8.421  69.591  1.00  0.00    -0.132 N  
HETATM   14  O   UNL     1      -7.230   7.586  67.981  1.00  0.00    -0.085 OA 
BRANCH  13  15
HETATM   15  O   UNL     1      -7.913   8.045  70.683  1.00  0.00    -0.091 OA 
HETATM   16  S   UNL     1      -8.402   6.659  71.411  1.00  0.00    -0.120 S  
HETATM   17  O   UNL     1      -9.814   6.772  71.720  1.00  0.00    -0.165 OA 
HETATM   18  O   UNL     1      -7.430   6.335  72.431  1.00  0.00    -0.091 OA 
HETATM   19  O   UNL     1      -8.229   5.549  70.256  1.00  0.00    -0.099 OA 
ENDBRANCH  13  15
ENDBRANCH   2   6
TORSDOF 2
ENDMDL
MODEL      152
REMARK 921   NORMALIZED FREE ENERGY PREDICTED BY IDOCK:   -2.58 KCAL/MOL
REMARK 922        TOTAL FREE ENERGY PREDICTED BY IDOCK:   -3.25 KCAL/MOL
REMARK 923 INTER-LIGAND FREE ENERGY PREDICTED BY IDOCK:   -2.85 KCAL/MOL
REMARK 924 INTRA-LIGAND FREE ENERGY PREDICTED BY IDOCK:   -0.40 KCAL/MOL
REMARK 927      BINDING AFFINITY PREDICTED BY RF-SCORE:    0.00 PKD
ROOT
HETATM    1  N   UNL     1      -7.304   5.475  66.433  1.00  0.00    -0.077 N  
HETATM    2  C   UNL     1      -8.628   5.667  66.694  1.00  0.00    -0.117 C  
HETATM    3  H1  UNL     1      -6.611   5.624  67.166  1.00  0.00     0.000 HD 
HETATM    4  H2  UNL     1      -7.007   5.182  65.503  1.00  0.00     0.000 HD 
HETATM    5  O   UNL     1      -9.464   5.489  65.813  1.00  0.00    -0.141 OA 
ENDROOT
BRANCH   2   6
HETATM    6  C   UNL     1      -8.986   5.940  68.171  1.00  0.00    -0.115 C  
HETATM    7  C   UNL     1     -10.472   6.374  68.276  1.00  0.00    -0.270 C  
HETATM    8  C   UNL     1     -10.804   7.180  69.545  1.00  0.00    -0.244 C  
HETATM    9  C   UNL     1      -9.640   8.098  69.983  1.00  0.00    -0.171 C  
HETATM   10  C   UNL     1      -8.663   8.276  68.831  1.00  0.00    -0.137 C  
HETATM   11  N   UNL     1      -8.081   6.941  68.785  1.00  0.00    -0.119 N  
HETATM   12  C   UNL     1      -7.827   6.658  70.176  1.00  0.00    -0.107 C  
HETATM   13  N   UNL     1      -8.830   7.329  70.917  1.00  0.00    -0.148 N  
HETATM   14  O   UNL     1      -6.866   6.053  70.622  1.00  0.00    -0.054 OA 
BRANCH  13  15
HETATM   15  O   UNL     1      -8.259   8.123  71.947  1.00  0.00    -0.117 OA 
HETATM   16  S   UNL     1      -8.854   7.770  73.434  1.00  0.00    -0.270 S  
HETATM   17  O   UNL     1     -10.302   7.795  73.371  1.00  0.00    -0.332 OA 
HETATM   18  O   UNL     1      -8.128   8.567  74.397  1.00  0.00    -0.312 OA 
HETATM   19  O   UNL     1      -8.389   6.245  73.671  1.00  0.00    -0.119 OA 
ENDBRANCH  13  15
ENDBRANCH   2   6
TORSDOF 2
ENDMDL
MODEL      153
REMARK 921   NORMALIZED FREE ENERGY PREDICTED BY IDOCK:   -2.56 KCAL/MOL
REMARK 922        TOTAL FREE ENERGY PREDICTED BY IDOCK:   -3.24 KCAL/MOL
REMARK 923 INTER-LIGAND FREE ENERGY PREDICTED BY IDOCK:   -2.83 KCAL/MOL
REMARK 924 INTRA-LIGAND FREE ENERGY PREDICTED BY IDOCK:   -0.41 KCAL/MOL
REMARK 927      BINDING AFFINITY PREDICTED BY RF-SCORE:    0.00 PKD
ROOT
HETATM    1  N   UNL     1      -8.566   7.030  70.492  1.00  0.00    -0.140 N  
HETATM    2  C   UNL     1      -9.192   8.185  70.129  1.00  0.00    -0.155 C  
HETATM    3  H1  UNL     1      -8.345   6.325  69.789  1.00  0.00     0.000 HD 
HETATM    4  H2  UNL     1      -8.320   6.870  71.468  1.00  0.00     0.000 HD 
HETATM    5  O   UNL     1      -9.459   9.034  70.975  1.00  0.00    -0.229 OA 
ENDROOT
BRANCH   2   6
HETATM    6  C   UNL     1      -9.365   8.404  68.612  1.00  0.00    -0.143 C  
HETATM    7  C   UNL     1      -8.864   7.152  67.844  1.00  0.00    -0.124 C  
HETATM    8  C   UNL     1      -8.469   7.428  66.381  1.00  0.00    -0.129 C  
HETATM    9  C   UNL     1      -7.833   8.824  66.193  1.00  0.00    -0.102 C  
HETATM   10  C   UNL     1      -7.387   9.372  67.540  1.00  0.00    -0.084 C  
HETATM   11  N   UNL     1      -8.685   9.637  68.148  1.00  0.00    -0.120 N  
HETATM   12  C   UNL     1      -9.408  10.285  67.081  1.00  0.00    -0.153 C  
HETATM   13  N   UNL     1      -8.920   9.737  65.869  1.00  0.00    -0.148 N  
HETATM   14  O   UNL     1     -10.199  11.204  67.205  1.00  0.00    -0.184 OA 
BRANCH  13  15
HETATM   15  O   UNL     1      -8.537  10.763  64.963  1.00  0.00    -0.174 OA 
HETATM   16  S   UNL     1      -9.319  10.672  63.524  1.00  0.00    -0.319 S  
HETATM   17  O   UNL     1      -9.190   9.321  63.013  1.00  0.00    -0.098 OA 
HETATM   18  O   UNL     1      -8.920  11.817  62.737  1.00  0.00    -0.246 OA 
HETATM   19  O   UNL     1     -10.862  10.913  63.920  1.00  0.00    -0.283 OA 
ENDBRANCH  13  15
ENDBRANCH   2   6
TORSDOF 2
ENDMDL
MODEL      154
REMARK 921   NORMALIZED FREE ENERGY PREDICTED BY IDOCK:   -2.56 KCAL/MOL
REMARK 922        TOTAL FREE ENERGY PREDICTED BY IDOCK:   -3.24 KCAL/MOL
REMARK 923 INTER-LIGAND FREE ENERGY PREDICTED BY IDOCK:   -2.84 KCAL/MOL
REMARK 924 INTRA-LIGAND FREE ENERGY PREDICTED BY IDOCK:   -0.39 KCAL/MOL
REMARK 927      BINDING AFFINITY PREDICTED BY RF-SCORE:    0.00 PKD
ROOT
HETATM    1  N   UNL     1      -8.469  13.191  66.753  1.00  0.00    -0.426 N  
HETATM    2  C   UNL     1      -7.763  12.438  67.643  1.00  0.00    -0.151 C  
HETATM    3  H1  UNL     1      -9.202  12.764  66.188  1.00  0.00     0.000 HD 
HETATM    4  H2  UNL     1      -8.263  14.185  66.651  1.00  0.00     0.000 HD 
HETATM    5  O   UNL     1      -6.880  12.953  68.323  1.00  0.00    -0.075 OA 
ENDROOT
BRANCH   2   6
HETATM    6  C   UNL     1      -8.266  10.994  67.843  1.00  0.00    -0.119 C  
HETATM    7  C   UNL     1      -7.568  10.365  69.079  1.00  0.00    -0.108 C  
HETATM    8  C   UNL     1      -7.546   8.825  69.073  1.00  0.00    -0.090 C  
HETATM    9  C   UNL     1      -7.393   8.242  67.650  1.00  0.00    -0.093 C  
HETATM   10  C   UNL     1      -6.889   9.321  66.703  1.00  0.00    -0.080 C  
HETATM   11  N   UNL     1      -8.074  10.166  66.629  1.00  0.00    -0.118 N  
HETATM   12  C   UNL     1      -9.137   9.206  66.455  1.00  0.00    -0.170 C  
HETATM   13  N   UNL     1      -8.740   8.031  67.139  1.00  0.00    -0.129 N  
HETATM   14  O   UNL     1     -10.127   9.351  65.757  1.00  0.00    -0.288 OA 
BRANCH  13  15
HETATM   15  O   UNL     1      -8.847   6.891  66.298  1.00  0.00    -0.140 OA 
HETATM   16  S   UNL     1      -9.825   5.728  66.916  1.00  0.00    -0.172 S  
HETATM   17  O   UNL     1      -9.412   5.451  68.277  1.00  0.00    -0.111 OA 
HETATM   18  O   UNL     1      -9.929   4.675  65.930  1.00  0.00    -0.197 OA 
HETATM   19  O   UNL     1     -11.269   6.442  66.965  1.00  0.00    -0.373 OA 
ENDBRANCH  13  15
ENDBRANCH   2   6
TORSDOF 2
ENDMDL
MODEL      155
REMARK 921   NORMALIZED FREE ENERGY PREDICTED BY IDOCK:   -2.55 KCAL/MOL
REMARK 922        TOTAL FREE ENERGY PREDICTED BY IDOCK:   -3.22 KCAL/MOL
REMARK 923 INTER-LIGAND FREE ENERGY PREDICTED BY IDOCK:   -3.71 KCAL/MOL
REMARK 924 INTRA-LIGAND FREE ENERGY PREDICTED BY IDOCK:    0.49 KCAL/MOL
REMARK 927      BINDING AFFINITY PREDICTED BY RF-SCORE:    0.00 PKD
ROOT
HETATM    1  N   UNL     1     -10.162   6.183  71.904  1.00  0.00    -0.197 N  
HETATM    2  C   UNL     1      -9.046   6.692  71.308  1.00  0.00    -0.151 C  
HETATM    3  H1  UNL     1     -10.965   6.785  72.087  1.00  0.00     0.000 HD 
HETATM    4  H2  UNL     1     -10.193   5.199  72.169  1.00  0.00     0.000 HD 
HETATM    5  O   UNL     1      -8.079   5.968  71.088  1.00  0.00    -0.117 OA 
ENDROOT
BRANCH   2   6
HETATM    6  C   UNL     1      -9.165   8.142  70.793  1.00  0.00    -0.150 C  
HETATM    7  C   UNL     1     -10.421   8.813  71.412  1.00  0.00    -0.354 C  
HETATM    8  C   UNL     1     -10.959  10.007  70.602  1.00  0.00    -0.392 C  
HETATM    9  C   UNL     1     -10.791   9.812  69.078  1.00  0.00    -0.199 C  
HETATM   10  C   UNL     1     -10.534   8.344  68.773  1.00  0.00    -0.178 C  
HETATM   11  N   UNL     1      -9.187   8.205  69.312  1.00  0.00    -0.151 N  
HETATM   12  C   UNL     1      -8.522   9.383  68.812  1.00  0.00    -0.122 C  
HETATM   13  N   UNL     1      -9.506  10.398  68.722  1.00  0.00    -0.166 N  
HETATM   14  O   UNL     1      -7.364   9.447  68.435  1.00  0.00    -0.076 OA 
BRANCH  13  15
HETATM   15  O   UNL     1      -9.503  10.998  67.434  1.00  0.00    -0.159 OA 
HETATM   16  S   UNL     1     -10.618  12.192  67.282  1.00  0.00    -0.233 S  
HETATM   17  O   UNL     1     -11.903  11.683  67.719  1.00  0.00    -0.564 OA 
HETATM   18  O   UNL     1     -10.448  12.784  65.974  1.00  0.00    -0.265 OA 
HETATM   19  O   UNL     1     -10.129  13.299  68.344  1.00  0.00    -0.238 OA 
ENDBRANCH  13  15
ENDBRANCH   2   6
TORSDOF 2
ENDMDL
MODEL      156
REMARK 921   NORMALIZED FREE ENERGY PREDICTED BY IDOCK:   -2.50 KCAL/MOL
REMARK 922        TOTAL FREE ENERGY PREDICTED BY IDOCK:   -3.16 KCAL/MOL
REMARK 923 INTER-LIGAND FREE ENERGY PREDICTED BY IDOCK:   -2.90 KCAL/MOL
REMARK 924 INTRA-LIGAND FREE ENERGY PREDICTED BY IDOCK:   -0.26 KCAL/MOL
REMARK 927      BINDING AFFINITY PREDICTED BY RF-SCORE:    0.00 PKD
ROOT
HETATM    1  N   UNL     1      -7.590   9.895  66.532  1.00  0.00    -0.102 N  
HETATM    2  C   UNL     1      -6.976  10.809  67.336  1.00  0.00    -0.083 C  
HETATM    3  H1  UNL     1      -8.268  10.200  65.834  1.00  0.00     0.000 HD 
HETATM    4  H2  UNL     1      -7.372   8.904  66.630  1.00  0.00     0.000 HD 
HETATM    5  O   UNL     1      -6.161  10.442  68.177  1.00  0.00    -0.044 OA 
ENDROOT
BRANCH   2   6
HETATM    6  C   UNL     1      -7.246  12.289  66.992  1.00  0.00    -0.037 C  
HETATM    7  C   UNL     1      -6.014  13.148  67.384  1.00  0.00    -0.009 C  
HETATM    8  C   UNL     1      -6.332  14.637  67.611  1.00  0.00    -0.133 C  
HETATM    9  C   UNL     1      -7.726  14.854  68.241  1.00  0.00    -0.113 C  
HETATM   10  C   UNL     1      -8.226  13.552  68.848  1.00  0.00     0.149 C  
HETATM   11  N   UNL     1      -8.486  12.790  67.633  1.00  0.00    -0.165 N  
HETATM   12  C   UNL     1      -9.175  13.746  66.801  1.00  0.00    -0.244 C  
HETATM   13  N   UNL     1      -8.662  15.022  67.138  1.00  0.00    -0.205 N  
HETATM   14  O   UNL     1     -10.099  13.503  66.043  1.00  0.00    -0.297 OA 
BRANCH  13  15
HETATM   15  O   UNL     1      -9.712  15.934  67.429  1.00  0.00    -0.225 OA 
HETATM   16  S   UNL     1      -9.822  17.154  66.337  1.00  0.00    -0.301 S  
HETATM   17  O   UNL     1      -8.512  17.755  66.182  1.00  0.00    -0.447 OA 
HETATM   18  O   UNL     1     -10.979  17.948  66.685  1.00  0.00    -0.082 OA 
HETATM   19  O   UNL     1     -10.193  16.396  64.965  1.00  0.00    -0.566 OA 
ENDBRANCH  13  15
ENDBRANCH   2   6
TORSDOF 2
ENDMDL
MODEL      157
REMARK 921   NORMALIZED FREE ENERGY PREDICTED BY IDOCK:   -2.50 KCAL/MOL
REMARK 922        TOTAL FREE ENERGY PREDICTED BY IDOCK:   -3.16 KCAL/MOL
REMARK 923 INTER-LIGAND FREE ENERGY PREDICTED BY IDOCK:   -2.76 KCAL/MOL
REMARK 924 INTRA-LIGAND FREE ENERGY PREDICTED BY IDOCK:   -0.40 KCAL/MOL
REMARK 927      BINDING AFFINITY PREDICTED BY RF-SCORE:    0.00 PKD
ROOT
HETATM    1  N   UNL     1      -7.146  11.366  66.087  1.00  0.00    -0.368 N  
HETATM    2  C   UNL     1      -8.468  11.031  66.081  1.00  0.00    -0.168 C  
HETATM    3  H1  UNL     1      -6.433  10.637  66.114  1.00  0.00     0.000 HD 
HETATM    4  H2  UNL     1      -6.870  12.347  66.065  1.00  0.00     0.000 HD 
HETATM    5  O   UNL     1      -9.326  11.908  66.049  1.00  0.00    -0.229 OA 
ENDROOT
BRANCH   2   6
HETATM    6  C   UNL     1      -8.775   9.525  65.942  1.00  0.00    -0.147 C  
HETATM    7  C   UNL     1     -10.200   9.232  66.482  1.00  0.00    -0.316 C  
HETATM    8  C   UNL     1     -10.422   7.769  66.908  1.00  0.00    -0.388 C  
HETATM    9  C   UNL     1      -9.156   7.134  67.525  1.00  0.00    -0.123 C  
HETATM   10  C   UNL     1      -8.177   8.226  67.929  1.00  0.00    -0.128 C  
HETATM   11  N   UNL     1      -7.754   8.686  66.613  1.00  0.00    -0.095 N  
HETATM   12  C   UNL     1      -7.520   7.451  65.906  1.00  0.00    -0.080 C  
HETATM   13  N   UNL     1      -8.430   6.503  66.432  1.00  0.00    -0.119 N  
HETATM   14  O   UNL     1      -6.631   7.245  65.097  1.00  0.00    -0.043 OA 
BRANCH  13  15
HETATM   15  O   UNL     1      -7.760   5.311  66.820  1.00  0.00    -0.094 OA 
HETATM   16  S   UNL     1      -8.347   3.973  66.074  1.00  0.00    -0.109 S  
HETATM   17  O   UNL     1      -9.787   3.948  66.236  1.00  0.00    -0.191 OA 
HETATM   18  O   UNL     1      -7.523   2.854  66.474  1.00  0.00    -0.072 OA 
HETATM   19  O   UNL     1      -8.021   4.239  64.519  1.00  0.00    -0.087 OA 
ENDBRANCH  13  15
ENDBRANCH   2   6
TORSDOF 2
ENDMDL
MODEL      158
REMARK 921   NORMALIZED FREE ENERGY PREDICTED BY IDOCK:   -2.49 KCAL/MOL
REMARK 922        TOTAL FREE ENERGY PREDICTED BY IDOCK:   -3.16 KCAL/MOL
REMARK 923 INTER-LIGAND FREE ENERGY PREDICTED BY IDOCK:   -2.79 KCAL/MOL
REMARK 924 INTRA-LIGAND FREE ENERGY PREDICTED BY IDOCK:   -0.37 KCAL/MOL
REMARK 927      BINDING AFFINITY PREDICTED BY RF-SCORE:    0.00 PKD
ROOT
HETATM    1  N   UNL     1      -9.911   7.644  73.824  1.00  0.00    -0.361 N  
HETATM    2  C   UNL     1     -10.406   7.190  72.637  1.00  0.00    -0.215 C  
HETATM    3  H1  UNL     1      -8.978   8.053  73.867  1.00  0.00     0.000 HD 
HETATM    4  H2  UNL     1     -10.475   7.573  74.670  1.00  0.00     0.000 HD 
HETATM    5  O   UNL     1     -11.529   6.697  72.585  1.00  0.00    -0.251 OA 
ENDROOT
BRANCH   2   6
HETATM    6  C   UNL     1      -9.547   7.501  71.393  1.00  0.00    -0.155 C  
HETATM    7  C   UNL     1      -9.344   9.034  71.269  1.00  0.00    -0.324 C  
HETATM    8  C   UNL     1      -9.004   9.510  69.845  1.00  0.00    -0.231 C  
HETATM    9  C   UNL     1      -9.721   8.680  68.756  1.00  0.00    -0.166 C  
HETATM   10  C   UNL     1     -10.875   7.907  69.376  1.00  0.00    -0.106 C  
HETATM   11  N   UNL     1     -10.133   6.926  70.158  1.00  0.00    -0.182 N  
HETATM   12  C   UNL     1      -9.118   6.486  69.232  1.00  0.00    -0.137 C  
HETATM   13  N   UNL     1      -8.819   7.592  68.400  1.00  0.00    -0.130 N  
HETATM   14  O   UNL     1      -8.690   5.349  69.124  1.00  0.00    -0.101 OA 
BRANCH  13  15
HETATM   15  O   UNL     1      -8.893   7.232  67.027  1.00  0.00    -0.123 OA 
HETATM   16  S   UNL     1      -7.492   7.505  66.218  1.00  0.00    -0.085 S  
HETATM   17  O   UNL     1      -7.068   8.868  66.474  1.00  0.00    -0.082 OA 
HETATM   18  O   UNL     1      -7.663   7.009  64.870  1.00  0.00    -0.099 OA 
HETATM   19  O   UNL     1      -6.446   6.511  66.933  1.00  0.00    -0.040 OA 
ENDBRANCH  13  15
ENDBRANCH   2   6
TORSDOF 2
ENDMDL
MODEL      159
REMARK 921   NORMALIZED FREE ENERGY PREDICTED BY IDOCK:   -2.48 KCAL/MOL
REMARK 922        TOTAL FREE ENERGY PREDICTED BY IDOCK:   -3.14 KCAL/MOL
REMARK 923 INTER-LIGAND FREE ENERGY PREDICTED BY IDOCK:   -2.79 KCAL/MOL
REMARK 924 INTRA-LIGAND FREE ENERGY PREDICTED BY IDOCK:   -0.35 KCAL/MOL
REMARK 927      BINDING AFFINITY PREDICTED BY RF-SCORE:    0.00 PKD
ROOT
HETATM    1  N   UNL     1      -8.413  12.581  68.582  1.00  0.00    -0.357 N  
HETATM    2  C   UNL     1      -9.354  11.765  68.028  1.00  0.00    -0.184 C  
HETATM    3  H1  UNL     1      -7.540  12.190  68.935  1.00  0.00     0.000 HD 
HETATM    4  H2  UNL     1      -8.582  13.584  68.645  1.00  0.00     0.000 HD 
HETATM    5  O   UNL     1     -10.406  12.236  67.604  1.00  0.00    -0.200 OA 
ENDROOT
BRANCH   2   6
HETATM    6  C   UNL     1      -8.930  10.296  67.826  1.00  0.00    -0.134 C  
HETATM    7  C   UNL     1      -7.581  10.243  67.059  1.00  0.00    -0.099 C  
HETATM    8  C   UNL     1      -7.326   8.913  66.326  1.00  0.00    -0.087 C  
HETATM    9  C   UNL     1      -8.622   8.289  65.764  1.00  0.00    -0.161 C  
HETATM   10  C   UNL     1      -9.720   9.341  65.714  1.00  0.00    -0.269 C  
HETATM   11  N   UNL     1      -9.979   9.505  67.138  1.00  0.00    -0.191 N  
HETATM   12  C   UNL     1     -10.025   8.143  67.611  1.00  0.00    -0.185 C  
HETATM   13  N   UNL     1      -9.138   7.399  66.795  1.00  0.00    -0.145 N  
HETATM   14  O   UNL     1     -10.772   7.707  68.471  1.00  0.00    -0.158 OA 
BRANCH  13  15
HETATM   15  O   UNL     1      -9.777   6.244  66.268  1.00  0.00    -0.136 OA 
HETATM   16  S   UNL     1      -8.923   4.867  66.523  1.00  0.00    -0.115 S  
HETATM   17  O   UNL     1      -7.561   5.077  66.070  1.00  0.00    -0.085 OA 
HETATM   18  O   UNL     1      -9.718   3.763  66.034  1.00  0.00    -0.183 OA 
HETATM   19  O   UNL     1      -8.902   4.731  68.128  1.00  0.00    -0.102 OA 
ENDBRANCH  13  15
ENDBRANCH   2   6
TORSDOF 2
ENDMDL
MODEL      160
REMARK 921   NORMALIZED FREE ENERGY PREDICTED BY IDOCK:   -2.45 KCAL/MOL
REMARK 922        TOTAL FREE ENERGY PREDICTED BY IDOCK:   -3.11 KCAL/MOL
REMARK 923 INTER-LIGAND FREE ENERGY PREDICTED BY IDOCK:   -2.72 KCAL/MOL
REMARK 924 INTRA-LIGAND FREE ENERGY PREDICTED BY IDOCK:   -0.39 KCAL/MOL
REMARK 927      BINDING AFFINITY PREDICTED BY RF-SCORE:    0.00 PKD
ROOT
HETATM    1  N   UNL     1      -8.827   4.447  72.343  1.00  0.00    -0.112 N  
HETATM    2  C   UNL     1      -8.857   4.569  70.986  1.00  0.00    -0.115 C  
HETATM    3  H1  UNL     1      -8.896   5.275  72.934  1.00  0.00     0.000 HD 
HETATM    4  H2  UNL     1      -8.734   3.525  72.769  1.00  0.00     0.000 HD 
HETATM    5  O   UNL     1      -8.774   3.571  70.275  1.00  0.00    -0.060 OA 
ENDROOT
BRANCH   2   6
HETATM    6  C   UNL     1      -9.173   5.980  70.448  1.00  0.00    -0.156 C  
HETATM    7  C   UNL     1     -10.389   6.569  71.212  1.00  0.00    -0.234 C  
HETATM    8  C   UNL     1     -11.135   7.678  70.448  1.00  0.00    -0.270 C  
HETATM    9  C   UNL     1     -11.156   7.433  68.922  1.00  0.00     0.123 C  
HETATM   10  C   UNL     1     -10.812   5.981  68.629  1.00  0.00    -0.307 C  
HETATM   11  N   UNL     1      -9.399   5.978  68.983  1.00  0.00    -0.124 N  
HETATM   12  C   UNL     1      -8.914   7.186  68.360  1.00  0.00    -0.125 C  
HETATM   13  N   UNL     1      -9.987   8.110  68.375  1.00  0.00    -0.184 N  
HETATM   14  O   UNL     1      -7.827   7.332  67.826  1.00  0.00    -0.110 OA 
BRANCH  13  15
HETATM   15  O   UNL     1     -10.211   8.653  67.081  1.00  0.00    -0.230 OA 
HETATM   16  S   UNL     1     -10.136  10.292  67.053  1.00  0.00    -0.228 S  
HETATM   17  O   UNL     1     -10.999  10.812  68.095  1.00  0.00    -0.215 OA 
HETATM   18  O   UNL     1     -10.279  10.712  65.677  1.00  0.00    -0.255 OA 
HETATM   19  O   UNL     1      -8.610  10.604  67.463  1.00  0.00    -0.122 OA 
ENDBRANCH  13  15
ENDBRANCH   2   6
TORSDOF 2
ENDMDL
MODEL      161
REMARK 921   NORMALIZED FREE ENERGY PREDICTED BY IDOCK:   -2.44 KCAL/MOL
REMARK 922        TOTAL FREE ENERGY PREDICTED BY IDOCK:   -3.10 KCAL/MOL
REMARK 923 INTER-LIGAND FREE ENERGY PREDICTED BY IDOCK:   -2.76 KCAL/MOL
REMARK 924 INTRA-LIGAND FREE ENERGY PREDICTED BY IDOCK:   -0.34 KCAL/MOL
REMARK 927      BINDING AFFINITY PREDICTED BY RF-SCORE:    0.00 PKD
ROOT
HETATM    1  N   UNL     1      -6.985  12.263  69.462  1.00  0.00    -0.334 N  
HETATM    2  C   UNL     1      -7.821  12.010  68.416  1.00  0.00    -0.147 C  
HETATM    3  H1  UNL     1      -6.877  11.578  70.210  1.00  0.00     0.000 HD 
HETATM    4  H2  UNL     1      -6.465  13.140  69.498  1.00  0.00     0.000 HD 
HETATM    5  O   UNL     1      -7.950  12.836  67.517  1.00  0.00    -0.154 OA 
ENDROOT
BRANCH   2   6
HETATM    6  C   UNL     1      -8.423  10.591  68.370  1.00  0.00    -0.128 C  
HETATM    7  C   UNL     1      -9.899  10.666  67.895  1.00  0.00    -0.181 C  
HETATM    8  C   UNL     1     -10.757   9.458  68.315  1.00  0.00    -0.220 C  
HETATM    9  C   UNL     1     -10.362   8.906  69.703  1.00  0.00    -0.212 C  
HETATM   10  C   UNL     1      -9.536   9.941  70.452  1.00  0.00    -0.028 C  
HETATM   11  N   UNL     1      -8.305   9.895  69.673  1.00  0.00    -0.158 N  
HETATM   12  C   UNL     1      -8.086   8.478  69.512  1.00  0.00    -0.111 C  
HETATM   13  N   UNL     1      -9.364   7.871  69.471  1.00  0.00    -0.156 N  
HETATM   14  O   UNL     1      -7.004   7.914  69.525  1.00  0.00    -0.052 OA 
BRANCH  13  15
HETATM   15  O   UNL     1      -9.448   6.796  70.398  1.00  0.00    -0.165 OA 
HETATM   16  S   UNL     1     -10.071   5.429  69.738  1.00  0.00    -0.272 S  
HETATM   17  O   UNL     1     -11.314   5.763  69.070  1.00  0.00    -0.137 OA 
HETATM   18  O   UNL     1     -10.011   4.393  70.744  1.00  0.00    -0.204 OA 
HETATM   19  O   UNL     1      -8.989   5.029  68.615  1.00  0.00    -0.103 OA 
ENDBRANCH  13  15
ENDBRANCH   2   6
TORSDOF 2
ENDMDL
MODEL      162
REMARK 921   NORMALIZED FREE ENERGY PREDICTED BY IDOCK:   -2.38 KCAL/MOL
REMARK 922        TOTAL FREE ENERGY PREDICTED BY IDOCK:   -3.03 KCAL/MOL
REMARK 923 INTER-LIGAND FREE ENERGY PREDICTED BY IDOCK:   -2.69 KCAL/MOL
REMARK 924 INTRA-LIGAND FREE ENERGY PREDICTED BY IDOCK:   -0.35 KCAL/MOL
REMARK 927      BINDING AFFINITY PREDICTED BY RF-SCORE:    0.00 PKD
ROOT
HETATM    1  N   UNL     1     -10.715  14.231  66.645  1.00  0.00    -0.288 N  
HETATM    2  C   UNL     1     -10.584  13.145  65.832  1.00  0.00    -0.280 C  
HETATM    3  H1  UNL     1     -10.425  14.178  67.621  1.00  0.00     0.000 HD 
HETATM    4  H2  UNL     1     -11.105  15.098  66.277  1.00  0.00     0.000 HD 
HETATM    5  O   UNL     1     -10.933  13.208  64.657  1.00  0.00    -0.320 OA 
ENDROOT
BRANCH   2   6
HETATM    6  C   UNL     1      -9.827  11.944  66.438  1.00  0.00    -0.213 C  
HETATM    7  C   UNL     1      -8.306  12.250  66.474  1.00  0.00     0.060 C  
HETATM    8  C   UNL     1      -7.414  10.996  66.525  1.00  0.00    -0.145 C  
HETATM    9  C   UNL     1      -8.002   9.818  65.717  1.00  0.00    -0.116 C  
HETATM   10  C   UNL     1      -9.067  10.331  64.759  1.00  0.00    -0.219 C  
HETATM   11  N   UNL     1     -10.113  10.684  65.710  1.00  0.00    -0.256 N  
HETATM   12  C   UNL     1     -10.137   9.543  66.592  1.00  0.00    -0.252 C  
HETATM   13  N   UNL     1      -8.814   9.041  66.643  1.00  0.00    -0.129 N  
HETATM   14  O   UNL     1     -11.130   9.049  67.099  1.00  0.00     0.016 OA 
BRANCH  13  15
HETATM   15  O   UNL     1      -8.787   7.646  66.375  1.00  0.00    -0.141 OA 
HETATM   16  S   UNL     1      -8.054   6.779  67.559  1.00  0.00    -0.116 S  
HETATM   17  O   UNL     1      -6.762   7.376  67.836  1.00  0.00    -0.057 OA 
HETATM   18  O   UNL     1      -8.180   5.380  67.218  1.00  0.00    -0.104 OA 
HETATM   19  O   UNL     1      -9.002   7.018  68.839  1.00  0.00    -0.130 OA 
ENDBRANCH  13  15
ENDBRANCH   2   6
TORSDOF 2
ENDMDL
MODEL      163
REMARK 921   NORMALIZED FREE ENERGY PREDICTED BY IDOCK:   -2.34 KCAL/MOL
REMARK 922        TOTAL FREE ENERGY PREDICTED BY IDOCK:   -2.98 KCAL/MOL
REMARK 923 INTER-LIGAND FREE ENERGY PREDICTED BY IDOCK:   -2.74 KCAL/MOL
REMARK 924 INTRA-LIGAND FREE ENERGY PREDICTED BY IDOCK:   -0.24 KCAL/MOL
REMARK 927      BINDING AFFINITY PREDICTED BY RF-SCORE:    0.00 PKD
ROOT
HETATM    1  N   UNL     1      -9.652   2.292  65.458  1.00  0.00    -0.354 N  
HETATM    2  C   UNL     1      -9.718   3.557  64.955  1.00  0.00    -0.157 C  
HETATM    3  H1  UNL     1      -9.163   2.114  66.335  1.00  0.00     0.000 HD 
HETATM    4  H2  UNL     1     -10.092   1.521  64.956  1.00  0.00     0.000 HD 
HETATM    5  O   UNL     1     -10.306   3.771  63.899  1.00  0.00    -0.215 OA 
ENDROOT
BRANCH   2   6
HETATM    6  C   UNL     1      -9.172   4.671  65.873  1.00  0.00    -0.144 C  
HETATM    7  C   UNL     1      -7.660   4.439  66.132  1.00  0.00    -0.086 C  
HETATM    8  C   UNL     1      -7.131   5.110  67.413  1.00  0.00    -0.066 C  
HETATM    9  C   UNL     1      -8.175   5.114  68.553  1.00  0.00    -0.089 C  
HETATM   10  C   UNL     1      -9.269   4.100  68.252  1.00  0.00    -0.144 C  
HETATM   11  N   UNL     1      -9.934   4.767  67.141  1.00  0.00    -0.195 N  
HETATM   12  C   UNL     1     -10.039   6.129  67.607  1.00  0.00    -0.155 C  
HETATM   13  N   UNL     1      -8.915   6.362  68.436  1.00  0.00    -0.121 N  
HETATM   14  O   UNL     1     -10.976   6.884  67.410  1.00  0.00    -0.307 OA 
BRANCH  13  15
HETATM   15  O   UNL     1      -9.310   6.897  69.692  1.00  0.00    -0.146 OA 
HETATM   16  S   UNL     1      -8.674   8.381  69.985  1.00  0.00    -0.135 S  
HETATM   17  O   UNL     1      -7.243   8.322  69.766  1.00  0.00    -0.058 OA 
HETATM   18  O   UNL     1      -9.227   8.853  71.235  1.00  0.00    -0.219 OA 
HETATM   19  O   UNL     1      -9.321   9.300  68.831  1.00  0.00    -0.147 OA 
ENDBRANCH  13  15
ENDBRANCH   2   6
TORSDOF 2
ENDMDL
MODEL      164
REMARK 921   NORMALIZED FREE ENERGY PREDICTED BY IDOCK:   -2.33 KCAL/MOL
REMARK 922        TOTAL FREE ENERGY PREDICTED BY IDOCK:   -2.98 KCAL/MOL
REMARK 923 INTER-LIGAND FREE ENERGY PREDICTED BY IDOCK:   -2.60 KCAL/MOL
REMARK 924 INTRA-LIGAND FREE ENERGY PREDICTED BY IDOCK:   -0.38 KCAL/MOL
REMARK 927      BINDING AFFINITY PREDICTED BY RF-SCORE:    0.00 PKD
ROOT
HETATM    1  N   UNL     1      -5.482  15.805  68.037  1.00  0.00    -0.118 N  
HETATM    2  C   UNL     1      -6.622  15.179  68.445  1.00  0.00    -0.101 C  
HETATM    3  H1  UNL     1      -4.988  15.481  67.206  1.00  0.00     0.000 HD 
HETATM    4  H2  UNL     1      -5.121  16.599  68.565  1.00  0.00     0.000 HD 
HETATM    5  O   UNL     1      -7.216  15.569  69.446  1.00  0.00    -0.175 OA 
ENDROOT
BRANCH   2   6
HETATM    6  C   UNL     1      -7.175  14.106  67.484  1.00  0.00    -0.169 C  
HETATM    7  C   UNL     1      -8.705  14.300  67.311  1.00  0.00    -0.230 C  
HETATM    8  C   UNL     1      -9.452  13.033  66.854  1.00  0.00    -0.242 C  
HETATM    9  C   UNL     1      -8.843  11.742  67.445  1.00  0.00    -0.164 C  
HETATM   10  C   UNL     1      -7.955  12.088  68.631  1.00  0.00    -0.082 C  
HETATM   11  N   UNL     1      -6.848  12.733  67.938  1.00  0.00    -0.098 N  
HETATM   12  C   UNL     1      -6.604  11.841  66.831  1.00  0.00    -0.114 C  
HETATM   13  N   UNL     1      -7.853  11.270  66.487  1.00  0.00    -0.152 N  
HETATM   14  O   UNL     1      -5.513  11.556  66.366  1.00  0.00    -0.175 OA 
BRANCH  13  15
HETATM   15  O   UNL     1      -7.766   9.853  66.425  1.00  0.00    -0.101 OA 
HETATM   16  S   UNL     1      -8.217   9.246  64.969  1.00  0.00    -0.155 S  
HETATM   17  O   UNL     1      -9.511   9.799  64.618  1.00  0.00    -0.280 OA 
HETATM   18  O   UNL     1      -7.990   7.819  65.001  1.00  0.00    -0.121 OA 
HETATM   19  O   UNL     1      -7.122   9.853  63.955  1.00  0.00    -0.120 OA 
ENDBRANCH  13  15
ENDBRANCH   2   6
TORSDOF 2
ENDMDL
MODEL      165
REMARK 921   NORMALIZED FREE ENERGY PREDICTED BY IDOCK:   -2.28 KCAL/MOL
REMARK 922        TOTAL FREE ENERGY PREDICTED BY IDOCK:   -2.92 KCAL/MOL
REMARK 923 INTER-LIGAND FREE ENERGY PREDICTED BY IDOCK:   -2.52 KCAL/MOL
REMARK 924 INTRA-LIGAND FREE ENERGY PREDICTED BY IDOCK:   -0.40 KCAL/MOL
REMARK 927      BINDING AFFINITY PREDICTED BY RF-SCORE:    0.00 PKD
ROOT
HETATM    1  N   UNL     1      -6.806   8.910  71.205  1.00  0.00    -0.078 N  
HETATM    2  C   UNL     1      -8.114   8.527  71.191  1.00  0.00    -0.133 C  
HETATM    3  H1  UNL     1      -6.184   8.634  70.445  1.00  0.00     0.000 HD 
HETATM    4  H2  UNL     1      -6.449   9.472  71.977  1.00  0.00     0.000 HD 
HETATM    5  O   UNL     1      -8.864   8.857  72.105  1.00  0.00    -0.381 OA 
ENDROOT
BRANCH   2   6
HETATM    6  C   UNL     1      -8.593   7.830  69.900  1.00  0.00    -0.137 C  
HETATM    7  C   UNL     1     -10.058   7.349  70.080  1.00  0.00    -0.191 C  
HETATM    8  C   UNL     1     -10.464   6.203  69.136  1.00  0.00    -0.310 C  
HETATM    9  C   UNL     1      -9.300   5.224  68.860  1.00  0.00    -0.124 C  
HETATM   10  C   UNL     1      -8.211   5.411  69.906  1.00  0.00    -0.096 C  
HETATM   11  N   UNL     1      -7.698   6.715  69.507  1.00  0.00    -0.102 N  
HETATM   12  C   UNL     1      -7.591   6.588  68.074  1.00  0.00    -0.103 C  
HETATM   13  N   UNL     1      -8.623   5.708  67.665  1.00  0.00    -0.109 N  
HETATM   14  O   UNL     1      -6.710   7.061  67.376  1.00  0.00    -0.062 OA 
BRANCH  13  15
HETATM   15  O   UNL     1      -8.109   4.663  66.851  1.00  0.00    -0.102 OA 
HETATM   16  S   UNL     1      -8.816   4.596  65.372  1.00  0.00    -0.147 S  
HETATM   17  O   UNL     1     -10.255   4.587  65.548  1.00  0.00    -0.230 OA 
HETATM   18  O   UNL     1      -8.143   3.566  64.613  1.00  0.00    -0.089 OA 
HETATM   19  O   UNL     1      -8.402   5.998  64.695  1.00  0.00    -0.131 OA 
ENDBRANCH  13  15
ENDBRANCH   2   6
TORSDOF 2
ENDMDL
MODEL      166
REMARK 921   NORMALIZED FREE ENERGY PREDICTED BY IDOCK:   -2.26 KCAL/MOL
REMARK 922        TOTAL FREE ENERGY PREDICTED BY IDOCK:   -2.89 KCAL/MOL
REMARK 923 INTER-LIGAND FREE ENERGY PREDICTED BY IDOCK:   -2.82 KCAL/MOL
REMARK 924 INTRA-LIGAND FREE ENERGY PREDICTED BY IDOCK:   -0.07 KCAL/MOL
REMARK 927      BINDING AFFINITY PREDICTED BY RF-SCORE:    0.00 PKD
ROOT
HETATM    1  N   UNL     1      -6.225   6.779  69.269  1.00  0.00    -0.026 N  
HETATM    2  C   UNL     1      -7.497   6.333  69.062  1.00  0.00    -0.091 C  
HETATM    3  H1  UNL     1      -5.928   7.676  68.886  1.00  0.00     0.000 HD 
HETATM    4  H2  UNL     1      -5.569   6.213  69.807  1.00  0.00     0.000 HD 
HETATM    5  O   UNL     1      -7.855   5.253  69.523  1.00  0.00    -0.081 OA 
ENDROOT
BRANCH   2   6
HETATM    6  C   UNL     1      -8.455   7.337  68.388  1.00  0.00    -0.125 C  
HETATM    7  C   UNL     1      -9.063   6.699  67.110  1.00  0.00    -0.132 C  
HETATM    8  C   UNL     1      -9.574   7.722  66.078  1.00  0.00    -0.006 C  
HETATM    9  C   UNL     1      -8.706   9.000  66.033  1.00  0.00    -0.160 C  
HETATM   10  C   UNL     1      -7.364   8.734  66.699  1.00  0.00    -0.082 C  
HETATM   11  N   UNL     1      -7.788   8.626  68.089  1.00  0.00    -0.102 N  
HETATM   12  C   UNL     1      -8.686   9.746  68.233  1.00  0.00    -0.119 C  
HETATM   13  N   UNL     1      -9.300   9.941  66.972  1.00  0.00    -0.145 N  
HETATM   14  O   UNL     1      -8.800  10.451  69.222  1.00  0.00    -0.166 OA 
BRANCH  13  15
HETATM   15  O   UNL     1      -9.188  11.294  66.554  1.00  0.00    -0.177 OA 
HETATM   16  S   UNL     1     -10.484  11.807  65.690  1.00  0.00    -0.275 S  
HETATM   17  O   UNL     1     -10.738  10.855  64.627  1.00  0.00    -0.308 OA 
HETATM   18  O   UNL     1     -10.296  13.214  65.412  1.00  0.00    -0.291 OA 
HETATM   19  O   UNL     1     -11.697  11.716  66.746  1.00  0.00    -0.541 OA 
ENDBRANCH  13  15
ENDBRANCH   2   6
TORSDOF 2
ENDMDL
MODEL      167
REMARK 921   NORMALIZED FREE ENERGY PREDICTED BY IDOCK:   -2.20 KCAL/MOL
REMARK 922        TOTAL FREE ENERGY PREDICTED BY IDOCK:   -2.83 KCAL/MOL
REMARK 923 INTER-LIGAND FREE ENERGY PREDICTED BY IDOCK:   -2.44 KCAL/MOL
REMARK 924 INTRA-LIGAND FREE ENERGY PREDICTED BY IDOCK:   -0.40 KCAL/MOL
REMARK 927      BINDING AFFINITY PREDICTED BY RF-SCORE:    0.00 PKD
ROOT
HETATM    1  N   UNL     1      -9.224   7.941  71.219  1.00  0.00    -0.144 N  
HETATM    2  C   UNL     1      -8.354   8.170  70.194  1.00  0.00    -0.125 C  
HETATM    3  H1  UNL     1     -10.069   8.503  71.308  1.00  0.00     0.000 HD 
HETATM    4  H2  UNL     1      -9.028   7.205  71.897  1.00  0.00     0.000 HD 
HETATM    5  O   UNL     1      -7.336   7.493  70.086  1.00  0.00    -0.074 OA 
ENDROOT
BRANCH   2   6
HETATM    6  C   UNL     1      -8.826   9.183  69.130  1.00  0.00    -0.146 C  
HETATM    7  C   UNL     1     -10.083   9.933  69.646  1.00  0.00    -0.254 C  
HETATM    8  C   UNL     1     -10.955  10.540  68.532  1.00  0.00    -0.300 C  
HETATM    9  C   UNL     1     -10.979   9.665  67.258  1.00  0.00    -0.037 C  
HETATM   10  C   UNL     1     -10.490   8.263  67.587  1.00  0.00    -0.235 C  
HETATM   11  N   UNL     1      -9.078   8.535  67.821  1.00  0.00    -0.135 N  
HETATM   12  C   UNL     1      -8.735   9.397  66.716  1.00  0.00    -0.127 C  
HETATM   13  N   UNL     1      -9.899  10.141  66.405  1.00  0.00    -0.210 N  
HETATM   14  O   UNL     1      -7.680   9.394  66.105  1.00  0.00    -0.098 OA 
BRANCH  13  15
HETATM   15  O   UNL     1     -10.203  10.058  65.019  1.00  0.00    -0.280 OA 
HETATM   16  S   UNL     1     -10.388  11.527  64.314  1.00  0.00    -0.355 S  
HETATM   17  O   UNL     1     -11.324  12.304  65.103  1.00  0.00    -0.311 OA 
HETATM   18  O   UNL     1     -10.592  11.310  62.899  1.00  0.00    -0.149 OA 
HETATM   19  O   UNL     1      -8.931  12.199  64.460  1.00  0.00     0.542 OA 
ENDBRANCH  13  15
ENDBRANCH   2   6
TORSDOF 2
ENDMDL
MODEL      168
REMARK 921   NORMALIZED FREE ENERGY PREDICTED BY IDOCK:   -2.13 KCAL/MOL
REMARK 922        TOTAL FREE ENERGY PREDICTED BY IDOCK:   -2.75 KCAL/MOL
REMARK 923 INTER-LIGAND FREE ENERGY PREDICTED BY IDOCK:   -2.52 KCAL/MOL
REMARK 924 INTRA-LIGAND FREE ENERGY PREDICTED BY IDOCK:   -0.23 KCAL/MOL
REMARK 927      BINDING AFFINITY PREDICTED BY RF-SCORE:    0.00 PKD
ROOT
HETATM    1  N   UNL     1     -10.547   4.868  74.528  1.00  0.00    -0.246 N  
HETATM    2  C   UNL     1     -10.012   4.414  73.360  1.00  0.00    -0.136 C  
HETATM    3  H1  UNL     1     -10.272   5.779  74.897  1.00  0.00     0.000 HD 
HETATM    4  H2  UNL     1     -11.223   4.297  75.035  1.00  0.00     0.000 HD 
HETATM    5  O   UNL     1     -10.342   3.318  72.915  1.00  0.00    -0.153 OA 
ENDROOT
BRANCH   2   6
HETATM    6  C   UNL     1      -9.137   5.423  72.588  1.00  0.00    -0.135 C  
HETATM    7  C   UNL     1      -7.804   5.648  73.351  1.00  0.00    -0.110 C  
HETATM    8  C   UNL     1      -7.106   6.980  73.019  1.00  0.00    -0.073 C  
HETATM    9  C   UNL     1      -8.111   8.123  72.751  1.00  0.00    -0.165 C  
HETATM   10  C   UNL     1      -9.480   7.743  73.293  1.00  0.00    -0.283 C  
HETATM   11  N   UNL     1      -9.848   6.701  72.343  1.00  0.00    -0.159 N  
HETATM   12  C   UNL     1      -9.486   7.286  71.075  1.00  0.00    -0.158 C  
HETATM   13  N   UNL     1      -8.370   8.124  71.318  1.00  0.00    -0.112 N  
HETATM   14  O   UNL     1     -10.099   7.165  70.028  1.00  0.00    -0.185 OA 
BRANCH  13  15
HETATM   15  O   UNL     1      -8.585   9.426  70.790  1.00  0.00    -0.209 OA 
HETATM   16  S   UNL     1      -7.374   9.925  69.802  1.00  0.00    -0.147 S  
HETATM   17  O   UNL     1      -6.111   9.742  70.490  1.00  0.00    -0.059 OA 
HETATM   18  O   UNL     1      -7.756  11.208  69.256  1.00  0.00    -0.109 OA 
HETATM   19  O   UNL     1      -7.435   8.879  68.578  1.00  0.00    -0.083 OA 
ENDBRANCH  13  15
ENDBRANCH   2   6
TORSDOF 2
ENDMDL
MODEL      169
REMARK 921   NORMALIZED FREE ENERGY PREDICTED BY IDOCK:   -2.03 KCAL/MOL
REMARK 922        TOTAL FREE ENERGY PREDICTED BY IDOCK:   -2.64 KCAL/MOL
REMARK 923 INTER-LIGAND FREE ENERGY PREDICTED BY IDOCK:   -2.27 KCAL/MOL
REMARK 924 INTRA-LIGAND FREE ENERGY PREDICTED BY IDOCK:   -0.37 KCAL/MOL
REMARK 927      BINDING AFFINITY PREDICTED BY RF-SCORE:    0.00 PKD
ROOT
HETATM    1  N   UNL     1      -8.702  12.182  68.557  1.00  0.00    -0.323 N  
HETATM    2  C   UNL     1      -9.474  11.061  68.629  1.00  0.00    -0.195 C  
HETATM    3  H1  UNL     1      -7.773  12.139  68.138  1.00  0.00     0.000 HD 
HETATM    4  H2  UNL     1      -9.054  13.067  68.923  1.00  0.00     0.000 HD 
HETATM    5  O   UNL     1     -10.592  11.113  69.134  1.00  0.00    -0.213 OA 
ENDROOT
BRANCH   2   6
HETATM    6  C   UNL     1      -8.923   9.821  67.894  1.00  0.00    -0.118 C  
HETATM    7  C   UNL     1      -9.946   9.351  66.826  1.00  0.00    -0.305 C  
HETATM    8  C   UNL     1      -9.797   7.873  66.421  1.00  0.00    -0.217 C  
HETATM    9  C   UNL     1      -9.364   6.977  67.603  1.00  0.00    -0.122 C  
HETATM   10  C   UNL     1      -9.607   7.705  68.917  1.00  0.00    -0.150 C  
HETATM   11  N   UNL     1      -8.575   8.729  68.834  1.00  0.00    -0.135 N  
HETATM   12  C   UNL     1      -7.423   7.982  68.391  1.00  0.00    -0.103 C  
HETATM   13  N   UNL     1      -7.909   6.929  67.579  1.00  0.00    -0.110 N  
HETATM   14  O   UNL     1      -6.270   8.163  68.746  1.00  0.00    -0.042 OA 
BRANCH  13  15
HETATM   15  O   UNL     1      -7.383   5.677  67.999  1.00  0.00    -0.071 OA 
HETATM   16  S   UNL     1      -6.623   4.864  66.794  1.00  0.00    -0.051 S  
HETATM   17  O   UNL     1      -7.507   4.806  65.646  1.00  0.00    -0.079 OA 
HETATM   18  O   UNL     1      -6.052   3.666  67.367  1.00  0.00    -0.027 OA 
HETATM   19  O   UNL     1      -5.381   5.821  66.422  1.00  0.00    -0.009 OA 
ENDBRANCH  13  15
ENDBRANCH   2   6
TORSDOF 2
ENDMDL
MODEL      170
REMARK 921   NORMALIZED FREE ENERGY PREDICTED BY IDOCK:   -2.03 KCAL/MOL
REMARK 922        TOTAL FREE ENERGY PREDICTED BY IDOCK:   -2.64 KCAL/MOL
REMARK 923 INTER-LIGAND FREE ENERGY PREDICTED BY IDOCK:   -2.34 KCAL/MOL
REMARK 924 INTRA-LIGAND FREE ENERGY PREDICTED BY IDOCK:   -0.30 KCAL/MOL
REMARK 927      BINDING AFFINITY PREDICTED BY RF-SCORE:    0.00 PKD
ROOT
HETATM    1  N   UNL     1      -9.118  11.824  67.669  1.00  0.00    -0.171 N  
HETATM    2  C   UNL     1     -10.016  10.829  67.422  1.00  0.00    -0.184 C  
HETATM    3  H1  UNL     1      -8.426  11.718  68.410  1.00  0.00     0.000 HD 
HETATM    4  H2  UNL     1      -9.138  12.678  67.110  1.00  0.00     0.000 HD 
HETATM    5  O   UNL     1     -10.850  10.957  66.530  1.00  0.00    -0.242 OA 
ENDROOT
BRANCH   2   6
HETATM    6  C   UNL     1      -9.791   9.517  68.203  1.00  0.00    -0.155 C  
HETATM    7  C   UNL     1      -9.593   9.834  69.709  1.00  0.00    -0.256 C  
HETATM    8  C   UNL     1      -8.838   8.741  70.488  1.00  0.00    -0.200 C  
HETATM    9  C   UNL     1      -7.747   8.055  69.636  1.00  0.00    -0.102 C  
HETATM   10  C   UNL     1      -7.428   8.912  68.420  1.00  0.00    -0.086 C  
HETATM   11  N   UNL     1      -8.657   8.735  67.656  1.00  0.00    -0.127 N  
HETATM   12  C   UNL     1      -8.885   7.313  67.751  1.00  0.00    -0.124 C  
HETATM   13  N   UNL     1      -8.373   6.902  69.005  1.00  0.00    -0.124 N  
HETATM   14  O   UNL     1      -9.330   6.598  66.869  1.00  0.00    -0.138 OA 
BRANCH  13  15
HETATM   15  O   UNL     1      -7.491   5.797  68.858  1.00  0.00    -0.081 OA 
HETATM   16  S   UNL     1      -7.857   4.548  69.857  1.00  0.00    -0.060 S  
HETATM   17  O   UNL     1      -7.982   5.058  71.208  1.00  0.00    -0.103 OA 
HETATM   18  O   UNL     1      -6.958   3.460  69.543  1.00  0.00    -0.040 OA 
HETATM   19  O   UNL     1      -9.316   4.084  69.358  1.00  0.00    -0.141 OA 
ENDBRANCH  13  15
ENDBRANCH   2   6
TORSDOF 2
ENDMDL
MODEL      171
REMARK 921   NORMALIZED FREE ENERGY PREDICTED BY IDOCK:   -1.98 KCAL/MOL
REMARK 922        TOTAL FREE ENERGY PREDICTED BY IDOCK:   -2.59 KCAL/MOL
REMARK 923 INTER-LIGAND FREE ENERGY PREDICTED BY IDOCK:   -2.20 KCAL/MOL
REMARK 924 INTRA-LIGAND FREE ENERGY PREDICTED BY IDOCK:   -0.39 KCAL/MOL
REMARK 927      BINDING AFFINITY PREDICTED BY RF-SCORE:    0.00 PKD
ROOT
HETATM    1  N   UNL     1      -7.215   7.650  69.776  1.00  0.00    -0.077 N  
HETATM    2  C   UNL     1      -7.306   6.292  69.693  1.00  0.00    -0.080 C  
HETATM    3  H1  UNL     1      -7.212   8.216  68.928  1.00  0.00     0.000 HD 
HETATM    4  H2  UNL     1      -7.148   8.100  70.689  1.00  0.00     0.000 HD 
HETATM    5  O   UNL     1      -7.308   5.610  70.714  1.00  0.00    -0.078 OA 
ENDROOT
BRANCH   2   6
HETATM    6  C   UNL     1      -7.575   5.725  68.284  1.00  0.00    -0.085 C  
HETATM    7  C   UNL     1      -6.930   6.651  67.217  1.00  0.00    -0.078 C  
HETATM    8  C   UNL     1      -7.559   6.530  65.817  1.00  0.00    -0.085 C  
HETATM    9  C   UNL     1      -9.081   6.266  65.873  1.00  0.00    -0.067 C  
HETATM   10  C   UNL     1      -9.613   6.611  67.255  1.00  0.00    -0.132 C  
HETATM   11  N   UNL     1      -9.023   5.529  68.032  1.00  0.00    -0.108 N  
HETATM   12  C   UNL     1      -9.276   4.373  67.207  1.00  0.00    -0.143 C  
HETATM   13  N   UNL     1      -9.254   4.820  65.863  1.00  0.00    -0.142 N  
HETATM   14  O   UNL     1      -9.565   3.257  67.605  1.00  0.00    -0.206 OA 
BRANCH  13  15
HETATM   15  O   UNL     1     -10.419   4.400  65.167  1.00  0.00    -0.236 OA 
HETATM   16  S   UNL     1     -10.083   3.498  63.839  1.00  0.00    -0.223 S  
HETATM   17  O   UNL     1      -9.108   4.207  63.033  1.00  0.00    -0.111 OA 
HETATM   18  O   UNL     1     -11.341   3.055  63.282  1.00  0.00    -0.218 OA 
HETATM   19  O   UNL     1      -9.373   2.187  64.447  1.00  0.00    -0.127 OA 
ENDBRANCH  13  15
ENDBRANCH   2   6
TORSDOF 2
ENDMDL
MODEL      172
REMARK 921   NORMALIZED FREE ENERGY PREDICTED BY IDOCK:   -1.88 KCAL/MOL
REMARK 922        TOTAL FREE ENERGY PREDICTED BY IDOCK:   -2.48 KCAL/MOL
REMARK 923 INTER-LIGAND FREE ENERGY PREDICTED BY IDOCK:   -2.08 KCAL/MOL
REMARK 924 INTRA-LIGAND FREE ENERGY PREDICTED BY IDOCK:   -0.40 KCAL/MOL
REMARK 927      BINDING AFFINITY PREDICTED BY RF-SCORE:    0.00 PKD
ROOT
HETATM    1  N   UNL     1      -8.383  11.146  69.178  1.00  0.00    -0.366 N  
HETATM    2  C   UNL     1      -7.398  10.331  69.650  1.00  0.00    -0.150 C  
HETATM    3  H1  UNL     1      -9.004  10.824  68.436  1.00  0.00     0.000 HD 
HETATM    4  H2  UNL     1      -8.499  12.081  69.568  1.00  0.00     0.000 HD 
HETATM    5  O   UNL     1      -6.650  10.719  70.542  1.00  0.00    -0.310 OA 
ENDROOT
BRANCH   2   6
HETATM    6  C   UNL     1      -7.417   8.882  69.117  1.00  0.00    -0.073 C  
HETATM    7  C   UNL     1      -8.062   8.854  67.706  1.00  0.00    -0.106 C  
HETATM    8  C   UNL     1      -8.634   7.483  67.303  1.00  0.00    -0.118 C  
HETATM    9  C   UNL     1      -9.235   6.717  68.502  1.00  0.00    -0.128 C  
HETATM   10  C   UNL     1      -9.480   7.679  69.656  1.00  0.00    -0.156 C  
HETATM   11  N   UNL     1      -8.105   7.958  70.049  1.00  0.00    -0.115 N  
HETATM   12  C   UNL     1      -7.505   6.646  70.052  1.00  0.00    -0.094 C  
HETATM   13  N   UNL     1      -8.166   5.894  69.051  1.00  0.00    -0.102 N  
HETATM   14  O   UNL     1      -6.669   6.241  70.843  1.00  0.00    -0.054 OA 
BRANCH  13  15
HETATM   15  O   UNL     1      -8.626   4.652  69.566  1.00  0.00    -0.080 OA 
HETATM   16  S   UNL     1      -8.051   3.361  68.734  1.00  0.00    -0.060 S  
HETATM   17  O   UNL     1      -8.303   3.571  67.322  1.00  0.00    -0.089 OA 
HETATM   18  O   UNL     1      -8.505   2.167  69.411  1.00  0.00    -0.048 OA 
HETATM   19  O   UNL     1      -6.460   3.438  68.976  1.00  0.00    -0.029 OA 
ENDBRANCH  13  15
ENDBRANCH   2   6
TORSDOF 2
ENDMDL
MODEL      173
REMARK 921   NORMALIZED FREE ENERGY PREDICTED BY IDOCK:   -1.88 KCAL/MOL
REMARK 922        TOTAL FREE ENERGY PREDICTED BY IDOCK:   -2.47 KCAL/MOL
REMARK 923 INTER-LIGAND FREE ENERGY PREDICTED BY IDOCK:   -2.37 KCAL/MOL
REMARK 924 INTRA-LIGAND FREE ENERGY PREDICTED BY IDOCK:   -0.10 KCAL/MOL
REMARK 927      BINDING AFFINITY PREDICTED BY RF-SCORE:    0.00 PKD
ROOT
HETATM    1  N   UNL     1      -7.472   9.542  71.045  1.00  0.00    -0.022 N  
HETATM    2  C   UNL     1      -8.253   8.543  71.543  1.00  0.00    -0.155 C  
HETATM    3  H1  UNL     1      -7.148   9.507  70.079  1.00  0.00     0.000 HD 
HETATM    4  H2  UNL     1      -7.210  10.328  71.641  1.00  0.00     0.000 HD 
HETATM    5  O   UNL     1      -8.643   8.585  72.707  1.00  0.00    -0.331 OA 
ENDROOT
BRANCH   2   6
HETATM    6  C   UNL     1      -8.733   7.495  70.517  1.00  0.00    -0.146 C  
HETATM    7  C   UNL     1      -9.579   6.410  71.236  1.00  0.00    -0.182 C  
HETATM    8  C   UNL     1      -9.651   5.068  70.485  1.00  0.00    -0.252 C  
HETATM    9  C   UNL     1      -8.337   4.736  69.741  1.00  0.00    -0.075 C  
HETATM   10  C   UNL     1      -7.206   5.595  70.286  1.00  0.00    -0.067 C  
HETATM   11  N   UNL     1      -7.604   6.897  69.766  1.00  0.00    -0.101 N  
HETATM   12  C   UNL     1      -7.961   6.596  68.401  1.00  0.00    -0.111 C  
HETATM   13  N   UNL     1      -8.471   5.276  68.395  1.00  0.00    -0.096 N  
HETATM   14  O   UNL     1      -7.753   7.307  67.432  1.00  0.00    -0.106 OA 
BRANCH  13  15
HETATM   15  O   UNL     1      -7.825   4.483  67.408  1.00  0.00    -0.088 OA 
HETATM   16  S   UNL     1      -8.796   3.315  66.788  1.00  0.00    -0.151 S  
HETATM   17  O   UNL     1      -9.383   2.571  67.885  1.00  0.00    -0.193 OA 
HETATM   18  O   UNL     1      -8.061   2.651  65.735  1.00  0.00    -0.081 OA 
HETATM   19  O   UNL     1      -9.968   4.148  66.063  1.00  0.00    -0.211 OA 
ENDBRANCH  13  15
ENDBRANCH   2   6
TORSDOF 2
ENDMDL
MODEL      174
REMARK 921   NORMALIZED FREE ENERGY PREDICTED BY IDOCK:   -1.78 KCAL/MOL
REMARK 922        TOTAL FREE ENERGY PREDICTED BY IDOCK:   -2.36 KCAL/MOL
REMARK 923 INTER-LIGAND FREE ENERGY PREDICTED BY IDOCK:   -1.97 KCAL/MOL
REMARK 924 INTRA-LIGAND FREE ENERGY PREDICTED BY IDOCK:   -0.39 KCAL/MOL
REMARK 927      BINDING AFFINITY PREDICTED BY RF-SCORE:    0.00 PKD
ROOT
HETATM    1  N   UNL     1      -6.140  12.866  70.097  1.00  0.00    -0.293 N  
HETATM    2  C   UNL     1      -7.028  12.183  69.322  1.00  0.00    -0.010 C  
HETATM    3  H1  UNL     1      -5.783  12.449  70.957  1.00  0.00     0.000 HD 
HETATM    4  H2  UNL     1      -5.833  13.798  69.819  1.00  0.00     0.000 HD 
HETATM    5  O   UNL     1      -7.459  12.685  68.288  1.00  0.00    -0.106 OA 
ENDROOT
BRANCH   2   6
HETATM    6  C   UNL     1      -7.294  10.721  69.739  1.00  0.00    -0.064 C  
HETATM    7  C   UNL     1      -5.957  10.041  70.137  1.00  0.00    -0.063 C  
HETATM    8  C   UNL     1      -5.980   8.504  70.041  1.00  0.00    -0.027 C  
HETATM    9  C   UNL     1      -6.850   7.998  68.868  1.00  0.00    -0.061 C  
HETATM   10  C   UNL     1      -7.100   9.133  67.886  1.00  0.00    -0.079 C  
HETATM   11  N   UNL     1      -7.999   9.961  68.680  1.00  0.00    -0.085 N  
HETATM   12  C   UNL     1      -8.918   8.994  69.229  1.00  0.00    -0.144 C  
HETATM   13  N   UNL     1      -8.189   7.792  69.401  1.00  0.00    -0.129 N  
HETATM   14  O   UNL     1     -10.114   9.158  69.400  1.00  0.00    -0.185 OA 
BRANCH  13  15
HETATM   15  O   UNL     1      -8.866   6.695  68.802  1.00  0.00    -0.127 OA 
HETATM   16  S   UNL     1      -9.191   5.487  69.863  1.00  0.00    -0.141 S  
HETATM   17  O   UNL     1      -7.968   5.146  70.564  1.00  0.00    -0.086 OA 
HETATM   18  O   UNL     1      -9.962   4.485  69.161  1.00  0.00    -0.178 OA 
HETATM   19  O   UNL     1     -10.198   6.173  70.916  1.00  0.00    -0.190 OA 
ENDBRANCH  13  15
ENDBRANCH   2   6
TORSDOF 2
ENDMDL
MODEL      175
REMARK 921   NORMALIZED FREE ENERGY PREDICTED BY IDOCK:   -1.68 KCAL/MOL
REMARK 922        TOTAL FREE ENERGY PREDICTED BY IDOCK:   -2.25 KCAL/MOL
REMARK 923 INTER-LIGAND FREE ENERGY PREDICTED BY IDOCK:   -2.60 KCAL/MOL
REMARK 924 INTRA-LIGAND FREE ENERGY PREDICTED BY IDOCK:    0.35 KCAL/MOL
REMARK 927      BINDING AFFINITY PREDICTED BY RF-SCORE:    0.00 PKD
ROOT
HETATM    1  N   UNL     1      -7.902  18.783  66.988  1.00  0.00    -0.236 N  
HETATM    2  C   UNL     1      -7.678  18.223  68.210  1.00  0.00    -0.291 C  
HETATM    3  H1  UNL     1      -7.614  18.295  66.140  1.00  0.00     0.000 HD 
HETATM    4  H2  UNL     1      -8.358  19.692  66.921  1.00  0.00     0.000 HD 
HETATM    5  O   UNL     1      -8.024  18.811  69.231  1.00  0.00    -0.109 OA 
ENDROOT
BRANCH   2   6
HETATM    6  C   UNL     1      -7.142  16.776  68.195  1.00  0.00    -0.159 C  
HETATM    7  C   UNL     1      -7.796  15.990  67.027  1.00  0.00    -0.263 C  
HETATM    8  C   UNL     1      -7.789  14.462  67.216  1.00  0.00    -0.188 C  
HETATM    9  C   UNL     1      -7.967  14.048  68.694  1.00  0.00    -0.122 C  
HETATM   10  C   UNL     1      -8.514  15.220  69.495  1.00  0.00    -0.188 C  
HETATM   11  N   UNL     1      -7.349  16.094  69.495  1.00  0.00    -0.185 N  
HETATM   12  C   UNL     1      -6.272  15.185  69.806  1.00  0.00    -0.147 C  
HETATM   13  N   UNL     1      -6.629  13.929  69.258  1.00  0.00    -0.111 N  
HETATM   14  O   UNL     1      -5.303  15.434  70.503  1.00  0.00    -0.131 OA 
BRANCH  13  15
HETATM   15  O   UNL     1      -6.521  12.899  70.231  1.00  0.00     0.031 OA 
HETATM   16  S   UNL     1      -6.709  11.397  69.597  1.00  0.00    -0.061 S  
HETATM   17  O   UNL     1      -7.928  11.376  68.812  1.00  0.00    -0.143 OA 
HETATM   18  O   UNL     1      -6.480  10.444  70.659  1.00  0.00    -0.255 OA 
HETATM   19  O   UNL     1      -5.460  11.257  68.589  1.00  0.00    -0.044 OA 
ENDBRANCH  13  15
ENDBRANCH   2   6
TORSDOF 2
ENDMDL
MODEL      176
REMARK 921   NORMALIZED FREE ENERGY PREDICTED BY IDOCK:   -1.68 KCAL/MOL
REMARK 922        TOTAL FREE ENERGY PREDICTED BY IDOCK:   -2.25 KCAL/MOL
REMARK 923 INTER-LIGAND FREE ENERGY PREDICTED BY IDOCK:   -1.99 KCAL/MOL
REMARK 924 INTRA-LIGAND FREE ENERGY PREDICTED BY IDOCK:   -0.25 KCAL/MOL
REMARK 927      BINDING AFFINITY PREDICTED BY RF-SCORE:    0.00 PKD
ROOT
HETATM    1  N   UNL     1      -8.558  10.808  67.396  1.00  0.00    -0.126 N  
HETATM    2  C   UNL     1      -9.284  10.107  68.312  1.00  0.00    -0.130 C  
HETATM    3  H1  UNL     1      -7.749  10.378  66.947  1.00  0.00     0.000 HD 
HETATM    4  H2  UNL     1      -8.824  11.763  67.159  1.00  0.00     0.000 HD 
HETATM    5  O   UNL     1     -10.258  10.624  68.853  1.00  0.00    -0.182 OA 
ENDROOT
BRANCH   2   6
HETATM    6  C   UNL     1      -8.905   8.620  68.470  1.00  0.00    -0.142 C  
HETATM    7  C   UNL     1      -7.467   8.506  69.042  1.00  0.00    -0.089 C  
HETATM    8  C   UNL     1      -6.775   7.163  68.742  1.00  0.00    -0.067 C  
HETATM    9  C   UNL     1      -7.163   6.594  67.359  1.00  0.00    -0.086 C  
HETATM   10  C   UNL     1      -7.777   7.693  66.504  1.00  0.00    -0.097 C  
HETATM   11  N   UNL     1      -9.046   7.873  67.197  1.00  0.00    -0.134 N  
HETATM   12  C   UNL     1      -9.485   6.516  67.412  1.00  0.00    -0.124 C  
HETATM   13  N   UNL     1      -8.317   5.731  67.571  1.00  0.00    -0.105 N  
HETATM   14  O   UNL     1     -10.636   6.116  67.352  1.00  0.00    -0.209 OA 
BRANCH  13  15
HETATM   15  O   UNL     1      -8.338   4.603  66.707  1.00  0.00    -0.106 OA 
HETATM   16  S   UNL     1      -8.138   3.183  67.502  1.00  0.00    -0.081 S  
HETATM   17  O   UNL     1      -6.965   3.287  68.348  1.00  0.00    -0.048 OA 
HETATM   18  O   UNL     1      -8.279   2.117  66.535  1.00  0.00    -0.081 OA 
HETATM   19  O   UNL     1      -9.436   3.101  68.454  1.00  0.00    -0.189 OA 
ENDBRANCH  13  15
ENDBRANCH   2   6
TORSDOF 2
ENDMDL
MODEL      177
REMARK 921   NORMALIZED FREE ENERGY PREDICTED BY IDOCK:   -1.61 KCAL/MOL
REMARK 922        TOTAL FREE ENERGY PREDICTED BY IDOCK:   -2.17 KCAL/MOL
REMARK 923 INTER-LIGAND FREE ENERGY PREDICTED BY IDOCK:   -3.95 KCAL/MOL
REMARK 924 INTRA-LIGAND FREE ENERGY PREDICTED BY IDOCK:    1.78 KCAL/MOL
REMARK 927      BINDING AFFINITY PREDICTED BY RF-SCORE:    0.00 PKD
ROOT
HETATM    1  N   UNL     1      -6.774  10.937  69.332  1.00  0.00    -0.093 N  
HETATM    2  C   UNL     1      -7.035  11.588  68.163  1.00  0.00    -0.070 C  
HETATM    3  H1  UNL     1      -7.425  11.006  70.114  1.00  0.00     0.000 HD 
HETATM    4  H2  UNL     1      -5.924  10.381  69.425  1.00  0.00     0.000 HD 
HETATM    5  O   UNL     1      -6.251  11.507  67.222  1.00  0.00    -0.078 OA 
ENDROOT
BRANCH   2   6
HETATM    6  C   UNL     1      -8.423  12.257  68.067  1.00  0.00    -0.171 C  
HETATM    7  C   UNL     1      -9.527  11.167  68.059  1.00  0.00    -0.174 C  
HETATM    8  C   UNL     1     -10.858  11.624  67.433  1.00  0.00    -0.298 C  
HETATM    9  C   UNL     1     -10.651  12.602  66.254  1.00  0.00    -0.252 C  
HETATM   10  C   UNL     1      -9.213  12.521  65.764  1.00  0.00     0.122 C  
HETATM   11  N   UNL     1      -8.528  13.148  66.887  1.00  0.00    -0.129 N  
HETATM   12  C   UNL     1      -9.349  14.304  67.154  1.00  0.00    -0.228 C  
HETATM   13  N   UNL     1     -10.677  13.945  66.816  1.00  0.00    -0.280 N  
HETATM   14  O   UNL     1      -8.950  15.405  67.495  1.00  0.00    -0.178 OA 
BRANCH  13  15
HETATM   15  O   UNL     1     -11.259  14.905  65.945  1.00  0.00    -0.335 OA 
HETATM   16  S   UNL     1     -12.235  14.232  64.811  1.00  0.00    -0.428 S  
HETATM   17  O   UNL     1     -11.510  13.164  64.152  1.00  0.00    -0.367 OA 
HETATM   18  O   UNL     1     -12.838  15.310  64.059  1.00  0.00    -0.613 OA 
HETATM   19  O   UNL     1     -13.420  13.573  65.681  1.00  0.00    -0.377 OA 
ENDBRANCH  13  15
ENDBRANCH   2   6
TORSDOF 2
ENDMDL
MODEL      178
REMARK 921   NORMALIZED FREE ENERGY PREDICTED BY IDOCK:   -1.61 KCAL/MOL
REMARK 922        TOTAL FREE ENERGY PREDICTED BY IDOCK:   -2.17 KCAL/MOL
REMARK 923 INTER-LIGAND FREE ENERGY PREDICTED BY IDOCK:   -2.37 KCAL/MOL
REMARK 924 INTRA-LIGAND FREE ENERGY PREDICTED BY IDOCK:    0.21 KCAL/MOL
REMARK 927      BINDING AFFINITY PREDICTED BY RF-SCORE:    0.00 PKD
ROOT
HETATM    1  N   UNL     1      -6.086   6.746  69.345  1.00  0.00    -0.025 N  
HETATM    2  C   UNL     1      -7.400   6.484  69.095  1.00  0.00    -0.093 C  
HETATM    3  H1  UNL     1      -5.690   7.654  69.103  1.00  0.00     0.000 HD 
HETATM    4  H2  UNL     1      -5.498   6.032  69.774  1.00  0.00     0.000 HD 
HETATM    5  O   UNL     1      -7.878   5.391  69.385  1.00  0.00    -0.086 OA 
ENDROOT
BRANCH   2   6
HETATM    6  C   UNL     1      -8.240   7.683  68.606  1.00  0.00    -0.128 C  
HETATM    7  C   UNL     1      -7.555   8.330  67.372  1.00  0.00    -0.098 C  
HETATM    8  C   UNL     1      -7.953   9.798  67.130  1.00  0.00    -0.102 C  
HETATM    9  C   UNL     1      -8.188  10.572  68.447  1.00  0.00    -0.121 C  
HETATM   10  C   UNL     1      -7.565   9.812  69.609  1.00  0.00    -0.120 C  
HETATM   11  N   UNL     1      -8.471   8.674  69.683  1.00  0.00    -0.126 N  
HETATM   12  C   UNL     1      -9.769   9.296  69.576  1.00  0.00    -0.173 C  
HETATM   13  N   UNL     1      -9.605  10.441  68.760  1.00  0.00    -0.169 N  
HETATM   14  O   UNL     1     -10.779   8.956  70.170  1.00  0.00    -0.216 OA 
BRANCH  13  15
HETATM   15  O   UNL     1     -10.147  11.596  69.387  1.00  0.00     0.086 OA 
HETATM   16  S   UNL     1     -10.444  12.817  68.332  1.00  0.00    -0.239 S  
HETATM   17  O   UNL     1      -9.248  13.050  67.546  1.00  0.00    -0.180 OA 
HETATM   18  O   UNL     1     -11.081  13.886  69.070  1.00  0.00    -0.254 OA 
HETATM   19  O   UNL     1     -11.573  12.206  67.360  1.00  0.00    -0.330 OA 
ENDBRANCH  13  15
ENDBRANCH   2   6
TORSDOF 2
ENDMDL
MODEL      179
REMARK 921   NORMALIZED FREE ENERGY PREDICTED BY IDOCK:   -1.06 KCAL/MOL
REMARK 922        TOTAL FREE ENERGY PREDICTED BY IDOCK:   -1.56 KCAL/MOL
REMARK 923 INTER-LIGAND FREE ENERGY PREDICTED BY IDOCK:   -2.27 KCAL/MOL
REMARK 924 INTRA-LIGAND FREE ENERGY PREDICTED BY IDOCK:    0.71 KCAL/MOL
REMARK 927      BINDING AFFINITY PREDICTED BY RF-SCORE:    0.00 PKD
ROOT
HETATM    1  N   UNL     1      -6.652   3.728  69.905  1.00  0.00    -0.033 N  
HETATM    2  C   UNL     1      -6.233   4.628  68.971  1.00  0.00    -0.031 C  
HETATM    3  H1  UNL     1      -7.358   3.992  70.591  1.00  0.00     0.000 HD 
HETATM    4  H2  UNL     1      -6.258   2.787  69.917  1.00  0.00     0.000 HD 
HETATM    5  O   UNL     1      -5.383   4.309  68.145  1.00  0.00    -0.011 OA 
ENDROOT
BRANCH   2   6
HETATM    6  C   UNL     1      -7.012   5.959  68.929  1.00  0.00    -0.068 C  
HETATM    7  C   UNL     1      -6.310   7.003  69.839  1.00  0.00    -0.038 C  
HETATM    8  C   UNL     1      -7.231   8.140  70.318  1.00  0.00    -0.052 C  
HETATM    9  C   UNL     1      -8.679   7.662  70.571  1.00  0.00    -0.138 C  
HETATM   10  C   UNL     1      -8.707   6.146  70.686  1.00  0.00    -0.139 C  
HETATM   11  N   UNL     1      -8.436   5.781  69.302  1.00  0.00    -0.107 N  
HETATM   12  C   UNL     1      -9.303   6.668  68.565  1.00  0.00    -0.125 C  
HETATM   13  N   UNL     1      -9.407   7.859  69.324  1.00  0.00    -0.149 N  
HETATM   14  O   UNL     1      -9.912   6.392  67.546  1.00  0.00    -0.123 OA 
BRANCH  13  15
HETATM   15  O   UNL     1     -10.767   8.221  69.522  1.00  0.00    -0.227 OA 
HETATM   16  S   UNL     1     -10.943   9.584  70.418  1.00  0.00    -0.300 S  
HETATM   17  O   UNL     1     -10.161   9.445  71.631  1.00  0.00    -0.283 OA 
HETATM   18  O   UNL     1     -12.353   9.898  70.461  1.00  0.00    -0.241 OA 
HETATM   19  O   UNL     1     -10.256  10.722  69.507  1.00  0.00    -0.202 OA 
ENDBRANCH  13  15
ENDBRANCH   2   6
TORSDOF 2
ENDMDL
MODEL      180
REMARK 921   NORMALIZED FREE ENERGY PREDICTED BY IDOCK:   -0.95 KCAL/MOL
REMARK 922        TOTAL FREE ENERGY PREDICTED BY IDOCK:   -1.44 KCAL/MOL
REMARK 923 INTER-LIGAND FREE ENERGY PREDICTED BY IDOCK:   -5.01 KCAL/MOL
REMARK 924 INTRA-LIGAND FREE ENERGY PREDICTED BY IDOCK:    3.57 KCAL/MOL
REMARK 927      BINDING AFFINITY PREDICTED BY RF-SCORE:    0.00 PKD
ROOT
HETATM    1  N   UNL     1      -8.811  10.979  69.290  1.00  0.00    -0.383 N  
HETATM    2  C   UNL     1      -9.500  10.019  68.612  1.00  0.00    -0.156 C  
HETATM    3  H1  UNL     1      -9.153  11.316  70.190  1.00  0.00     0.000 HD 
HETATM    4  H2  UNL     1      -7.951  11.363  68.898  1.00  0.00     0.000 HD 
HETATM    5  O   UNL     1      -9.088   9.613  67.529  1.00  0.00    -0.130 OA 
ENDROOT
BRANCH   2   6
HETATM    6  C   UNL     1     -10.686   9.386  69.369  1.00  0.00    -0.217 C  
HETATM    7  C   UNL     1     -11.299  10.428  70.342  1.00  0.00    -0.417 C  
HETATM    8  C   UNL     1     -12.087   9.809  71.512  1.00  0.00    -0.493 C  
HETATM    9  C   UNL     1     -11.469   8.480  72.003  1.00  0.00    -0.361 C  
HETATM   10  C   UNL     1     -10.040   8.358  71.496  1.00  0.00    -0.226 C  
HETATM   11  N   UNL     1     -10.293   8.144  70.077  1.00  0.00    -0.210 N  
HETATM   12  C   UNL     1     -11.356   7.169  70.088  1.00  0.00    -0.241 C  
HETATM   13  N   UNL     1     -12.121   7.415  71.253  1.00  0.00    -0.315 N  
HETATM   14  O   UNL     1     -11.491   6.246  69.302  1.00  0.00    -0.411 OA 
BRANCH  13  15
HETATM   15  O   UNL     1     -12.296   6.225  72.010  1.00  0.00    -0.328 OA 
HETATM   16  S   UNL     1     -10.931   5.755  72.790  1.00  0.00    -0.288 S  
HETATM   17  O   UNL     1      -9.841   5.721  71.834  1.00  0.00    -0.161 OA 
HETATM   18  O   UNL     1     -11.263   4.601  73.595  1.00  0.00    -0.311 OA 
HETATM   19  O   UNL     1     -10.655   6.960  73.822  1.00  0.00    -0.360 OA 
ENDBRANCH  13  15
ENDBRANCH   2   6
TORSDOF 2
ENDMDL
MODEL      181
REMARK 921   NORMALIZED FREE ENERGY PREDICTED BY IDOCK:   -0.93 KCAL/MOL
REMARK 922        TOTAL FREE ENERGY PREDICTED BY IDOCK:   -1.41 KCAL/MOL
REMARK 923 INTER-LIGAND FREE ENERGY PREDICTED BY IDOCK:   -3.92 KCAL/MOL
REMARK 924 INTRA-LIGAND FREE ENERGY PREDICTED BY IDOCK:    2.51 KCAL/MOL
REMARK 927      BINDING AFFINITY PREDICTED BY RF-SCORE:    0.00 PKD
ROOT
HETATM    1  N   UNL     1     -12.760  15.713  69.615  1.00  0.00    -0.530 N  
HETATM    2  C   UNL     1     -11.660  15.417  68.867  1.00  0.00    -0.354 C  
HETATM    3  H1  UNL     1     -12.733  16.483  70.283  1.00  0.00     0.000 HD 
HETATM    4  H2  UNL     1     -13.611  15.162  69.508  1.00  0.00     0.000 HD 
HETATM    5  O   UNL     1     -11.691  14.489  68.063  1.00  0.00    -0.320 OA 
ENDROOT
BRANCH   2   6
HETATM    6  C   UNL     1     -10.487  16.413  68.979  1.00  0.00    -0.288 C  
HETATM    7  C   UNL     1     -11.002  17.855  68.725  1.00  0.00     0.468 C  
HETATM    8  C   UNL     1      -9.910  18.842  68.270  1.00  0.00    -0.418 C  
HETATM    9  C   UNL     1      -8.846  18.173  67.372  1.00  0.00    -0.256 C  
HETATM   10  C   UNL     1      -9.379  16.851  66.840  1.00  0.00    -0.241 C  
HETATM   11  N   UNL     1      -9.373  16.064  68.066  1.00  0.00    -0.201 N  
HETATM   12  C   UNL     1      -8.086  16.379  68.637  1.00  0.00    -0.218 C  
HETATM   13  N   UNL     1      -7.786  17.709  68.255  1.00  0.00    -0.243 N  
HETATM   14  O   UNL     1      -7.358  15.604  69.235  1.00  0.00    -0.177 OA 
BRANCH  13  15
HETATM   15  O   UNL     1      -6.493  17.792  67.670  1.00  0.00    -0.172 OA 
HETATM   16  S   UNL     1      -6.509  18.465  66.175  1.00  0.00    -0.248 S  
HETATM   17  O   UNL     1      -7.505  17.783  65.371  1.00  0.00    -0.374 OA 
HETATM   18  O   UNL     1      -5.137  18.584  65.735  1.00  0.00    -0.133 OA 
HETATM   19  O   UNL     1      -7.027  19.967  66.445  1.00  0.00    -0.213 OA 
ENDBRANCH  13  15
ENDBRANCH   2   6
TORSDOF 2
ENDMDL
MODEL      182
REMARK 921   NORMALIZED FREE ENERGY PREDICTED BY IDOCK:   -0.83 KCAL/MOL
REMARK 922        TOTAL FREE ENERGY PREDICTED BY IDOCK:   -1.30 KCAL/MOL
REMARK 923 INTER-LIGAND FREE ENERGY PREDICTED BY IDOCK:   -1.96 KCAL/MOL
REMARK 924 INTRA-LIGAND FREE ENERGY PREDICTED BY IDOCK:    0.66 KCAL/MOL
REMARK 927      BINDING AFFINITY PREDICTED BY RF-SCORE:    0.00 PKD
ROOT
HETATM    1  N   UNL     1      -7.253  20.308  71.691  1.00  0.00     0.170 N  
HETATM    2  C   UNL     1      -6.276  20.119  70.759  1.00  0.00    -0.249 C  
HETATM    3  H1  UNL     1      -8.207  20.003  71.502  1.00  0.00     0.000 HD 
HETATM    4  H2  UNL     1      -7.028  20.757  72.579  1.00  0.00     0.000 HD 
HETATM    5  O   UNL     1      -5.127  20.487  70.985  1.00  0.00    -0.234 OA 
ENDROOT
BRANCH   2   6
HETATM    6  C   UNL     1      -6.681  19.281  69.528  1.00  0.00    -0.267 C  
HETATM    7  C   UNL     1      -7.019  20.225  68.343  1.00  0.00    -0.269 C  
HETATM    8  C   UNL     1      -7.932  19.593  67.276  1.00  0.00    -0.314 C  
HETATM    9  C   UNL     1      -8.971  18.625  67.886  1.00  0.00    -0.287 C  
HETATM   10  C   UNL     1      -9.091  18.874  69.381  1.00  0.00     0.233 C  
HETATM   11  N   UNL     1      -7.803  18.360  69.828  1.00  0.00     0.693 N  
HETATM   12  C   UNL     1      -7.691  17.117  69.105  1.00  0.00    -0.094 C  
HETATM   13  N   UNL     1      -8.365  17.301  67.874  1.00  0.00    -0.216 N  
HETATM   14  O   UNL     1      -7.206  16.081  69.529  1.00  0.00    -0.215 OA 
BRANCH  13  15
HETATM   15  O   UNL     1      -9.304  16.258  67.646  1.00  0.00    -0.216 OA 
HETATM   16  S   UNL     1     -10.094  16.408  66.216  1.00  0.00    -0.347 S  
HETATM   17  O   UNL     1     -10.632  17.751  66.123  1.00  0.00    -0.335 OA 
HETATM   18  O   UNL     1     -10.938  15.245  66.059  1.00  0.00    -0.332 OA 
HETATM   19  O   UNL     1      -8.920  16.262  65.123  1.00  0.00     0.315 OA 
ENDBRANCH  13  15
ENDBRANCH   2   6
TORSDOF 2
ENDMDL
MODEL      183
REMARK 921   NORMALIZED FREE ENERGY PREDICTED BY IDOCK:   -0.44 KCAL/MOL
REMARK 922        TOTAL FREE ENERGY PREDICTED BY IDOCK:   -0.86 KCAL/MOL
REMARK 923 INTER-LIGAND FREE ENERGY PREDICTED BY IDOCK:   -3.51 KCAL/MOL
REMARK 924 INTRA-LIGAND FREE ENERGY PREDICTED BY IDOCK:    2.65 KCAL/MOL
REMARK 927      BINDING AFFINITY PREDICTED BY RF-SCORE:    0.00 PKD
ROOT
HETATM    1  N   UNL     1      -9.311   7.248  73.105  1.00  0.00    -0.158 N  
HETATM    2  C   UNL     1     -10.370   7.599  72.322  1.00  0.00    -0.224 C  
HETATM    3  H1  UNL     1      -8.418   7.730  73.005  1.00  0.00     0.000 HD 
HETATM    4  H2  UNL     1      -9.411   6.502  73.792  1.00  0.00     0.000 HD 
HETATM    5  O   UNL     1     -11.445   7.019  72.442  1.00  0.00    -0.264 OA 
ENDROOT
BRANCH   2   6
HETATM    6  C   UNL     1     -10.165   8.850  71.441  1.00  0.00    -0.305 C  
HETATM    7  C   UNL     1     -11.540   9.369  70.944  1.00  0.00    -0.380 C  
HETATM    8  C   UNL     1     -11.465  10.226  69.667  1.00  0.00    -0.297 C  
HETATM    9  C   UNL     1     -10.361   9.746  68.697  1.00  0.00    -0.201 C  
HETATM   10  C   UNL     1      -9.938   8.330  69.059  1.00  0.00    -0.189 C  
HETATM   11  N   UNL     1      -9.240   8.587  70.312  1.00  0.00    -0.154 N  
HETATM   12  C   UNL     1      -8.433   9.740  69.995  1.00  0.00    -0.206 C  
HETATM   13  N   UNL     1      -9.156  10.490  69.035  1.00  0.00    -0.179 N  
HETATM   14  O   UNL     1      -7.302   9.956  70.395  1.00  0.00    -0.148 OA 
BRANCH  13  15
HETATM   15  O   UNL     1      -8.347  10.788  67.905  1.00  0.00    -0.114 OA 
HETATM   16  S   UNL     1      -8.953  10.182  66.506  1.00  0.00    -0.145 S  
HETATM   17  O   UNL     1      -9.244   8.775  66.700  1.00  0.00    -0.156 OA 
HETATM   18  O   UNL     1      -8.100  10.634  65.430  1.00  0.00    -0.156 OA 
HETATM   19  O   UNL     1     -10.350  10.965  66.333  1.00  0.00    -0.237 OA 
ENDBRANCH  13  15
ENDBRANCH   2   6
TORSDOF 2
ENDMDL
MODEL      184
REMARK 921   NORMALIZED FREE ENERGY PREDICTED BY IDOCK:    0.15 KCAL/MOL
REMARK 922        TOTAL FREE ENERGY PREDICTED BY IDOCK:   -0.21 KCAL/MOL
REMARK 923 INTER-LIGAND FREE ENERGY PREDICTED BY IDOCK:   -1.14 KCAL/MOL
REMARK 924 INTRA-LIGAND FREE ENERGY PREDICTED BY IDOCK:    0.93 KCAL/MOL
REMARK 927      BINDING AFFINITY PREDICTED BY RF-SCORE:    0.00 PKD
ROOT
HETATM    1  N   UNL     1      -9.537   7.509  68.556  1.00  0.00    -0.149 N  
HETATM    2  C   UNL     1      -8.503   7.624  69.437  1.00  0.00    -0.132 C  
HETATM    3  H1  UNL     1      -9.729   8.259  67.892  1.00  0.00     0.000 HD 
HETATM    4  H2  UNL     1     -10.119   6.672  68.561  1.00  0.00     0.000 HD 
HETATM    5  O   UNL     1      -8.271   6.722  70.237  1.00  0.00    -0.122 OA 
ENDROOT
BRANCH   2   6
HETATM    6  C   UNL     1      -7.582   8.845  69.232  1.00  0.00    -0.082 C  
HETATM    7  C   UNL     1      -7.423   9.609  70.574  1.00  0.00    -0.147 C  
HETATM    8  C   UNL     1      -7.014  11.085  70.413  1.00  0.00     0.546 C  
HETATM    9  C   UNL     1      -7.636  11.737  69.158  1.00  0.00     0.081 C  
HETATM   10  C   UNL     1      -8.800  10.892  68.661  1.00  0.00    -0.158 C  
HETATM   11  N   UNL     1      -8.074   9.735  68.153  1.00  0.00    -0.108 N  
HETATM   12  C   UNL     1      -6.991  10.340  67.417  1.00  0.00    -0.082 C  
HETATM   13  N   UNL     1      -6.680  11.555  68.075  1.00  0.00    -0.057 N  
HETATM   14  O   UNL     1      -6.520   9.932  66.368  1.00  0.00    -0.068 OA 
BRANCH  13  15
HETATM   15  O   UNL     1      -6.659  12.641  67.158  1.00  0.00    -0.142 OA 
HETATM   16  S   UNL     1      -6.706  14.104  67.898  1.00  0.00    -0.179 S  
HETATM   17  O   UNL     1      -7.811  14.113  68.836  1.00  0.00    -0.135 OA 
HETATM   18  O   UNL     1      -6.579  15.116  66.873  1.00  0.00    -0.122 OA 
HETATM   19  O   UNL     1      -5.333  14.142  68.739  1.00  0.00    -0.081 OA 
ENDBRANCH  13  15
ENDBRANCH   2   6
TORSDOF 2
ENDMDL
MODEL      185
REMARK 921   NORMALIZED FREE ENERGY PREDICTED BY IDOCK:    0.32 KCAL/MOL
REMARK 922        TOTAL FREE ENERGY PREDICTED BY IDOCK:   -0.01 KCAL/MOL
REMARK 923 INTER-LIGAND FREE ENERGY PREDICTED BY IDOCK:   -2.32 KCAL/MOL
REMARK 924 INTRA-LIGAND FREE ENERGY PREDICTED BY IDOCK:    2.31 KCAL/MOL
REMARK 927      BINDING AFFINITY PREDICTED BY RF-SCORE:    0.00 PKD
ROOT
HETATM    1  N   UNL     1      -6.379  15.446  67.459  1.00  0.00    -0.150 N  
HETATM    2  C   UNL     1      -7.166  14.681  68.268  1.00  0.00    -0.117 C  
HETATM    3  H1  UNL     1      -6.141  15.123  66.522  1.00  0.00     0.000 HD 
HETATM    4  H2  UNL     1      -6.027  16.343  67.793  1.00  0.00     0.000 HD 
HETATM    5  O   UNL     1      -7.452  15.068  69.397  1.00  0.00    -0.174 OA 
ENDROOT
BRANCH   2   6
HETATM    6  C   UNL     1      -7.785  13.430  67.609  1.00  0.00    -0.177 C  
HETATM    7  C   UNL     1      -9.270  13.296  68.037  1.00  0.00    -0.217 C  
HETATM    8  C   UNL     1      -9.832  11.867  67.920  1.00  0.00    -0.190 C  
HETATM    9  C   UNL     1      -8.776  10.788  68.247  1.00  0.00    -0.136 C  
HETATM   10  C   UNL     1      -7.610  11.418  68.993  1.00  0.00    -0.084 C  
HETATM   11  N   UNL     1      -7.015  12.202  67.918  1.00  0.00    -0.089 N  
HETATM   12  C   UNL     1      -7.012  11.273  66.814  1.00  0.00    -0.141 C  
HETATM   13  N   UNL     1      -8.138  10.433  66.986  1.00  0.00    -0.115 N  
HETATM   14  O   UNL     1      -6.140  11.169  65.967  1.00  0.00    -0.129 OA 
BRANCH  13  15
HETATM   15  O   UNL     1      -7.769   9.063  66.913  1.00  0.00    -0.096 OA 
HETATM   16  S   UNL     1      -8.343   8.176  68.168  1.00  0.00    -0.130 S  
HETATM   17  O   UNL     1      -7.987   8.843  69.405  1.00  0.00    -0.095 OA 
HETATM   18  O   UNL     1      -7.987   6.796  67.926  1.00  0.00    -0.111 OA 
HETATM   19  O   UNL     1      -9.941   8.267  67.991  1.00  0.00    -0.170 OA 
ENDBRANCH  13  15
ENDBRANCH   2   6
TORSDOF 2
ENDMDL
MODEL      186
REMARK 921   NORMALIZED FREE ENERGY PREDICTED BY IDOCK:    1.19 KCAL/MOL
REMARK 922        TOTAL FREE ENERGY PREDICTED BY IDOCK:    0.96 KCAL/MOL
REMARK 923 INTER-LIGAND FREE ENERGY PREDICTED BY IDOCK:   -2.54 KCAL/MOL
REMARK 924 INTRA-LIGAND FREE ENERGY PREDICTED BY IDOCK:    3.50 KCAL/MOL
REMARK 927      BINDING AFFINITY PREDICTED BY RF-SCORE:    0.00 PKD
ROOT
HETATM    1  N   UNL     1      -9.160   9.849  69.463  1.00  0.00    -0.209 N  
HETATM    2  C   UNL     1      -9.221   8.676  68.773  1.00  0.00    -0.142 C  
HETATM    3  H1  UNL     1      -9.584   9.922  70.388  1.00  0.00     0.000 HD 
HETATM    4  H2  UNL     1      -8.689  10.656  69.054  1.00  0.00     0.000 HD 
HETATM    5  O   UNL     1      -8.711   8.588  67.659  1.00  0.00    -0.134 OA 
ENDROOT
BRANCH   2   6
HETATM    6  C   UNL     1      -9.799   7.473  69.547  1.00  0.00    -0.169 C  
HETATM    7  C   UNL     1     -11.077   7.912  70.312  1.00  0.00    -0.232 C  
HETATM    8  C   UNL     1     -11.429   7.016  71.514  1.00  0.00    -0.306 C  
HETATM    9  C   UNL     1     -10.174   6.479  72.239  1.00  0.00    -0.184 C  
HETATM   10  C   UNL     1      -8.958   7.302  71.840  1.00  0.00    -0.126 C  
HETATM   11  N   UNL     1      -8.799   6.867  70.459  1.00  0.00    -0.153 N  
HETATM   12  C   UNL     1      -8.955   5.437  70.557  1.00  0.00    -0.134 C  
HETATM   13  N   UNL     1      -9.854   5.198  71.625  1.00  0.00    -0.167 N  
HETATM   14  O   UNL     1      -8.338   4.602  69.916  1.00  0.00    -0.067 OA 
BRANCH  13  15
HETATM   15  O   UNL     1      -9.316   4.256  72.544  1.00  0.00    -0.116 OA 
HETATM   16  S   UNL     1      -8.226   4.918  73.576  1.00  0.00    -0.107 S  
HETATM   17  O   UNL     1      -7.244   5.651  72.802  1.00  0.00    -0.087 OA 
HETATM   18  O   UNL     1      -7.834   3.890  74.514  1.00  0.00    -0.082 OA 
HETATM   19  O   UNL     1      -9.101   5.981  74.413  1.00  0.00    -0.127 OA 
ENDBRANCH  13  15
ENDBRANCH   2   6
TORSDOF 2
ENDMDL
MODEL      187
REMARK 921   NORMALIZED FREE ENERGY PREDICTED BY IDOCK:    1.67 KCAL/MOL
REMARK 922        TOTAL FREE ENERGY PREDICTED BY IDOCK:    1.49 KCAL/MOL
REMARK 923 INTER-LIGAND FREE ENERGY PREDICTED BY IDOCK:   -2.21 KCAL/MOL
REMARK 924 INTRA-LIGAND FREE ENERGY PREDICTED BY IDOCK:    3.70 KCAL/MOL
REMARK 927      BINDING AFFINITY PREDICTED BY RF-SCORE:    0.00 PKD
ROOT
HETATM    1  N   UNL     1      -9.726   7.397  68.680  1.00  0.00    -0.150 N  
HETATM    2  C   UNL     1      -8.463   7.702  69.091  1.00  0.00    -0.138 C  
HETATM    3  H1  UNL     1     -10.265   8.071  68.136  1.00  0.00     0.000 HD 
HETATM    4  H2  UNL     1     -10.135   6.493  68.918  1.00  0.00     0.000 HD 
HETATM    5  O   UNL     1      -7.815   6.891  69.747  1.00  0.00    -0.110 OA 
ENDROOT
BRANCH   2   6
HETATM    6  C   UNL     1      -7.878   9.017  68.535  1.00  0.00    -0.102 C  
HETATM    7  C   UNL     1      -7.356   9.892  69.706  1.00  0.00    -0.129 C  
HETATM    8  C   UNL     1      -7.263  11.393  69.377  1.00  0.00    -0.030 C  
HETATM    9  C   UNL     1      -8.393  11.863  68.433  1.00  0.00    -0.157 C  
HETATM   10  C   UNL     1      -9.515  10.835  68.422  1.00  0.00    -0.174 C  
HETATM   11  N   UNL     1      -8.859   9.752  67.701  1.00  0.00    -0.125 N  
HETATM   12  C   UNL     1      -8.226  10.441  66.603  1.00  0.00    -0.128 C  
HETATM   13  N   UNL     1      -7.884  11.731  67.075  1.00  0.00    -0.161 N  
HETATM   14  O   UNL     1      -8.117  10.023  65.462  1.00  0.00    -0.126 OA 
BRANCH  13  15
HETATM   15  O   UNL     1      -8.365  12.740  66.198  1.00  0.00     0.399 OA 
HETATM   16  S   UNL     1      -9.998  12.894  66.233  1.00  0.00    -0.272 S  
HETATM   17  O   UNL     1     -10.591  11.584  66.046  1.00  0.00    -0.247 OA 
HETATM   18  O   UNL     1     -10.350  14.009  65.381  1.00  0.00    -0.321 OA 
HETATM   19  O   UNL     1     -10.297  13.370  67.742  1.00  0.00    -0.233 OA 
ENDBRANCH  13  15
ENDBRANCH   2   6
TORSDOF 2
ENDMDL
MODEL      188
REMARK 921   NORMALIZED FREE ENERGY PREDICTED BY IDOCK:    2.87 KCAL/MOL
REMARK 922        TOTAL FREE ENERGY PREDICTED BY IDOCK:    2.83 KCAL/MOL
REMARK 923 INTER-LIGAND FREE ENERGY PREDICTED BY IDOCK:    3.03 KCAL/MOL
REMARK 924 INTRA-LIGAND FREE ENERGY PREDICTED BY IDOCK:   -0.20 KCAL/MOL
REMARK 927      BINDING AFFINITY PREDICTED BY RF-SCORE:    0.00 PKD
ROOT
HETATM    1  N   UNL     1      -6.072  13.772  73.008  1.00  0.00     0.524 N  
HETATM    2  C   UNL     1      -5.907  13.114  71.826  1.00  0.00     0.570 C  
HETATM    3  H1  UNL     1      -6.677  14.591  73.059  1.00  0.00     0.000 HD 
HETATM    4  H2  UNL     1      -5.588  13.445  73.844  1.00  0.00     0.000 HD 
HETATM    5  O   UNL     1      -5.178  12.129  71.764  1.00  0.00    -0.346 OA 
ENDROOT
BRANCH   2   6
HETATM    6  C   UNL     1      -6.813  13.583  70.668  1.00  0.00     1.098 C  
HETATM    7  C   UNL     1      -6.043  13.472  69.325  1.00  0.00    -0.097 C  
HETATM    8  C   UNL     1      -6.588  14.383  68.210  1.00  0.00    -0.116 C  
HETATM    9  C   UNL     1      -7.114  15.731  68.753  1.00  0.00    -0.131 C  
HETATM   10  C   UNL     1      -6.577  15.966  70.156  1.00  0.00     0.096 C  
HETATM   11  N   UNL     1      -7.329  14.955  70.888  1.00  0.00     0.984 N  
HETATM   12  C   UNL     1      -8.666  15.120  70.371  1.00  0.00     1.115 C  
HETATM   13  N   UNL     1      -8.533  15.545  69.027  1.00  0.00    -0.210 N  
HETATM   14  O   UNL     1      -9.700  15.019  71.011  1.00  0.00     0.942 OA 
BRANCH  13  15
HETATM   15  O   UNL     1      -9.308  16.710  68.781  1.00  0.00    -0.240 OA 
HETATM   16  S   UNL     1      -9.990  16.723  67.289  1.00  0.00    -0.279 S  
HETATM   17  O   UNL     1      -8.959  16.452  66.307  1.00  0.00    -0.281 OA 
HETATM   18  O   UNL     1     -10.825  17.900  67.201  1.00  0.00    -0.284 OA 
HETATM   19  O   UNL     1     -10.992  15.462  67.326  1.00  0.00    -0.316 OA 
ENDBRANCH  13  15
ENDBRANCH   2   6
TORSDOF 2
ENDMDL
MODEL      189
REMARK 921   NORMALIZED FREE ENERGY PREDICTED BY IDOCK:    2.95 KCAL/MOL
REMARK 922        TOTAL FREE ENERGY PREDICTED BY IDOCK:    2.92 KCAL/MOL
REMARK 923 INTER-LIGAND FREE ENERGY PREDICTED BY IDOCK:   -2.93 KCAL/MOL
REMARK 924 INTRA-LIGAND FREE ENERGY PREDICTED BY IDOCK:    5.85 KCAL/MOL
REMARK 927      BINDING AFFINITY PREDICTED BY RF-SCORE:    0.00 PKD
ROOT
HETATM    1  N   UNL     1      -9.057  16.888  67.262  1.00  0.00    -0.216 N  
HETATM    2  C   UNL     1      -8.601  15.733  66.700  1.00  0.00    -0.287 C  
HETATM    3  H1  UNL     1      -9.991  16.926  67.669  1.00  0.00     0.000 HD 
HETATM    4  H2  UNL     1      -8.463  17.717  67.274  1.00  0.00     0.000 HD 
HETATM    5  O   UNL     1      -7.476  15.687  66.209  1.00  0.00     0.185 OA 
ENDROOT
BRANCH   2   6
HETATM    6  C   UNL     1      -9.505  14.496  66.887  1.00  0.00    -0.252 C  
HETATM    7  C   UNL     1      -9.902  14.361  68.381  1.00  0.00    -0.234 C  
HETATM    8  C   UNL     1     -10.315  12.937  68.796  1.00  0.00    -0.143 C  
HETATM    9  C   UNL     1      -9.511  11.848  68.051  1.00  0.00    -0.197 C  
HETATM   10  C   UNL     1      -8.261  12.460  67.437  1.00  0.00    -0.180 C  
HETATM   11  N   UNL     1      -8.865  13.260  66.379  1.00  0.00     0.023 N  
HETATM   12  C   UNL     1      -9.826  12.350  65.804  1.00  0.00    -0.240 C  
HETATM   13  N   UNL     1     -10.271  11.512  66.855  1.00  0.00    -0.212 N  
HETATM   14  O   UNL     1     -10.107  12.256  64.621  1.00  0.00    -0.282 OA 
BRANCH  13  15
HETATM   15  O   UNL     1     -10.167  10.141  66.494  1.00  0.00    -0.222 OA 
HETATM   16  S   UNL     1      -9.084   9.876  65.291  1.00  0.00    -0.231 S  
HETATM   17  O   UNL     1      -9.378  10.780  64.196  1.00  0.00    -0.219 OA 
HETATM   18  O   UNL     1      -8.999   8.447  65.087  1.00  0.00    -0.097 OA 
HETATM   19  O   UNL     1      -7.681  10.321  65.946  1.00  0.00    -0.124 OA 
ENDBRANCH  13  15
ENDBRANCH   2   6
TORSDOF 2
ENDMDL
MODEL      190
REMARK 921   NORMALIZED FREE ENERGY PREDICTED BY IDOCK:    3.73 KCAL/MOL
REMARK 922        TOTAL FREE ENERGY PREDICTED BY IDOCK:    3.80 KCAL/MOL
REMARK 923 INTER-LIGAND FREE ENERGY PREDICTED BY IDOCK:   -2.54 KCAL/MOL
REMARK 924 INTRA-LIGAND FREE ENERGY PREDICTED BY IDOCK:    6.33 KCAL/MOL
REMARK 927      BINDING AFFINITY PREDICTED BY RF-SCORE:    0.00 PKD
ROOT
HETATM    1  N   UNL     1     -11.054   8.603  71.542  1.00  0.00    -0.266 N  
HETATM    2  C   UNL     1      -9.767   8.446  71.123  1.00  0.00    -0.186 C  
HETATM    3  H1  UNL     1     -11.720   9.123  70.970  1.00  0.00     0.000 HD 
HETATM    4  H2  UNL     1     -11.352   8.201  72.431  1.00  0.00     0.000 HD 
HETATM    5  O   UNL     1      -8.965   7.822  71.812  1.00  0.00    -0.117 OA 
ENDROOT
BRANCH   2   6
HETATM    6  C   UNL     1      -9.464   8.941  69.693  1.00  0.00    -0.168 C  
HETATM    7  C   UNL     1      -8.876   7.777  68.852  1.00  0.00    -0.135 C  
HETATM    8  C   UNL     1      -8.045   8.235  67.639  1.00  0.00    -0.126 C  
HETATM    9  C   UNL     1      -7.257   9.534  67.919  1.00  0.00    -0.082 C  
HETATM   10  C   UNL     1      -7.179   9.776  69.419  1.00  0.00    -0.076 C  
HETATM   11  N   UNL     1      -8.567  10.122  69.693  1.00  0.00    -0.175 N  
HETATM   12  C   UNL     1      -8.882  11.039  68.624  1.00  0.00    -0.164 C  
HETATM   13  N   UNL     1      -8.112  10.638  67.505  1.00  0.00    -0.110 N  
HETATM   14  O   UNL     1      -9.587  12.030  68.714  1.00  0.00    -0.117 OA 
BRANCH  13  15
HETATM   15  O   UNL     1      -7.387  11.735  66.966  1.00  0.00    -0.139 OA 
HETATM   16  S   UNL     1      -7.621  13.130  67.798  1.00  0.00    -0.172 S  
HETATM   17  O   UNL     1      -9.047  13.348  67.943  1.00  0.00    -0.190 OA 
HETATM   18  O   UNL     1      -6.760  14.135  67.216  1.00  0.00    -0.250 OA 
HETATM   19  O   UNL     1      -7.012  12.804  69.253  1.00  0.00    -0.064 OA 
ENDBRANCH  13  15
ENDBRANCH   2   6
TORSDOF 2
ENDMDL
MODEL      191
REMARK 921   NORMALIZED FREE ENERGY PREDICTED BY IDOCK:    5.41 KCAL/MOL
REMARK 922        TOTAL FREE ENERGY PREDICTED BY IDOCK:    5.67 KCAL/MOL
REMARK 923 INTER-LIGAND FREE ENERGY PREDICTED BY IDOCK:    5.79 KCAL/MOL
REMARK 924 INTRA-LIGAND FREE ENERGY PREDICTED BY IDOCK:   -0.12 KCAL/MOL
REMARK 927      BINDING AFFINITY PREDICTED BY RF-SCORE:    0.00 PKD
ROOT
HETATM    1  N   UNL     1      -6.256  17.745  63.265  1.00  0.00     4.702 N  
HETATM    2  C   UNL     1      -6.018  18.582  64.314  1.00  0.00     0.385 C  
HETATM    3  H1  UNL     1      -6.938  16.992  63.355  1.00  0.00     0.000 HD 
HETATM    4  H2  UNL     1      -5.751  17.872  62.388  1.00  0.00     0.000 HD 
HETATM    5  O   UNL     1      -5.197  19.489  64.206  1.00  0.00    -0.159 OA 
ENDROOT
BRANCH   2   6
HETATM    6  C   UNL     1      -6.954  18.414  65.529  1.00  0.00    -0.135 C  
HETATM    7  C   UNL     1      -6.110  18.325  66.829  1.00  0.00    -0.182 C  
HETATM    8  C   UNL     1      -6.828  17.628  67.999  1.00  0.00    -0.193 C  
HETATM    9  C   UNL     1      -7.748  16.479  67.528  1.00  0.00    -0.149 C  
HETATM   10  C   UNL     1      -7.379  16.074  66.109  1.00  0.00     0.968 C  
HETATM   11  N   UNL     1      -7.851  17.244  65.381  1.00  0.00     1.014 N  
HETATM   12  C   UNL     1      -9.148  17.480  65.967  1.00  0.00    -0.027 C  
HETATM   13  N   UNL     1      -9.067  17.059  67.317  1.00  0.00    -0.220 N  
HETATM   14  O   UNL     1     -10.145  17.860  65.375  1.00  0.00    -0.412 OA 
BRANCH  13  15
HETATM   15  O   UNL     1     -10.127  16.169  67.639  1.00  0.00    -0.239 OA 
HETATM   16  S   UNL     1     -10.667  16.347  69.178  1.00  0.00    -0.333 S  
HETATM   17  O   UNL     1      -9.529  16.297  70.075  1.00  0.00     0.232 OA 
HETATM   18  O   UNL     1     -11.800  15.465  69.347  1.00  0.00    -0.322 OA 
HETATM   19  O   UNL     1     -11.257  17.845  69.197  1.00  0.00     0.859 OA 
ENDBRANCH  13  15
ENDBRANCH   2   6
TORSDOF 2
ENDMDL
MODEL      192
REMARK 921   NORMALIZED FREE ENERGY PREDICTED BY IDOCK:   24.31 KCAL/MOL
REMARK 922        TOTAL FREE ENERGY PREDICTED BY IDOCK:   26.78 KCAL/MOL
REMARK 923 INTER-LIGAND FREE ENERGY PREDICTED BY IDOCK:   21.42 KCAL/MOL
REMARK 924 INTRA-LIGAND FREE ENERGY PREDICTED BY IDOCK:    5.36 KCAL/MOL
REMARK 927      BINDING AFFINITY PREDICTED BY RF-SCORE:    0.00 PKD
ROOT
HETATM    1  N   UNL     1     -14.002  13.025  69.069  1.00  0.00     6.378 N  
HETATM    2  C   UNL     1     -12.953  12.381  68.484  1.00  0.00     2.647 C  
HETATM    3  H1  UNL     1     -14.049  13.112  70.084  1.00  0.00     0.000 HD 
HETATM    4  H2  UNL     1     -14.743  13.420  68.490  1.00  0.00     0.000 HD 
HETATM    5  O   UNL     1     -12.897  12.275  67.262  1.00  0.00     1.135 OA 
ENDROOT
BRANCH   2   6
HETATM    6  C   UNL     1     -11.806  11.974  69.433  1.00  0.00    -0.324 C  
HETATM    7  C   UNL     1     -11.525  13.124  70.436  1.00  0.00     0.208 C  
HETATM    8  C   UNL     1     -10.112  13.096  71.047  1.00  0.00     6.768 C  
HETATM    9  C   UNL     1      -9.047  12.591  70.048  1.00  0.00     3.591 C  
HETATM   10  C   UNL     1      -9.596  12.659  68.631  1.00  0.00    -0.021 C  
HETATM   11  N   UNL     1     -10.582  11.588  68.690  1.00  0.00    -0.201 N  
HETATM   12  C   UNL     1      -9.860  10.529  69.351  1.00  0.00    -0.182 C  
HETATM   13  N   UNL     1      -8.947  11.150  70.238  1.00  0.00     2.016 N  
HETATM   14  O   UNL     1      -9.947   9.338  69.103  1.00  0.00    -0.169 OA 
BRANCH  13  15
HETATM   15  O   UNL     1      -7.630  10.651  70.048  1.00  0.00    -0.073 OA 
HETATM   16  S   UNL     1      -7.597   9.048  69.700  1.00  0.00    -0.082 S  
HETATM   17  O   UNL     1      -8.384   8.343  70.693  1.00  0.00    -0.112 OA 
HETATM   18  O   UNL     1      -6.222   8.688  69.433  1.00  0.00    -0.040 OA 
HETATM   19  O   UNL     1      -8.369   8.954  68.290  1.00  0.00    -0.123 OA 
ENDBRANCH  13  15
ENDBRANCH   2   6
TORSDOF 2
ENDMDL
MODEL      193
REMARK 921   NORMALIZED FREE ENERGY PREDICTED BY IDOCK:   32.24 KCAL/MOL
REMARK 922        TOTAL FREE ENERGY PREDICTED BY IDOCK:   35.64 KCAL/MOL
REMARK 923 INTER-LIGAND FREE ENERGY PREDICTED BY IDOCK:   35.81 KCAL/MOL
REMARK 924 INTRA-LIGAND FREE ENERGY PREDICTED BY IDOCK:   -0.17 KCAL/MOL
REMARK 927      BINDING AFFINITY PREDICTED BY RF-SCORE:    0.00 PKD
ROOT
HETATM    1  N   UNL     1      -9.021  16.884  67.195  1.00  0.00    -0.203 N  
HETATM    2  C   UNL     1      -8.721  15.794  66.434  1.00  0.00    -0.337 C  
HETATM    3  H1  UNL     1      -9.910  16.932  67.693  1.00  0.00     0.000 HD 
HETATM    4  H2  UNL     1      -8.356  17.654  67.267  1.00  0.00     0.000 HD 
HETATM    5  O   UNL     1      -7.652  15.736  65.834  1.00  0.00     0.804 OA 
ENDROOT
BRANCH   2   6
HETATM    6  C   UNL     1      -9.714  14.617  66.531  1.00  0.00    -0.280 C  
HETATM    7  C   UNL     1      -9.873  14.190  68.015  1.00  0.00    -0.223 C  
HETATM    8  C   UNL     1     -10.368  12.744  68.204  1.00  0.00    -0.243 C  
HETATM    9  C   UNL     1      -9.823  11.786  67.121  1.00  0.00    -0.193 C  
HETATM   10  C   UNL     1      -8.631  12.424  66.423  1.00  0.00     0.083 C  
HETATM   11  N   UNL     1      -9.307  13.476  65.676  1.00  0.00     0.142 N  
HETATM   12  C   UNL     1     -10.444  12.787  65.117  1.00  0.00    -0.300 C  
HETATM   13  N   UNL     1     -10.801  11.775  66.042  1.00  0.00    -0.287 N  
HETATM   14  O   UNL     1     -10.924  12.973  64.012  1.00  0.00    -0.387 OA 
BRANCH  13  15
HETATM   15  O   UNL     1     -10.911  10.512  65.400  1.00  0.00    -0.051 OA 
HETATM   16  S   UNL     1     -12.453   9.956  65.338  1.00  0.00    11.398 S  
HETATM   17  O   UNL     1     -13.021  10.019  66.671  1.00  0.00     8.875 OA 
HETATM   18  O   UNL     1     -12.444   8.726  64.580  1.00  0.00    15.207 OA 
HETATM   19  O   UNL     1     -13.207  11.044  64.420  1.00  0.00     1.805 OA 
ENDBRANCH  13  15
ENDBRANCH   2   6
TORSDOF 2
ENDMDL
MODEL      194
REMARK 921   NORMALIZED FREE ENERGY PREDICTED BY IDOCK:   34.79 KCAL/MOL
REMARK 922        TOTAL FREE ENERGY PREDICTED BY IDOCK:   38.48 KCAL/MOL
REMARK 923 INTER-LIGAND FREE ENERGY PREDICTED BY IDOCK:   35.05 KCAL/MOL
REMARK 924 INTRA-LIGAND FREE ENERGY PREDICTED BY IDOCK:    3.43 KCAL/MOL
REMARK 927      BINDING AFFINITY PREDICTED BY RF-SCORE:    0.00 PKD
ROOT
HETATM    1  N   UNL     1      -7.216   7.252  68.482  1.00  0.00    -0.091 N  
HETATM    2  C   UNL     1      -7.124   7.856  69.700  1.00  0.00    -0.061 C  
HETATM    3  H1  UNL     1      -7.558   7.775  67.676  1.00  0.00     0.000 HD 
HETATM    4  H2  UNL     1      -6.944   6.275  68.376  1.00  0.00     0.000 HD 
HETATM    5  O   UNL     1      -6.714   7.227  70.672  1.00  0.00    -0.047 OA 
ENDROOT
BRANCH   2   6
HETATM    6  C   UNL     1      -7.394   9.375  69.716  1.00  0.00    -0.083 C  
HETATM    7  C   UNL     1      -6.418  10.088  68.743  1.00  0.00    -0.045 C  
HETATM    8  C   UNL     1      -6.198  11.580  69.054  1.00  0.00    -0.060 C  
HETATM    9  C   UNL     1      -6.219  11.878  70.570  1.00  0.00     0.196 C  
HETATM   10  C   UNL     1      -6.031  10.586  71.351  1.00  0.00     0.290 C  
HETATM   11  N   UNL     1      -7.309   9.940  71.084  1.00  0.00     0.389 N  
HETATM   12  C   UNL     1      -8.254  11.012  71.286  1.00  0.00     6.350 C  
HETATM   13  N   UNL     1      -7.596  12.208  70.911  1.00  0.00     4.898 N  
HETATM   14  O   UNL     1      -9.360  10.908  71.790  1.00  0.00     6.328 OA 
BRANCH  13  15
HETATM   15  O   UNL     1      -7.699  13.189  71.934  1.00  0.00     7.430 OA 
HETATM   16  S   UNL     1      -6.567  13.011  73.108  1.00  0.00     5.230 S  
HETATM   17  O   UNL     1      -6.591  11.637  73.570  1.00  0.00     4.108 OA 
HETATM   18  O   UNL     1      -6.713  14.118  74.027  1.00  0.00     0.534 OA 
HETATM   19  O   UNL     1      -5.178  13.254  72.329  1.00  0.00    -0.316 OA 
ENDBRANCH  13  15
ENDBRANCH   2   6
TORSDOF 2
ENDMDL
