MODEL        1
REMARK 921   NORMALIZED FREE ENERGY PREDICTED BY IDOCK:   -6.69 KCAL/MOL
REMARK 922        TOTAL FREE ENERGY PREDICTED BY IDOCK:  -10.05 KCAL/MOL
REMARK 923 INTER-LIGAND FREE ENERGY PREDICTED BY IDOCK:   -9.04 KCAL/MOL
REMARK 924 INTRA-LIGAND FREE ENERGY PREDICTED BY IDOCK:   -1.00 KCAL/MOL
REMARK 927      BINDING AFFINITY PREDICTED BY RF-SCORE:    0.00 PKD
ROOT
HETATM    1  C   UNL     1     -12.480  11.888  63.237  1.00  0.00    -0.384 C  
HETATM    2  O   UNL     1     -12.315  13.304  63.241  1.00  0.00    -0.721 OA 
ENDROOT
BRANCH   2   3
HETATM    3  C   UNL     1     -12.004  13.848  64.457  1.00  0.00    -0.437 A  
HETATM    4  C   UNL     1     -12.605  13.245  65.561  1.00  0.00    -0.505 A  
HETATM    5  C   UNL     1     -12.368  13.731  66.851  1.00  0.00    -0.328 A  
HETATM    6  C   UNL     1     -11.512  14.823  67.047  1.00  0.00    -0.362 A  
HETATM    7  C   UNL     1     -10.891  15.405  65.936  1.00  0.00    -0.328 A  
HETATM    8  C   UNL     1     -11.126  14.912  64.650  1.00  0.00    -0.335 A  
BRANCH   6   9
HETATM    9  C   UNL     1     -11.305  15.328  68.440  1.00  0.00    -0.329 C  
HETATM   10  O   UNL     1     -11.350  16.541  68.658  1.00  0.00    -0.344 OA 
BRANCH   9  11
HETATM   11  C   UNL     1     -10.955  14.361  69.546  1.00  0.00    -0.230 C  
BRANCH  11  12
HETATM   12  C   UNL     1     -12.141  13.742  70.240  1.00  0.00    -0.355 C  
HETATM   13  O   UNL     1     -13.095  14.401  70.649  1.00  0.00    -0.347 OA 
BRANCH  12  14
HETATM   14  C   UNL     1     -12.148  12.270  70.454  1.00  0.00    -0.385 A  
HETATM   15  C   UNL     1     -12.939  11.773  71.489  1.00  0.00    -0.446 A  
HETATM   16  C   UNL     1     -12.937  10.411  71.791  1.00  0.00    -0.580 A  
HETATM   17  C   UNL     1     -12.152   9.501  71.065  1.00  0.00    -0.398 A  
HETATM   18  C   UNL     1     -11.396  11.381  69.682  1.00  0.00    -0.347 A  
HETATM   19  C   UNL     1     -11.405  10.012  69.985  1.00  0.00    -0.334 A  
BRANCH  17  20
HETATM   20  C   UNL     1     -12.073   8.011  71.444  1.00  0.00    -0.332 C  
HETATM   21  C   UNL     1     -11.315   7.158  70.399  1.00  0.00    -0.325 C  
HETATM   22  C   UNL     1     -11.351   7.837  72.794  1.00  0.00    -0.446 C  
HETATM   23  C   UNL     1     -13.497   7.423  71.556  1.00  0.00    -0.445 C  
ENDBRANCH  17  20
ENDBRANCH  12  14
ENDBRANCH  11  12
ENDBRANCH   9  11
ENDBRANCH   6   9
ENDBRANCH   2   3
TORSDOF 6
ENDMDL
MODEL        2
REMARK 921   NORMALIZED FREE ENERGY PREDICTED BY IDOCK:   -6.54 KCAL/MOL
REMARK 922        TOTAL FREE ENERGY PREDICTED BY IDOCK:   -9.84 KCAL/MOL
REMARK 923 INTER-LIGAND FREE ENERGY PREDICTED BY IDOCK:   -8.70 KCAL/MOL
REMARK 924 INTRA-LIGAND FREE ENERGY PREDICTED BY IDOCK:   -1.14 KCAL/MOL
REMARK 927      BINDING AFFINITY PREDICTED BY RF-SCORE:    0.00 PKD
ROOT
HETATM    1  C   UNL     1     -13.745  15.618  72.829  1.00  0.00    -0.578 C  
HETATM    2  O   UNL     1     -13.871  14.199  72.857  1.00  0.00    -0.639 OA 
ENDROOT
BRANCH   2   3
HETATM    3  C   UNL     1     -13.270  13.543  71.818  1.00  0.00    -0.404 A  
HETATM    4  C   UNL     1     -12.782  14.352  70.793  1.00  0.00    -0.427 A  
HETATM    5  C   UNL     1     -12.163  13.784  69.675  1.00  0.00    -0.359 A  
HETATM    6  C   UNL     1     -12.014  12.394  69.580  1.00  0.00    -0.341 A  
HETATM    7  C   UNL     1     -12.481  11.590  70.626  1.00  0.00    -0.405 A  
HETATM    8  C   UNL     1     -13.095  12.163  71.744  1.00  0.00    -0.457 A  
BRANCH   6   9
HETATM    9  C   UNL     1     -11.369  11.825  68.357  1.00  0.00    -0.270 C  
HETATM   10  O   UNL     1     -11.755  10.740  67.916  1.00  0.00    -0.543 OA 
BRANCH   9  11
HETATM   11  C   UNL     1     -10.194  12.537  67.727  1.00  0.00    -0.217 C  
BRANCH  11  12
HETATM   12  C   UNL     1     -10.532  13.342  66.498  1.00  0.00    -0.283 C  
HETATM   13  O   UNL     1     -10.991  12.838  65.475  1.00  0.00    -0.273 OA 
BRANCH  12  14
HETATM   14  C   UNL     1     -10.279  14.808  66.521  1.00  0.00    -0.281 A  
HETATM   15  C   UNL     1      -9.696  15.343  67.669  1.00  0.00    -0.211 A  
HETATM   16  C   UNL     1      -9.496  16.719  67.785  1.00  0.00    -0.228 A  
HETATM   17  C   UNL     1      -9.864  17.603  66.758  1.00  0.00    -0.304 A  
HETATM   18  C   UNL     1     -10.609  15.657  65.462  1.00  0.00    -0.422 A  
HETATM   19  C   UNL     1     -10.397  17.038  65.582  1.00  0.00    -0.226 A  
BRANCH  17  20
HETATM   20  C   UNL     1      -9.730  19.129  66.909  1.00  0.00    -0.389 C  
HETATM   21  C   UNL     1     -10.122  19.636  68.317  1.00  0.00    -0.560 C  
HETATM   22  C   UNL     1      -8.276  19.568  66.647  1.00  0.00    -0.329 C  
HETATM   23  C   UNL     1     -10.659  19.839  65.900  1.00  0.00    -0.557 C  
ENDBRANCH  17  20
ENDBRANCH  12  14
ENDBRANCH  11  12
ENDBRANCH   9  11
ENDBRANCH   6   9
ENDBRANCH   2   3
TORSDOF 6
ENDMDL
MODEL        3
REMARK 921   NORMALIZED FREE ENERGY PREDICTED BY IDOCK:   -6.47 KCAL/MOL
REMARK 922        TOTAL FREE ENERGY PREDICTED BY IDOCK:   -9.74 KCAL/MOL
REMARK 923 INTER-LIGAND FREE ENERGY PREDICTED BY IDOCK:   -8.35 KCAL/MOL
REMARK 924 INTRA-LIGAND FREE ENERGY PREDICTED BY IDOCK:   -1.39 KCAL/MOL
REMARK 927      BINDING AFFINITY PREDICTED BY RF-SCORE:    0.00 PKD
ROOT
HETATM    1  C   UNL     1     -12.974  15.858  73.422  1.00  0.00    -0.583 C  
HETATM    2  O   UNL     1     -12.001  16.265  72.464  1.00  0.00    -0.521 OA 
ENDROOT
BRANCH   2   3
HETATM    3  C   UNL     1     -11.929  15.485  71.344  1.00  0.00    -0.394 A  
HETATM    4  C   UNL     1     -11.406  16.103  70.209  1.00  0.00    -0.363 A  
HETATM    5  C   UNL     1     -11.301  15.401  69.004  1.00  0.00    -0.324 A  
HETATM    6  C   UNL     1     -11.709  14.063  68.929  1.00  0.00    -0.375 A  
HETATM    7  C   UNL     1     -12.207  13.441  70.079  1.00  0.00    -0.367 A  
HETATM    8  C   UNL     1     -12.305  14.145  71.283  1.00  0.00    -0.447 A  
BRANCH   6   9
HETATM    9  C   UNL     1     -11.604  13.355  67.615  1.00  0.00    -0.340 C  
HETATM   10  O   UNL     1     -11.062  12.248  67.564  1.00  0.00    -0.247 OA 
BRANCH   9  11
HETATM   11  C   UNL     1     -12.076  14.039  66.353  1.00  0.00    -0.483 C  
BRANCH  11  12
HETATM   12  C   UNL     1     -10.971  14.518  65.446  1.00  0.00    -0.342 C  
HETATM   13  O   UNL     1     -10.586  13.882  64.467  1.00  0.00    -0.424 OA 
BRANCH  12  14
HETATM   14  C   UNL     1     -10.304  15.810  65.764  1.00  0.00    -0.390 A  
HETATM   15  C   UNL     1      -8.948  15.771  66.089  1.00  0.00    -0.372 A  
HETATM   16  C   UNL     1      -8.278  16.935  66.466  1.00  0.00    -0.320 A  
HETATM   17  C   UNL     1      -8.936  18.174  66.524  1.00  0.00    -0.288 A  
HETATM   18  C   UNL     1     -10.972  17.036  65.762  1.00  0.00     0.086 A  
HETATM   19  C   UNL     1     -10.290  18.204  66.134  1.00  0.00    -0.394 A  
BRANCH  17  20
HETATM   20  C   UNL     1      -8.231  19.449  67.022  1.00  0.00    -0.297 C  
HETATM   21  C   UNL     1      -7.166  19.979  66.034  1.00  0.00    -0.320 C  
HETATM   22  C   UNL     1      -9.257  20.577  67.246  1.00  0.00    -0.500 C  
HETATM   23  C   UNL     1      -7.505  19.158  68.354  1.00  0.00    -0.342 C  
ENDBRANCH  17  20
ENDBRANCH  12  14
ENDBRANCH  11  12
ENDBRANCH   9  11
ENDBRANCH   6   9
ENDBRANCH   2   3
TORSDOF 6
ENDMDL
MODEL        4
REMARK 921   NORMALIZED FREE ENERGY PREDICTED BY IDOCK:   -6.42 KCAL/MOL
REMARK 922        TOTAL FREE ENERGY PREDICTED BY IDOCK:   -9.68 KCAL/MOL
REMARK 923 INTER-LIGAND FREE ENERGY PREDICTED BY IDOCK:   -8.37 KCAL/MOL
REMARK 924 INTRA-LIGAND FREE ENERGY PREDICTED BY IDOCK:   -1.30 KCAL/MOL
REMARK 927      BINDING AFFINITY PREDICTED BY RF-SCORE:    0.00 PKD
ROOT
HETATM    1  C   UNL     1      -6.196  17.236  68.744  1.00  0.00    -0.176 C  
HETATM    2  O   UNL     1      -7.577  17.357  69.075  1.00  0.00    -0.245 OA 
ENDROOT
BRANCH   2   3
HETATM    3  C   UNL     1      -8.445  17.068  68.058  1.00  0.00    -0.216 A  
HETATM    4  C   UNL     1      -8.142  15.932  67.309  1.00  0.00    -0.213 A  
HETATM    5  C   UNL     1      -8.955  15.553  66.236  1.00  0.00    -0.362 A  
HETATM    6  C   UNL     1     -10.091  16.305  65.911  1.00  0.00    -0.381 A  
HETATM    7  C   UNL     1     -10.404  17.428  66.685  1.00  0.00    -0.306 A  
HETATM    8  C   UNL     1      -9.592  17.800  67.760  1.00  0.00    -0.272 A  
BRANCH   6   9
HETATM    9  C   UNL     1     -10.920  15.879  64.741  1.00  0.00    -0.375 C  
HETATM   10  O   UNL     1     -11.456  16.736  64.034  1.00  0.00    -1.198 OA 
BRANCH   9  11
HETATM   11  C   UNL     1     -11.167  14.410  64.488  1.00  0.00    -0.314 C  
BRANCH  11  12
HETATM   12  C   UNL     1     -12.171  13.774  65.416  1.00  0.00    -0.440 C  
HETATM   13  O   UNL     1     -13.374  14.023  65.370  1.00  0.00    -0.721 OA 
BRANCH  12  14
HETATM   14  C   UNL     1     -11.678  12.818  66.444  1.00  0.00    -0.464 A  
HETATM   15  C   UNL     1     -11.033  11.665  65.995  1.00  0.00    -0.338 A  
HETATM   16  C   UNL     1     -10.610  10.694  66.902  1.00  0.00    -0.311 A  
HETATM   17  C   UNL     1     -10.809  10.844  68.284  1.00  0.00    -0.272 A  
HETATM   18  C   UNL     1     -11.844  13.018  67.816  1.00  0.00    -0.395 A  
HETATM   19  C   UNL     1     -11.409  12.041  68.723  1.00  0.00    -0.331 A  
BRANCH  17  20
HETATM   20  C   UNL     1     -10.426   9.740  69.286  1.00  0.00    -0.236 C  
HETATM   21  C   UNL     1      -8.992   9.898  69.844  1.00  0.00    -0.231 C  
HETATM   22  C   UNL     1     -11.393   9.746  70.487  1.00  0.00    -0.382 C  
HETATM   23  C   UNL     1     -10.490   8.360  68.596  1.00  0.00    -0.197 C  
ENDBRANCH  17  20
ENDBRANCH  12  14
ENDBRANCH  11  12
ENDBRANCH   9  11
ENDBRANCH   6   9
ENDBRANCH   2   3
TORSDOF 6
ENDMDL
MODEL        5
REMARK 921   NORMALIZED FREE ENERGY PREDICTED BY IDOCK:   -6.41 KCAL/MOL
REMARK 922        TOTAL FREE ENERGY PREDICTED BY IDOCK:   -9.66 KCAL/MOL
REMARK 923 INTER-LIGAND FREE ENERGY PREDICTED BY IDOCK:   -8.32 KCAL/MOL
REMARK 924 INTRA-LIGAND FREE ENERGY PREDICTED BY IDOCK:   -1.35 KCAL/MOL
REMARK 927      BINDING AFFINITY PREDICTED BY RF-SCORE:    0.00 PKD
ROOT
HETATM    1  C   UNL     1     -13.923  13.751  72.234  1.00  0.00    -0.573 C  
HETATM    2  O   UNL     1     -12.549  13.816  71.861  1.00  0.00    -0.281 OA 
ENDROOT
BRANCH   2   3
HETATM    3  C   UNL     1     -12.273  13.400  70.588  1.00  0.00    -0.350 A  
HETATM    4  C   UNL     1     -12.051  12.032  70.433  1.00  0.00    -0.407 A  
HETATM    5  C   UNL     1     -11.746  11.501  69.176  1.00  0.00    -0.395 A  
HETATM    6  C   UNL     1     -11.674  12.338  68.055  1.00  0.00    -0.417 A  
HETATM    7  C   UNL     1     -11.925  13.706  68.213  1.00  0.00    -0.385 A  
HETATM    8  C   UNL     1     -12.235  14.231  69.471  1.00  0.00    -0.341 A  
BRANCH   6   9
HETATM    9  C   UNL     1     -11.320  11.734  66.733  1.00  0.00    -0.320 C  
HETATM   10  O   UNL     1     -10.532  10.787  66.690  1.00  0.00    -0.236 OA 
BRANCH   9  11
HETATM   11  C   UNL     1     -11.857  12.345  65.459  1.00  0.00    -0.469 C  
BRANCH  11  12
HETATM   12  C   UNL     1     -10.839  13.110  64.651  1.00  0.00    -0.366 C  
HETATM   13  O   UNL     1     -10.255  12.626  63.684  1.00  0.00    -0.383 OA 
BRANCH  12  14
HETATM   14  C   UNL     1     -10.515  14.504  65.057  1.00  0.00    -0.454 A  
HETATM   15  C   UNL     1      -9.446  14.688  65.934  1.00  0.00    -0.238 A  
HETATM   16  C   UNL     1      -9.133  15.960  66.410  1.00  0.00    -0.355 A  
HETATM   17  C   UNL     1      -9.870  17.091  66.021  1.00  0.00    -0.263 A  
HETATM   18  C   UNL     1     -11.234  15.616  64.613  1.00  0.00    -0.380 A  
HETATM   19  C   UNL     1     -10.908  16.894  65.089  1.00  0.00    -0.105 A  
BRANCH  17  20
HETATM   20  C   UNL     1      -9.590  18.487  66.607  1.00  0.00    -0.328 C  
HETATM   21  C   UNL     1      -9.830  18.564  68.133  1.00  0.00    -0.376 C  
HETATM   22  C   UNL     1      -8.126  18.893  66.348  1.00  0.00    -0.306 C  
HETATM   23  C   UNL     1     -10.524  19.527  65.951  1.00  0.00    -0.585 C  
ENDBRANCH  17  20
ENDBRANCH  12  14
ENDBRANCH  11  12
ENDBRANCH   9  11
ENDBRANCH   6   9
ENDBRANCH   2   3
TORSDOF 6
ENDMDL
MODEL        6
REMARK 921   NORMALIZED FREE ENERGY PREDICTED BY IDOCK:   -6.41 KCAL/MOL
REMARK 922        TOTAL FREE ENERGY PREDICTED BY IDOCK:   -9.66 KCAL/MOL
REMARK 923 INTER-LIGAND FREE ENERGY PREDICTED BY IDOCK:   -8.54 KCAL/MOL
REMARK 924 INTRA-LIGAND FREE ENERGY PREDICTED BY IDOCK:   -1.12 KCAL/MOL
REMARK 927      BINDING AFFINITY PREDICTED BY RF-SCORE:    0.00 PKD
ROOT
HETATM    1  C   UNL     1     -12.257  10.524  71.145  1.00  0.00    -0.391 C  
HETATM    2  O   UNL     1     -11.134  10.944  70.375  1.00  0.00    -0.225 OA 
ENDROOT
BRANCH   2   3
HETATM    3  C   UNL     1     -11.432  11.720  69.289  1.00  0.00    -0.306 A  
HETATM    4  C   UNL     1     -11.291  11.102  68.047  1.00  0.00    -0.380 A  
HETATM    5  C   UNL     1     -11.555  11.810  66.870  1.00  0.00    -0.310 A  
HETATM    6  C   UNL     1     -11.977  13.145  66.928  1.00  0.00    -0.421 A  
HETATM    7  C   UNL     1     -12.142  13.749  68.180  1.00  0.00    -0.316 A  
HETATM    8  C   UNL     1     -11.883  13.037  69.354  1.00  0.00    -0.380 A  
BRANCH   6   9
HETATM    9  C   UNL     1     -12.224  13.873  65.645  1.00  0.00    -0.452 C  
HETATM   10  O   UNL     1     -13.379  13.995  65.230  1.00  0.00    -0.741 OA 
BRANCH   9  11
HETATM   11  C   UNL     1     -11.056  14.371  64.826  1.00  0.00    -0.402 C  
BRANCH  11  12
HETATM   12  C   UNL     1     -10.837  15.861  64.885  1.00  0.00    -0.400 C  
HETATM   13  O   UNL     1     -11.448  16.655  64.172  1.00  0.00    -1.131 OA 
BRANCH  12  14
HETATM   14  C   UNL     1      -9.822  16.391  65.835  1.00  0.00    -0.344 A  
HETATM   15  C   UNL     1      -9.971  17.708  66.268  1.00  0.00    -0.324 A  
HETATM   16  C   UNL     1      -9.017  18.289  67.103  1.00  0.00    -0.264 A  
HETATM   17  C   UNL     1      -7.889  17.574  67.538  1.00  0.00    -0.210 A  
HETATM   18  C   UNL     1      -8.738  15.639  66.292  1.00  0.00    -0.325 A  
HETATM   19  C   UNL     1      -7.787  16.227  67.139  1.00  0.00    -0.225 A  
BRANCH  17  20
HETATM   20  C   UNL     1      -6.785  18.232  68.387  1.00  0.00    -0.229 C  
HETATM   21  C   UNL     1      -6.159  17.266  69.421  1.00  0.00    -0.236 C  
HETATM   22  C   UNL     1      -5.647  18.744  67.483  1.00  0.00    -0.161 C  
HETATM   23  C   UNL     1      -7.373  19.420  69.179  1.00  0.00    -0.364 C  
ENDBRANCH  17  20
ENDBRANCH  12  14
ENDBRANCH  11  12
ENDBRANCH   9  11
ENDBRANCH   6   9
ENDBRANCH   2   3
TORSDOF 6
ENDMDL
MODEL        7
REMARK 921   NORMALIZED FREE ENERGY PREDICTED BY IDOCK:   -6.32 KCAL/MOL
REMARK 922        TOTAL FREE ENERGY PREDICTED BY IDOCK:   -9.53 KCAL/MOL
REMARK 923 INTER-LIGAND FREE ENERGY PREDICTED BY IDOCK:   -8.45 KCAL/MOL
REMARK 924 INTRA-LIGAND FREE ENERGY PREDICTED BY IDOCK:   -1.08 KCAL/MOL
REMARK 927      BINDING AFFINITY PREDICTED BY RF-SCORE:    0.00 PKD
ROOT
HETATM    1  C   UNL     1      -8.280   7.801  64.196  1.00  0.00    -0.007 C  
HETATM    2  O   UNL     1      -8.197   9.035  63.487  1.00  0.00    -0.160 OA 
ENDROOT
BRANCH   2   3
HETATM    3  C   UNL     1      -9.074  10.000  63.898  1.00  0.00    -0.259 A  
HETATM    4  C   UNL     1      -9.413  10.957  62.942  1.00  0.00    -0.377 A  
HETATM    5  C   UNL     1     -10.291  11.998  63.261  1.00  0.00    -0.398 A  
HETATM    6  C   UNL     1     -10.849  12.083  64.543  1.00  0.00    -0.363 A  
HETATM    7  C   UNL     1     -10.526  11.103  65.489  1.00  0.00    -0.317 A  
HETATM    8  C   UNL     1      -9.653  10.061  65.164  1.00  0.00    -0.356 A  
BRANCH   6   9
HETATM    9  C   UNL     1     -11.763  13.226  64.851  1.00  0.00    -0.342 C  
HETATM   10  O   UNL     1     -12.983  13.072  64.748  1.00  0.00    -0.735 OA 
BRANCH   9  11
HETATM   11  C   UNL     1     -11.186  14.579  65.194  1.00  0.00    -0.367 C  
BRANCH  11  12
HETATM   12  C   UNL     1     -10.371  14.611  66.462  1.00  0.00    -0.282 C  
HETATM   13  O   UNL     1      -9.143  14.676  66.465  1.00  0.00    -0.261 OA 
BRANCH  12  14
HETATM   14  C   UNL     1     -11.085  14.541  67.765  1.00  0.00    -0.295 A  
HETATM   15  C   UNL     1     -11.390  15.746  68.398  1.00  0.00    -0.372 A  
HETATM   16  C   UNL     1     -11.996  15.752  69.654  1.00  0.00    -0.332 A  
HETATM   17  C   UNL     1     -12.322  14.557  70.316  1.00  0.00    -0.408 A  
HETATM   18  C   UNL     1     -11.445  13.338  68.376  1.00  0.00    -0.349 A  
HETATM   19  C   UNL     1     -12.061  13.351  69.636  1.00  0.00    -0.349 A  
BRANCH  17  20
HETATM   20  C   UNL     1     -12.910  14.549  71.739  1.00  0.00    -0.415 C  
HETATM   21  C   UNL     1     -13.063  13.125  72.324  1.00  0.00    -0.458 C  
HETATM   22  C   UNL     1     -12.005  15.349  72.698  1.00  0.00    -0.553 C  
HETATM   23  C   UNL     1     -14.317  15.184  71.728  1.00  0.00    -0.696 C  
ENDBRANCH  17  20
ENDBRANCH  12  14
ENDBRANCH  11  12
ENDBRANCH   9  11
ENDBRANCH   6   9
ENDBRANCH   2   3
TORSDOF 6
ENDMDL
MODEL        8
REMARK 921   NORMALIZED FREE ENERGY PREDICTED BY IDOCK:   -6.31 KCAL/MOL
REMARK 922        TOTAL FREE ENERGY PREDICTED BY IDOCK:   -9.52 KCAL/MOL
REMARK 923 INTER-LIGAND FREE ENERGY PREDICTED BY IDOCK:   -8.28 KCAL/MOL
REMARK 924 INTRA-LIGAND FREE ENERGY PREDICTED BY IDOCK:   -1.24 KCAL/MOL
REMARK 927      BINDING AFFINITY PREDICTED BY RF-SCORE:    0.00 PKD
ROOT
HETATM    1  C   UNL     1      -9.983  19.278  66.393  1.00  0.00    -0.405 C  
HETATM    2  O   UNL     1      -9.203  18.225  66.953  1.00  0.00    -0.267 OA 
ENDROOT
BRANCH   2   3
HETATM    3  C   UNL     1      -9.473  16.978  66.461  1.00  0.00    -0.276 A  
HETATM    4  C   UNL     1     -10.568  16.891  65.602  1.00  0.00    -0.231 A  
HETATM    5  C   UNL     1     -10.942  15.660  65.054  1.00  0.00    -0.445 A  
HETATM    6  C   UNL     1     -10.210  14.503  65.352  1.00  0.00    -0.415 A  
HETATM    7  C   UNL     1      -9.095  14.604  66.192  1.00  0.00    -0.125 A  
HETATM    8  C   UNL     1      -8.722  15.837  66.734  1.00  0.00    -0.305 A  
BRANCH   6   9
HETATM    9  C   UNL     1     -10.658  13.202  64.764  1.00  0.00    -0.372 C  
HETATM   10  O   UNL     1     -10.259  12.873  63.645  1.00  0.00    -0.361 OA 
BRANCH   9  11
HETATM   11  C   UNL     1     -11.663  12.350  65.504  1.00  0.00    -0.459 C  
BRANCH  11  12
HETATM   12  C   UNL     1     -11.179  11.813  66.827  1.00  0.00    -0.328 C  
HETATM   13  O   UNL     1     -10.473  10.811  66.923  1.00  0.00    -0.230 OA 
BRANCH  12  14
HETATM   14  C   UNL     1     -11.592  12.517  68.070  1.00  0.00    -0.395 A  
HETATM   15  C   UNL     1     -11.611  11.778  69.253  1.00  0.00    -0.378 A  
HETATM   16  C   UNL     1     -12.055  12.356  70.441  1.00  0.00    -0.381 A  
HETATM   17  C   UNL     1     -12.486  13.692  70.490  1.00  0.00    -0.394 A  
HETATM   18  C   UNL     1     -11.965  13.862  68.099  1.00  0.00    -0.385 A  
HETATM   19  C   UNL     1     -12.403  14.441  69.299  1.00  0.00    -0.188 A  
BRANCH  17  20
HETATM   20  C   UNL     1     -13.061  14.316  71.776  1.00  0.00    -0.435 C  
HETATM   21  C   UNL     1     -12.011  15.112  72.586  1.00  0.00    -0.486 C  
HETATM   22  C   UNL     1     -14.212  15.283  71.434  1.00  0.00    -0.589 C  
HETATM   23  C   UNL     1     -13.596  13.204  72.703  1.00  0.00    -0.430 C  
ENDBRANCH  17  20
ENDBRANCH  12  14
ENDBRANCH  11  12
ENDBRANCH   9  11
ENDBRANCH   6   9
ENDBRANCH   2   3
TORSDOF 6
ENDMDL
MODEL        9
REMARK 921   NORMALIZED FREE ENERGY PREDICTED BY IDOCK:   -6.20 KCAL/MOL
REMARK 922        TOTAL FREE ENERGY PREDICTED BY IDOCK:   -9.38 KCAL/MOL
REMARK 923 INTER-LIGAND FREE ENERGY PREDICTED BY IDOCK:   -8.56 KCAL/MOL
REMARK 924 INTRA-LIGAND FREE ENERGY PREDICTED BY IDOCK:   -0.83 KCAL/MOL
REMARK 927      BINDING AFFINITY PREDICTED BY RF-SCORE:    0.00 PKD
ROOT
HETATM    1  C   UNL     1     -10.588   7.400  73.210  1.00  0.00    -0.392 C  
HETATM    2  O   UNL     1     -11.797   8.079  72.881  1.00  0.00    -0.337 OA 
ENDROOT
BRANCH   2   3
HETATM    3  C   UNL     1     -11.677   9.047  71.923  1.00  0.00    -0.374 A  
HETATM    4  C   UNL     1     -10.558   8.946  71.098  1.00  0.00    -0.335 A  
HETATM    5  C   UNL     1     -10.329   9.892  70.094  1.00  0.00    -0.336 A  
HETATM    6  C   UNL     1     -11.231  10.946  69.899  1.00  0.00    -0.355 A  
HETATM    7  C   UNL     1     -12.366  11.026  70.713  1.00  0.00    -0.496 A  
HETATM    8  C   UNL     1     -12.594  10.074  71.711  1.00  0.00    -0.504 A  
BRANCH   6   9
HETATM    9  C   UNL     1     -10.936  11.951  68.831  1.00  0.00    -0.238 C  
HETATM   10  O   UNL     1      -9.794  12.032  68.372  1.00  0.00    -0.207 OA 
BRANCH   9  11
HETATM   11  C   UNL     1     -12.011  12.917  68.390  1.00  0.00    -0.289 C  
BRANCH  11  12
HETATM   12  C   UNL     1     -11.754  13.580  67.060  1.00  0.00    -0.383 C  
HETATM   13  O   UNL     1     -11.981  13.030  65.985  1.00  0.00    -0.400 OA 
BRANCH  12  14
HETATM   14  C   UNL     1     -11.181  14.953  67.053  1.00  0.00    -0.344 A  
HETATM   15  C   UNL     1     -11.114  15.629  68.270  1.00  0.00    -0.336 A  
HETATM   16  C   UNL     1     -10.653  16.945  68.324  1.00  0.00    -0.363 A  
HETATM   17  C   UNL     1     -10.239  17.625  67.167  1.00  0.00    -0.342 A  
HETATM   18  C   UNL     1     -10.727  15.585  65.893  1.00  0.00    -0.346 A  
HETATM   19  C   UNL     1     -10.257  16.905  65.955  1.00  0.00    -0.350 A  
BRANCH  17  20
HETATM   20  C   UNL     1      -9.812  19.104  67.200  1.00  0.00    -0.411 C  
HETATM   21  C   UNL     1      -8.281  19.296  67.091  1.00  0.00    -0.292 C  
HETATM   22  C   UNL     1     -10.460  19.875  66.033  1.00  0.00    -0.580 C  
HETATM   23  C   UNL     1     -10.253  19.746  68.534  1.00  0.00    -0.547 C  
ENDBRANCH  17  20
ENDBRANCH  12  14
ENDBRANCH  11  12
ENDBRANCH   9  11
ENDBRANCH   6   9
ENDBRANCH   2   3
TORSDOF 6
ENDMDL
MODEL       10
REMARK 921   NORMALIZED FREE ENERGY PREDICTED BY IDOCK:   -6.16 KCAL/MOL
REMARK 922        TOTAL FREE ENERGY PREDICTED BY IDOCK:   -9.32 KCAL/MOL
REMARK 923 INTER-LIGAND FREE ENERGY PREDICTED BY IDOCK:   -8.27 KCAL/MOL
REMARK 924 INTRA-LIGAND FREE ENERGY PREDICTED BY IDOCK:   -1.05 KCAL/MOL
REMARK 927      BINDING AFFINITY PREDICTED BY RF-SCORE:    0.00 PKD
ROOT
HETATM    1  C   UNL     1     -10.013  11.279  63.233  1.00  0.00    -0.393 C  
HETATM    2  O   UNL     1     -11.110  12.187  63.272  1.00  0.00    -0.410 OA 
ENDROOT
BRANCH   2   3
HETATM    3  C   UNL     1     -11.281  12.841  64.462  1.00  0.00    -0.333 A  
HETATM    4  C   UNL     1     -10.157  13.503  64.954  1.00  0.00    -0.280 A  
HETATM    5  C   UNL     1     -10.216  14.191  66.171  1.00  0.00    -0.313 A  
HETATM    6  C   UNL     1     -11.411  14.232  66.901  1.00  0.00    -0.377 A  
HETATM    7  C   UNL     1     -12.542  13.588  66.386  1.00  0.00    -0.244 A  
HETATM    8  C   UNL     1     -12.480  12.907  65.167  1.00  0.00    -0.561 A  
BRANCH   6   9
HETATM    9  C   UNL     1     -11.425  14.956  68.209  1.00  0.00    -0.324 C  
HETATM   10  O   UNL     1     -11.649  16.169  68.229  1.00  0.00    -0.321 OA 
BRANCH   9  11
HETATM   11  C   UNL     1     -11.076  14.219  69.482  1.00  0.00    -0.244 C  
BRANCH  11  12
HETATM   12  C   UNL     1     -12.260  13.668  70.234  1.00  0.00    -0.353 C  
HETATM   13  O   UNL     1     -13.238  14.350  70.533  1.00  0.00    -0.266 OA 
BRANCH  12  14
HETATM   14  C   UNL     1     -12.233  12.239  70.648  1.00  0.00    -0.378 A  
HETATM   15  C   UNL     1     -11.325  11.399  70.004  1.00  0.00    -0.260 A  
HETATM   16  C   UNL     1     -11.296  10.035  70.294  1.00  0.00    -0.376 A  
HETATM   17  C   UNL     1     -12.165   9.467  71.239  1.00  0.00    -0.433 A  
HETATM   18  C   UNL     1     -13.074  11.712  71.630  1.00  0.00    -0.456 A  
HETATM   19  C   UNL     1     -13.034  10.341  71.923  1.00  0.00    -0.554 A  
BRANCH  17  20
HETATM   20  C   UNL     1     -12.203   7.951  71.504  1.00  0.00    -0.338 C  
HETATM   21  C   UNL     1     -13.635   7.367  71.486  1.00  0.00    -0.454 C  
HETATM   22  C   UNL     1     -11.383   7.199  70.436  1.00  0.00    -0.325 C  
HETATM   23  C   UNL     1     -11.611   7.648  72.898  1.00  0.00    -0.280 C  
ENDBRANCH  17  20
ENDBRANCH  12  14
ENDBRANCH  11  12
ENDBRANCH   9  11
ENDBRANCH   6   9
ENDBRANCH   2   3
TORSDOF 6
ENDMDL
MODEL       11
REMARK 921   NORMALIZED FREE ENERGY PREDICTED BY IDOCK:   -6.13 KCAL/MOL
REMARK 922        TOTAL FREE ENERGY PREDICTED BY IDOCK:   -9.29 KCAL/MOL
REMARK 923 INTER-LIGAND FREE ENERGY PREDICTED BY IDOCK:   -8.47 KCAL/MOL
REMARK 924 INTRA-LIGAND FREE ENERGY PREDICTED BY IDOCK:   -0.82 KCAL/MOL
REMARK 927      BINDING AFFINITY PREDICTED BY RF-SCORE:    0.00 PKD
ROOT
HETATM    1  C   UNL     1     -10.706   7.342  73.108  1.00  0.00    -0.387 C  
HETATM    2  O   UNL     1     -11.783   8.184  72.704  1.00  0.00    -0.399 OA 
ENDROOT
BRANCH   2   3
HETATM    3  C   UNL     1     -11.501   9.031  71.669  1.00  0.00    -0.361 A  
HETATM    4  C   UNL     1     -12.440  10.035  71.436  1.00  0.00    -0.510 A  
HETATM    5  C   UNL     1     -12.258  10.948  70.392  1.00  0.00    -0.453 A  
HETATM    6  C   UNL     1     -11.122  10.869  69.576  1.00  0.00    -0.326 A  
HETATM    7  C   UNL     1     -10.170   9.875  69.833  1.00  0.00    -0.298 A  
HETATM    8  C   UNL     1     -10.354   8.969  70.882  1.00  0.00    -0.323 A  
BRANCH   6   9
HETATM    9  C   UNL     1     -10.977  11.848  68.454  1.00  0.00    -0.232 C  
HETATM   10  O   UNL     1      -9.962  11.824  67.755  1.00  0.00    -0.183 OA 
BRANCH   9  11
HETATM   11  C   UNL     1     -12.030  12.913  68.245  1.00  0.00    -0.297 C  
BRANCH  11  12
HETATM   12  C   UNL     1     -11.893  13.687  66.959  1.00  0.00    -0.408 C  
HETATM   13  O   UNL     1     -12.269  13.251  65.874  1.00  0.00    -0.418 OA 
BRANCH  12  14
HETATM   14  C   UNL     1     -11.257  15.031  67.006  1.00  0.00    -0.328 A  
HETATM   15  C   UNL     1     -11.259  15.703  68.229  1.00  0.00    -0.353 A  
HETATM   16  C   UNL     1     -10.743  16.994  68.327  1.00  0.00    -0.372 A  
HETATM   17  C   UNL     1     -10.201  17.655  67.212  1.00  0.00    -0.343 A  
HETATM   18  C   UNL     1     -10.678  15.643  65.892  1.00  0.00    -0.336 A  
HETATM   19  C   UNL     1     -10.153  16.939  66.000  1.00  0.00    -0.336 A  
BRANCH  17  20
HETATM   20  C   UNL     1      -9.709  19.112  67.288  1.00  0.00    -0.386 C  
HETATM   21  C   UNL     1     -10.263  19.999  66.149  1.00  0.00    -0.589 C  
HETATM   22  C   UNL     1     -10.135  19.753  68.624  1.00  0.00    -0.546 C  
HETATM   23  C   UNL     1      -8.169  19.150  67.181  1.00  0.00    -0.290 C  
ENDBRANCH  17  20
ENDBRANCH  12  14
ENDBRANCH  11  12
ENDBRANCH   9  11
ENDBRANCH   6   9
ENDBRANCH   2   3
TORSDOF 6
ENDMDL
MODEL       12
REMARK 921   NORMALIZED FREE ENERGY PREDICTED BY IDOCK:   -6.12 KCAL/MOL
REMARK 922        TOTAL FREE ENERGY PREDICTED BY IDOCK:   -9.28 KCAL/MOL
REMARK 923 INTER-LIGAND FREE ENERGY PREDICTED BY IDOCK:   -8.05 KCAL/MOL
REMARK 924 INTRA-LIGAND FREE ENERGY PREDICTED BY IDOCK:   -1.22 KCAL/MOL
REMARK 927      BINDING AFFINITY PREDICTED BY RF-SCORE:    0.00 PKD
ROOT
HETATM    1  C   UNL     1      -6.967  16.090  69.325  1.00  0.00    -0.205 C  
HETATM    2  O   UNL     1      -7.225  17.133  68.390  1.00  0.00    -0.191 OA 
ENDROOT
BRANCH   2   3
HETATM    3  C   UNL     1      -8.263  16.900  67.532  1.00  0.00    -0.178 A  
HETATM    4  C   UNL     1      -8.342  15.607  67.016  1.00  0.00    -0.261 A  
HETATM    5  C   UNL     1      -9.357  15.264  66.116  1.00  0.00    -0.360 A  
HETATM    6  C   UNL     1     -10.313  16.214  65.735  1.00  0.00    -0.398 A  
HETATM    7  C   UNL     1     -10.243  17.502  66.278  1.00  0.00    -0.356 A  
HETATM    8  C   UNL     1      -9.231  17.839  67.181  1.00  0.00    -0.253 A  
BRANCH   6   9
HETATM    9  C   UNL     1     -11.367  15.814  64.751  1.00  0.00    -0.314 C  
HETATM   10  O   UNL     1     -11.551  16.503  63.745  1.00  0.00    -1.109 OA 
BRANCH   9  11
HETATM   11  C   UNL     1     -12.254  14.625  65.042  1.00  0.00    -0.323 C  
BRANCH  11  12
HETATM   12  C   UNL     1     -12.087  13.469  64.090  1.00  0.00    -0.435 C  
HETATM   13  O   UNL     1     -12.572  13.459  62.960  1.00  0.00    -0.669 OA 
BRANCH  12  14
HETATM   14  C   UNL     1     -11.319  12.280  64.547  1.00  0.00    -0.385 A  
HETATM   15  C   UNL     1     -11.319  11.999  65.913  1.00  0.00    -0.391 A  
HETATM   16  C   UNL     1     -10.562  10.942  66.418  1.00  0.00    -0.289 A  
HETATM   17  C   UNL     1      -9.788  10.127  65.576  1.00  0.00    -0.365 A  
HETATM   18  C   UNL     1     -10.599  11.455  63.680  1.00  0.00    -0.476 A  
HETATM   19  C   UNL     1      -9.847  10.388  64.193  1.00  0.00    -0.379 A  
BRANCH  17  20
HETATM   20  C   UNL     1      -8.881   9.014  66.130  1.00  0.00    -0.195 C  
HETATM   21  C   UNL     1      -7.902   8.447  65.075  1.00  0.00    -0.118 C  
HETATM   22  C   UNL     1      -8.037   9.545  67.306  1.00  0.00    -0.110 C  
HETATM   23  C   UNL     1      -9.744   7.832  66.624  1.00  0.00    -0.292 C  
ENDBRANCH  17  20
ENDBRANCH  12  14
ENDBRANCH  11  12
ENDBRANCH   9  11
ENDBRANCH   6   9
ENDBRANCH   2   3
TORSDOF 6
ENDMDL
MODEL       13
REMARK 921   NORMALIZED FREE ENERGY PREDICTED BY IDOCK:   -6.12 KCAL/MOL
REMARK 922        TOTAL FREE ENERGY PREDICTED BY IDOCK:   -9.27 KCAL/MOL
REMARK 923 INTER-LIGAND FREE ENERGY PREDICTED BY IDOCK:   -7.45 KCAL/MOL
REMARK 924 INTRA-LIGAND FREE ENERGY PREDICTED BY IDOCK:   -1.82 KCAL/MOL
REMARK 927      BINDING AFFINITY PREDICTED BY RF-SCORE:    0.00 PKD
ROOT
HETATM    1  C   UNL     1     -10.981  10.144  70.211  1.00  0.00    -0.317 C  
HETATM    2  O   UNL     1      -9.697  10.444  69.670  1.00  0.00    -0.205 OA 
ENDROOT
BRANCH   2   3
HETATM    3  C   UNL     1      -9.655  10.564  68.309  1.00  0.00    -0.158 A  
HETATM    4  C   UNL     1     -10.580   9.795  67.605  1.00  0.00    -0.333 A  
HETATM    5  C   UNL     1     -10.614   9.831  66.207  1.00  0.00    -0.070 A  
HETATM    6  C   UNL     1      -9.726  10.652  65.500  1.00  0.00    -0.291 A  
HETATM    7  C   UNL     1      -8.819  11.443  66.215  1.00  0.00    -0.196 A  
HETATM    8  C   UNL     1      -8.793  11.408  67.612  1.00  0.00    -0.139 A  
BRANCH   6   9
HETATM    9  C   UNL     1      -9.779  10.642  64.005  1.00  0.00    -0.315 C  
HETATM   10  O   UNL     1      -9.368   9.655  63.390  1.00  0.00    -0.207 OA 
BRANCH   9  11
HETATM   11  C   UNL     1     -10.247  11.871  63.261  1.00  0.00    -0.428 C  
BRANCH  11  12
HETATM   12  C   UNL     1     -11.505  12.496  63.808  1.00  0.00    -0.469 C  
HETATM   13  O   UNL     1     -12.618  12.279  63.335  1.00  0.00    -0.682 OA 
BRANCH  12  14
HETATM   14  C   UNL     1     -11.388  13.432  64.958  1.00  0.00    -0.330 A  
HETATM   15  C   UNL     1     -10.493  14.494  64.837  1.00  0.00    -0.435 A  
HETATM   16  C   UNL     1     -10.282  15.367  65.903  1.00  0.00    -0.365 A  
HETATM   17  C   UNL     1     -10.963  15.214  67.122  1.00  0.00    -0.326 A  
HETATM   18  C   UNL     1     -12.117  13.285  66.140  1.00  0.00    -0.477 A  
HETATM   19  C   UNL     1     -11.907  14.171  67.206  1.00  0.00    -0.452 A  
BRANCH  17  20
HETATM   20  C   UNL     1     -10.675  16.117  68.335  1.00  0.00    -0.298 C  
HETATM   21  C   UNL     1      -9.347  15.770  69.048  1.00  0.00    -0.244 C  
HETATM   22  C   UNL     1     -10.593  17.593  67.898  1.00  0.00    -0.390 C  
HETATM   23  C   UNL     1     -11.801  15.963  69.381  1.00  0.00    -0.325 C  
ENDBRANCH  17  20
ENDBRANCH  12  14
ENDBRANCH  11  12
ENDBRANCH   9  11
ENDBRANCH   6   9
ENDBRANCH   2   3
TORSDOF 6
ENDMDL
MODEL       14
REMARK 921   NORMALIZED FREE ENERGY PREDICTED BY IDOCK:   -6.12 KCAL/MOL
REMARK 922        TOTAL FREE ENERGY PREDICTED BY IDOCK:   -9.27 KCAL/MOL
REMARK 923 INTER-LIGAND FREE ENERGY PREDICTED BY IDOCK:   -8.21 KCAL/MOL
REMARK 924 INTRA-LIGAND FREE ENERGY PREDICTED BY IDOCK:   -1.06 KCAL/MOL
REMARK 927      BINDING AFFINITY PREDICTED BY RF-SCORE:    0.00 PKD
ROOT
HETATM    1  C   UNL     1     -14.138   8.618  71.980  1.00  0.00    -0.453 C  
HETATM    2  O   UNL     1     -12.944   9.290  72.372  1.00  0.00    -0.403 OA 
ENDROOT
BRANCH   2   3
HETATM    3  C   UNL     1     -12.290   9.944  71.365  1.00  0.00    -0.404 A  
HETATM    4  C   UNL     1     -11.209   9.263  70.804  1.00  0.00    -0.351 A  
HETATM    5  C   UNL     1     -10.460   9.847  69.777  1.00  0.00    -0.292 A  
HETATM    6  C   UNL     1     -10.797  11.117  69.292  1.00  0.00    -0.277 A  
HETATM    7  C   UNL     1     -11.899  11.782  69.840  1.00  0.00    -0.423 A  
HETATM    8  C   UNL     1     -12.649  11.192  70.862  1.00  0.00    -0.483 A  
BRANCH   6   9
HETATM    9  C   UNL     1      -9.954  11.715  68.210  1.00  0.00    -0.201 C  
HETATM   10  O   UNL     1      -8.926  12.326  68.510  1.00  0.00    -0.161 OA 
BRANCH   9  11
HETATM   11  C   UNL     1     -10.416  11.646  66.773  1.00  0.00    -0.265 C  
BRANCH  11  12
HETATM   12  C   UNL     1     -11.435  12.689  66.389  1.00  0.00    -0.356 C  
HETATM   13  O   UNL     1     -12.523  12.408  65.893  1.00  0.00    -0.583 OA 
BRANCH  12  14
HETATM   14  C   UNL     1     -11.097  14.122  66.603  1.00  0.00    -0.314 A  
HETATM   15  C   UNL     1     -10.319  14.752  65.632  1.00  0.00    -0.369 A  
HETATM   16  C   UNL     1      -9.907  16.074  65.804  1.00  0.00    -0.357 A  
HETATM   17  C   UNL     1     -10.264  16.810  66.946  1.00  0.00    -0.290 A  
HETATM   18  C   UNL     1     -11.510  14.845  67.724  1.00  0.00    -0.353 A  
HETATM   19  C   UNL     1     -11.099  16.176  67.887  1.00  0.00    -0.293 A  
BRANCH  17  20
HETATM   20  C   UNL     1      -9.743  18.239  67.189  1.00  0.00    -0.307 C  
HETATM   21  C   UNL     1      -9.987  18.736  68.633  1.00  0.00    -0.444 C  
HETATM   22  C   UNL     1      -8.226  18.309  66.925  1.00  0.00    -0.260 C  
HETATM   23  C   UNL     1     -10.464  19.226  66.245  1.00  0.00    -0.567 C  
ENDBRANCH  17  20
ENDBRANCH  12  14
ENDBRANCH  11  12
ENDBRANCH   9  11
ENDBRANCH   6   9
ENDBRANCH   2   3
TORSDOF 6
ENDMDL
MODEL       15
REMARK 921   NORMALIZED FREE ENERGY PREDICTED BY IDOCK:   -6.09 KCAL/MOL
REMARK 922        TOTAL FREE ENERGY PREDICTED BY IDOCK:   -9.23 KCAL/MOL
REMARK 923 INTER-LIGAND FREE ENERGY PREDICTED BY IDOCK:   -8.02 KCAL/MOL
REMARK 924 INTRA-LIGAND FREE ENERGY PREDICTED BY IDOCK:   -1.21 KCAL/MOL
REMARK 927      BINDING AFFINITY PREDICTED BY RF-SCORE:    0.00 PKD
ROOT
HETATM    1  C   UNL     1     -11.857   8.583  71.084  1.00  0.00    -0.284 C  
HETATM    2  O   UNL     1     -12.991   9.426  71.262  1.00  0.00    -0.328 OA 
ENDROOT
BRANCH   2   3
HETATM    3  C   UNL     1     -12.766  10.756  71.037  1.00  0.00    -0.415 A  
HETATM    4  C   UNL     1     -13.410  11.634  71.908  1.00  0.00    -0.403 A  
HETATM    5  C   UNL     1     -13.261  13.017  71.758  1.00  0.00    -0.486 A  
HETATM    6  C   UNL     1     -12.452  13.534  70.738  1.00  0.00    -0.428 A  
HETATM    7  C   UNL     1     -11.787  12.645  69.886  1.00  0.00    -0.364 A  
HETATM    8  C   UNL     1     -11.934  11.264  70.042  1.00  0.00    -0.447 A  
BRANCH   6   9
HETATM    9  C   UNL     1     -12.339  15.019  70.598  1.00  0.00    -0.348 C  
HETATM   10  O   UNL     1     -13.324  15.726  70.827  1.00  0.00    -0.539 OA 
BRANCH   9  11
HETATM   11  C   UNL     1     -11.055  15.631  70.090  1.00  0.00    -0.347 C  
BRANCH  11  12
HETATM   12  C   UNL     1     -11.076  16.017  68.633  1.00  0.00    -0.349 C  
HETATM   13  O   UNL     1     -11.098  17.186  68.252  1.00  0.00    -0.310 OA 
BRANCH  12  14
HETATM   14  C   UNL     1     -11.090  14.934  67.613  1.00  0.00    -0.315 A  
HETATM   15  C   UNL     1      -9.860  14.424  67.198  1.00  0.00    -0.254 A  
HETATM   16  C   UNL     1      -9.797  13.457  66.195  1.00  0.00    -0.289 A  
HETATM   17  C   UNL     1     -10.958  12.963  65.579  1.00  0.00    -0.301 A  
HETATM   18  C   UNL     1     -12.264  14.424  67.056  1.00  0.00    -0.274 A  
HETATM   19  C   UNL     1     -12.194  13.445  66.053  1.00  0.00    -0.491 A  
BRANCH  17  20
HETATM   20  C   UNL     1     -10.898  11.962  64.411  1.00  0.00    -0.384 C  
HETATM   21  C   UNL     1      -9.780  12.285  63.392  1.00  0.00     0.078 C  
HETATM   22  C   UNL     1     -10.644  10.536  64.939  1.00  0.00    -0.099 C  
HETATM   23  C   UNL     1     -12.233  11.981  63.636  1.00  0.00    -0.642 C  
ENDBRANCH  17  20
ENDBRANCH  12  14
ENDBRANCH  11  12
ENDBRANCH   9  11
ENDBRANCH   6   9
ENDBRANCH   2   3
TORSDOF 6
ENDMDL
MODEL       16
REMARK 921   NORMALIZED FREE ENERGY PREDICTED BY IDOCK:   -6.08 KCAL/MOL
REMARK 922        TOTAL FREE ENERGY PREDICTED BY IDOCK:   -9.22 KCAL/MOL
REMARK 923 INTER-LIGAND FREE ENERGY PREDICTED BY IDOCK:   -7.86 KCAL/MOL
REMARK 924 INTRA-LIGAND FREE ENERGY PREDICTED BY IDOCK:   -1.37 KCAL/MOL
REMARK 927      BINDING AFFINITY PREDICTED BY RF-SCORE:    0.00 PKD
ROOT
HETATM    1  C   UNL     1      -9.404   7.437  68.779  1.00  0.00    -0.144 C  
HETATM    2  O   UNL     1      -8.525   7.837  67.731  1.00  0.00    -0.121 OA 
ENDROOT
BRANCH   2   3
HETATM    3  C   UNL     1      -9.045   8.748  66.853  1.00  0.00    -0.139 A  
HETATM    4  C   UNL     1      -8.641   8.607  65.526  1.00  0.00    -0.200 A  
HETATM    5  C   UNL     1      -9.101   9.494  64.547  1.00  0.00    -0.250 A  
HETATM    6  C   UNL     1      -9.984  10.526  64.889  1.00  0.00    -0.401 A  
HETATM    7  C   UNL     1     -10.407  10.644  66.218  1.00  0.00    -0.296 A  
HETATM    8  C   UNL     1      -9.949   9.752  67.192  1.00  0.00    -0.252 A  
BRANCH   6   9
HETATM    9  C   UNL     1     -10.432  11.468  63.817  1.00  0.00    -0.405 C  
HETATM   10  O   UNL     1      -9.603  11.931  63.031  1.00  0.00    -0.376 OA 
BRANCH   9  11
HETATM   11  C   UNL     1     -11.875  11.915  63.763  1.00  0.00    -0.558 C  
BRANCH  11  12
HETATM   12  C   UNL     1     -12.080  13.399  63.923  1.00  0.00    -0.455 C  
HETATM   13  O   UNL     1     -12.660  14.088  63.086  1.00  0.00    -0.733 OA 
BRANCH  12  14
HETATM   14  C   UNL     1     -11.538  14.062  65.140  1.00  0.00    -0.344 A  
HETATM   15  C   UNL     1     -12.091  13.703  66.369  1.00  0.00    -0.478 A  
HETATM   16  C   UNL     1     -11.679  14.336  67.542  1.00  0.00    -0.415 A  
HETATM   17  C   UNL     1     -10.698  15.341  67.527  1.00  0.00    -0.285 A  
HETATM   18  C   UNL     1     -10.524  15.021  65.101  1.00  0.00    -0.438 A  
HETATM   19  C   UNL     1     -10.108  15.648  66.285  1.00  0.00    -0.316 A  
BRANCH  17  20
HETATM   20  C   UNL     1     -10.298  16.107  68.801  1.00  0.00    -0.248 C  
HETATM   21  C   UNL     1     -11.284  15.892  69.973  1.00  0.00    -0.354 C  
HETATM   22  C   UNL     1      -8.903  15.660  69.281  1.00  0.00    -0.264 C  
HETATM   23  C   UNL     1     -10.268  17.624  68.511  1.00  0.00    -0.386 C  
ENDBRANCH  17  20
ENDBRANCH  12  14
ENDBRANCH  11  12
ENDBRANCH   9  11
ENDBRANCH   6   9
ENDBRANCH   2   3
TORSDOF 6
ENDMDL
MODEL       17
REMARK 921   NORMALIZED FREE ENERGY PREDICTED BY IDOCK:   -6.08 KCAL/MOL
REMARK 922        TOTAL FREE ENERGY PREDICTED BY IDOCK:   -9.22 KCAL/MOL
REMARK 923 INTER-LIGAND FREE ENERGY PREDICTED BY IDOCK:   -8.08 KCAL/MOL
REMARK 924 INTRA-LIGAND FREE ENERGY PREDICTED BY IDOCK:   -1.13 KCAL/MOL
REMARK 927      BINDING AFFINITY PREDICTED BY RF-SCORE:    0.00 PKD
ROOT
HETATM    1  C   UNL     1      -9.875  18.805  68.575  1.00  0.00    -0.396 C  
HETATM    2  O   UNL     1      -9.291  17.518  68.390  1.00  0.00    -0.270 OA 
ENDROOT
BRANCH   2   3
HETATM    3  C   UNL     1     -10.011  16.662  67.603  1.00  0.00    -0.264 A  
HETATM    4  C   UNL     1      -9.622  16.600  66.265  1.00  0.00    -0.325 A  
HETATM    5  C   UNL     1     -10.301  15.769  65.368  1.00  0.00    -0.417 A  
HETATM    6  C   UNL     1     -11.370  14.979  65.808  1.00  0.00    -0.279 A  
HETATM    7  C   UNL     1     -11.737  15.025  67.158  1.00  0.00    -0.227 A  
HETATM    8  C   UNL     1     -11.052  15.854  68.052  1.00  0.00    -0.334 A  
BRANCH   6   9
HETATM    9  C   UNL     1     -12.085  14.122  64.811  1.00  0.00    -0.441 C  
HETATM   10  O   UNL     1     -12.541  14.636  63.787  1.00  0.00    -0.820 OA 
BRANCH   9  11
HETATM   11  C   UNL     1     -12.321  12.660  65.108  1.00  0.00    -0.547 C  
BRANCH  11  12
HETATM   12  C   UNL     1     -11.085  11.891  65.501  1.00  0.00    -0.304 C  
HETATM   13  O   UNL     1     -10.120  11.749  64.753  1.00  0.00    -0.250 OA 
BRANCH  12  14
HETATM   14  C   UNL     1     -11.042  11.260  66.848  1.00  0.00    -0.339 A  
HETATM   15  C   UNL     1     -10.252  10.121  67.001  1.00  0.00    -0.290 A  
HETATM   16  C   UNL     1     -10.221   9.440  68.218  1.00  0.00    -0.229 A  
HETATM   17  C   UNL     1     -10.971   9.877  69.322  1.00  0.00    -0.244 A  
HETATM   18  C   UNL     1     -11.758  11.748  67.944  1.00  0.00    -0.347 A  
HETATM   19  C   UNL     1     -11.716  11.063  69.167  1.00  0.00    -0.403 A  
BRANCH  17  20
HETATM   20  C   UNL     1     -11.015   9.085  70.641  1.00  0.00    -0.308 C  
HETATM   21  C   UNL     1     -11.505   7.629  70.460  1.00  0.00    -0.236 C  
HETATM   22  C   UNL     1      -9.612   9.025  71.277  1.00  0.00    -0.361 C  
HETATM   23  C   UNL     1     -11.986   9.767  71.629  1.00  0.00    -0.454 C  
ENDBRANCH  17  20
ENDBRANCH  12  14
ENDBRANCH  11  12
ENDBRANCH   9  11
ENDBRANCH   6   9
ENDBRANCH   2   3
TORSDOF 6
ENDMDL
MODEL       18
REMARK 921   NORMALIZED FREE ENERGY PREDICTED BY IDOCK:   -6.07 KCAL/MOL
REMARK 922        TOTAL FREE ENERGY PREDICTED BY IDOCK:   -9.20 KCAL/MOL
REMARK 923 INTER-LIGAND FREE ENERGY PREDICTED BY IDOCK:   -8.16 KCAL/MOL
REMARK 924 INTRA-LIGAND FREE ENERGY PREDICTED BY IDOCK:   -1.04 KCAL/MOL
REMARK 927      BINDING AFFINITY PREDICTED BY RF-SCORE:    0.00 PKD
ROOT
HETATM    1  C   UNL     1     -13.882   8.374  72.043  1.00  0.00    -0.388 C  
HETATM    2  O   UNL     1     -13.254   9.605  72.391  1.00  0.00    -0.422 OA 
ENDROOT
BRANCH   2   3
HETATM    3  C   UNL     1     -12.538  10.195  71.386  1.00  0.00    -0.422 A  
HETATM    4  C   UNL     1     -11.642   9.365  70.714  1.00  0.00    -0.364 A  
HETATM    5  C   UNL     1     -10.848   9.871  69.679  1.00  0.00    -0.281 A  
HETATM    6  C   UNL     1     -10.956  11.215  69.298  1.00  0.00    -0.300 A  
HETATM    7  C   UNL     1     -11.878  12.034  69.959  1.00  0.00    -0.392 A  
HETATM    8  C   UNL     1     -12.673  11.524  70.989  1.00  0.00    -0.426 A  
BRANCH   6   9
HETATM    9  C   UNL     1     -10.071  11.721  68.203  1.00  0.00    -0.192 C  
HETATM   10  O   UNL     1      -9.002  12.266  68.491  1.00  0.00    -0.161 OA 
BRANCH   9  11
HETATM   11  C   UNL     1     -10.532  11.643  66.767  1.00  0.00    -0.265 C  
BRANCH  11  12
HETATM   12  C   UNL     1     -11.414  12.785  66.327  1.00  0.00    -0.354 C  
HETATM   13  O   UNL     1     -12.516  12.616  65.810  1.00  0.00    -0.607 OA 
BRANCH  12  14
HETATM   14  C   UNL     1     -10.916  14.175  66.510  1.00  0.00    -0.309 A  
HETATM   15  C   UNL     1     -11.394  14.891  67.607  1.00  0.00    -0.348 A  
HETATM   16  C   UNL     1     -11.024  16.222  67.798  1.00  0.00    -0.281 A  
HETATM   17  C   UNL     1     -10.159  16.878  66.908  1.00  0.00    -0.289 A  
HETATM   18  C   UNL     1     -10.013  14.785  65.636  1.00  0.00    -0.390 A  
HETATM   19  C   UNL     1      -9.638  16.120  65.839  1.00  0.00    -0.359 A  
BRANCH  17  20
HETATM   20  C   UNL     1      -9.812  18.370  67.059  1.00  0.00    -0.335 C  
HETATM   21  C   UNL     1      -8.313  18.672  66.824  1.00  0.00    -0.287 C  
HETATM   22  C   UNL     1     -10.618  19.213  66.051  1.00  0.00    -0.524 C  
HETATM   23  C   UNL     1     -10.147  18.842  68.491  1.00  0.00    -0.460 C  
ENDBRANCH  17  20
ENDBRANCH  12  14
ENDBRANCH  11  12
ENDBRANCH   9  11
ENDBRANCH   6   9
ENDBRANCH   2   3
TORSDOF 6
ENDMDL
MODEL       19
REMARK 921   NORMALIZED FREE ENERGY PREDICTED BY IDOCK:   -6.03 KCAL/MOL
REMARK 922        TOTAL FREE ENERGY PREDICTED BY IDOCK:   -9.15 KCAL/MOL
REMARK 923 INTER-LIGAND FREE ENERGY PREDICTED BY IDOCK:   -8.16 KCAL/MOL
REMARK 924 INTRA-LIGAND FREE ENERGY PREDICTED BY IDOCK:   -0.99 KCAL/MOL
REMARK 927      BINDING AFFINITY PREDICTED BY RF-SCORE:    0.00 PKD
ROOT
HETATM    1  C   UNL     1      -8.072   8.396  63.942  1.00  0.00    -0.143 C  
HETATM    2  O   UNL     1      -8.458   9.488  63.111  1.00  0.00    -0.170 OA 
ENDROOT
BRANCH   2   3
HETATM    3  C   UNL     1      -9.333  10.370  63.682  1.00  0.00    -0.291 A  
HETATM    4  C   UNL     1      -9.718  10.080  64.991  1.00  0.00    -0.386 A  
HETATM    5  C   UNL     1     -10.621  10.909  65.664  1.00  0.00    -0.233 A  
HETATM    6  C   UNL     1     -11.138  12.048  65.034  1.00  0.00    -0.368 A  
HETATM    7  C   UNL     1     -10.726  12.348  63.731  1.00  0.00    -0.492 A  
HETATM    8  C   UNL     1      -9.819  11.520  63.064  1.00  0.00    -0.367 A  
BRANCH   6   9
HETATM    9  C   UNL     1     -12.120  12.894  65.781  1.00  0.00    -0.457 C  
HETATM   10  O   UNL     1     -12.968  13.536  65.155  1.00  0.00    -0.721 OA 
BRANCH   9  11
HETATM   11  C   UNL     1     -12.010  13.028  67.282  1.00  0.00    -0.379 C  
BRANCH  11  12
HETATM   12  C   UNL     1     -10.675  13.529  67.772  1.00  0.00    -0.252 C  
HETATM   13  O   UNL     1      -9.865  12.810  68.354  1.00  0.00    -0.223 OA 
BRANCH  12  14
HETATM   14  C   UNL     1     -10.334  14.961  67.557  1.00  0.00    -0.239 A  
HETATM   15  C   UNL     1     -10.846  15.888  68.464  1.00  0.00    -0.298 A  
HETATM   16  C   UNL     1     -10.624  17.253  68.282  1.00  0.00    -0.383 A  
HETATM   17  C   UNL     1      -9.878  17.735  67.195  1.00  0.00    -0.311 A  
HETATM   18  C   UNL     1      -9.544  15.408  66.495  1.00  0.00    -0.298 A  
HETATM   19  C   UNL     1      -9.317  16.781  66.323  1.00  0.00    -0.310 A  
BRANCH  17  20
HETATM   20  C   UNL     1      -9.700  19.242  66.934  1.00  0.00    -0.406 C  
HETATM   21  C   UNL     1      -8.246  19.628  66.572  1.00  0.00    -0.350 C  
HETATM   22  C   UNL     1     -10.603  19.696  65.770  1.00  0.00    -0.537 C  
HETATM   23  C   UNL     1     -10.074  20.041  68.202  1.00  0.00    -0.547 C  
ENDBRANCH  17  20
ENDBRANCH  12  14
ENDBRANCH  11  12
ENDBRANCH   9  11
ENDBRANCH   6   9
ENDBRANCH   2   3
TORSDOF 6
ENDMDL
MODEL       20
REMARK 921   NORMALIZED FREE ENERGY PREDICTED BY IDOCK:   -6.03 KCAL/MOL
REMARK 922        TOTAL FREE ENERGY PREDICTED BY IDOCK:   -9.15 KCAL/MOL
REMARK 923 INTER-LIGAND FREE ENERGY PREDICTED BY IDOCK:   -8.48 KCAL/MOL
REMARK 924 INTRA-LIGAND FREE ENERGY PREDICTED BY IDOCK:   -0.67 KCAL/MOL
REMARK 927      BINDING AFFINITY PREDICTED BY RF-SCORE:    0.00 PKD
ROOT
HETATM    1  C   UNL     1      -7.141  19.053  68.979  1.00  0.00    -0.326 C  
HETATM    2  O   UNL     1      -7.327  19.301  67.588  1.00  0.00    -0.231 OA 
ENDROOT
BRANCH   2   3
HETATM    3  C   UNL     1      -8.319  18.569  66.996  1.00  0.00    -0.255 A  
HETATM    4  C   UNL     1      -7.921  17.364  66.420  1.00  0.00    -0.325 A  
HETATM    5  C   UNL     1      -8.853  16.545  65.774  1.00  0.00     0.034 A  
HETATM    6  C   UNL     1     -10.201  16.922  65.712  1.00  0.00    -0.287 A  
HETATM    7  C   UNL     1     -10.598  18.120  66.317  1.00  0.00    -0.291 A  
HETATM    8  C   UNL     1      -9.664  18.932  66.966  1.00  0.00    -0.349 A  
BRANCH   6   9
HETATM    9  C   UNL     1     -11.160  16.029  64.990  1.00  0.00    -0.336 C  
HETATM   10  O   UNL     1     -11.554  16.346  63.865  1.00  0.00    -1.100 OA 
BRANCH   9  11
HETATM   11  C   UNL     1     -11.707  14.800  65.679  1.00  0.00    -0.257 C  
BRANCH  11  12
HETATM   12  C   UNL     1     -10.860  14.287  66.815  1.00  0.00    -0.298 C  
HETATM   13  O   UNL     1      -9.744  13.798  66.649  1.00  0.00    -0.271 OA 
BRANCH  12  14
HETATM   14  C   UNL     1     -11.409  14.359  68.196  1.00  0.00    -0.317 A  
HETATM   15  C   UNL     1     -11.678  13.155  68.845  1.00  0.00    -0.368 A  
HETATM   16  C   UNL     1     -12.259  13.149  70.113  1.00  0.00    -0.360 A  
HETATM   17  C   UNL     1     -12.582  14.344  70.777  1.00  0.00    -0.426 A  
HETATM   18  C   UNL     1     -11.671  15.563  68.853  1.00  0.00    -0.385 A  
HETATM   19  C   UNL     1     -12.248  15.551  70.131  1.00  0.00    -0.404 A  
BRANCH  17  20
HETATM   20  C   UNL     1     -13.303  14.351  72.137  1.00  0.00    -0.486 C  
HETATM   21  C   UNL     1     -14.032  13.021  72.445  1.00  0.00    -0.426 C  
HETATM   22  C   UNL     1     -12.296  14.601  73.277  1.00  0.00    -0.369 C  
HETATM   23  C   UNL     1     -14.373  15.465  72.157  1.00  0.00    -0.642 C  
ENDBRANCH  17  20
ENDBRANCH  12  14
ENDBRANCH  11  12
ENDBRANCH   9  11
ENDBRANCH   6   9
ENDBRANCH   2   3
TORSDOF 6
ENDMDL
MODEL       21
REMARK 921   NORMALIZED FREE ENERGY PREDICTED BY IDOCK:   -6.03 KCAL/MOL
REMARK 922        TOTAL FREE ENERGY PREDICTED BY IDOCK:   -9.14 KCAL/MOL
REMARK 923 INTER-LIGAND FREE ENERGY PREDICTED BY IDOCK:   -8.10 KCAL/MOL
REMARK 924 INTRA-LIGAND FREE ENERGY PREDICTED BY IDOCK:   -1.05 KCAL/MOL
REMARK 927      BINDING AFFINITY PREDICTED BY RF-SCORE:    0.00 PKD
ROOT
HETATM    1  C   UNL     1     -13.706   9.104  72.176  1.00  0.00    -0.471 C  
HETATM    2  O   UNL     1     -13.375  10.489  72.143  1.00  0.00    -0.437 OA 
ENDROOT
BRANCH   2   3
HETATM    3  C   UNL     1     -12.556  10.865  71.114  1.00  0.00    -0.428 A  
HETATM    4  C   UNL     1     -12.610  12.213  70.760  1.00  0.00    -0.305 A  
HETATM    5  C   UNL     1     -11.825  12.702  69.711  1.00  0.00    -0.379 A  
HETATM    6  C   UNL     1     -10.965  11.844  69.013  1.00  0.00    -0.267 A  
HETATM    7  C   UNL     1     -10.895  10.498  69.393  1.00  0.00    -0.291 A  
HETATM    8  C   UNL     1     -11.678  10.015  70.446  1.00  0.00    -0.365 A  
BRANCH   6   9
HETATM    9  C   UNL     1     -10.161  12.401  67.882  1.00  0.00    -0.213 C  
HETATM   10  O   UNL     1      -9.001  12.766  68.084  1.00  0.00    -0.192 OA 
BRANCH   9  11
HETATM   11  C   UNL     1     -10.804  12.598  66.528  1.00  0.00    -0.285 C  
BRANCH  11  12
HETATM   12  C   UNL     1     -11.559  13.893  66.373  1.00  0.00    -0.367 C  
HETATM   13  O   UNL     1     -12.714  13.947  65.955  1.00  0.00    -0.463 OA 
BRANCH  12  14
HETATM   14  C   UNL     1     -10.867  15.163  66.723  1.00  0.00    -0.322 A  
HETATM   15  C   UNL     1     -11.267  15.814  67.889  1.00  0.00    -0.313 A  
HETATM   16  C   UNL     1     -10.710  17.043  68.240  1.00  0.00    -0.372 A  
HETATM   17  C   UNL     1      -9.731  17.659  67.442  1.00  0.00    -0.283 A  
HETATM   18  C   UNL     1      -9.859  15.725  65.937  1.00  0.00    -0.381 A  
HETATM   19  C   UNL     1      -9.297  16.958  66.299  1.00  0.00    -0.292 A  
BRANCH  17  20
HETATM   20  C   UNL     1      -9.173  19.055  67.771  1.00  0.00    -0.339 C  
HETATM   21  C   UNL     1     -10.126  19.899  68.650  1.00  0.00    -0.518 C  
HETATM   22  C   UNL     1      -7.834  18.934  68.525  1.00  0.00    -0.373 C  
HETATM   23  C   UNL     1      -8.944  19.848  66.465  1.00  0.00    -0.442 C  
ENDBRANCH  17  20
ENDBRANCH  12  14
ENDBRANCH  11  12
ENDBRANCH   9  11
ENDBRANCH   6   9
ENDBRANCH   2   3
TORSDOF 6
ENDMDL
MODEL       22
REMARK 921   NORMALIZED FREE ENERGY PREDICTED BY IDOCK:   -6.02 KCAL/MOL
REMARK 922        TOTAL FREE ENERGY PREDICTED BY IDOCK:   -9.13 KCAL/MOL
REMARK 923 INTER-LIGAND FREE ENERGY PREDICTED BY IDOCK:   -8.10 KCAL/MOL
REMARK 924 INTRA-LIGAND FREE ENERGY PREDICTED BY IDOCK:   -1.03 KCAL/MOL
REMARK 927      BINDING AFFINITY PREDICTED BY RF-SCORE:    0.00 PKD
ROOT
HETATM    1  C   UNL     1      -8.548   9.266  62.881  1.00  0.00    -0.219 C  
HETATM    2  O   UNL     1      -9.605  10.184  62.613  1.00  0.00    -0.294 OA 
ENDROOT
BRANCH   2   3
HETATM    3  C   UNL     1     -10.064  10.873  63.701  1.00  0.00    -0.355 A  
HETATM    4  C   UNL     1     -10.590  12.138  63.439  1.00  0.00    -0.454 A  
HETATM    5  C   UNL     1     -11.074  12.934  64.481  1.00  0.00    -0.373 A  
HETATM    6  C   UNL     1     -11.048  12.463  65.800  1.00  0.00    -0.351 A  
HETATM    7  C   UNL     1     -10.545  11.181  66.052  1.00  0.00    -0.298 A  
HETATM    8  C   UNL     1     -10.067  10.387  65.007  1.00  0.00    -0.379 A  
BRANCH   6   9
HETATM    9  C   UNL     1     -11.553  13.356  66.889  1.00  0.00    -0.365 C  
HETATM   10  O   UNL     1     -12.499  14.114  66.662  1.00  0.00    -0.426 OA 
BRANCH   9  11
HETATM   11  C   UNL     1     -10.844  13.390  68.223  1.00  0.00    -0.275 C  
BRANCH  11  12
HETATM   12  C   UNL     1     -11.705  13.013  69.402  1.00  0.00    -0.326 C  
HETATM   13  O   UNL     1     -12.415  13.822  69.996  1.00  0.00    -0.314 OA 
BRANCH  12  14
HETATM   14  C   UNL     1     -11.678  11.603  69.876  1.00  0.00    -0.414 A  
HETATM   15  C   UNL     1     -12.602  11.235  70.854  1.00  0.00    -0.467 A  
HETATM   16  C   UNL     1     -12.585   9.949  71.394  1.00  0.00    -0.497 A  
HETATM   17  C   UNL     1     -11.652   8.988  70.971  1.00  0.00    -0.360 A  
HETATM   18  C   UNL     1     -10.772  10.653  69.399  1.00  0.00    -0.281 A  
HETATM   19  C   UNL     1     -10.766   9.360  69.941  1.00  0.00    -0.258 A  
BRANCH  17  20
HETATM   20  C   UNL     1     -11.567   7.595  71.621  1.00  0.00    -0.301 C  
HETATM   21  C   UNL     1     -10.905   7.617  73.019  1.00  0.00    -0.457 C  
HETATM   22  C   UNL     1     -12.976   6.992  71.786  1.00  0.00    -0.356 C  
HETATM   23  C   UNL     1     -10.718   6.656  70.736  1.00  0.00    -0.282 C  
ENDBRANCH  17  20
ENDBRANCH  12  14
ENDBRANCH  11  12
ENDBRANCH   9  11
ENDBRANCH   6   9
ENDBRANCH   2   3
TORSDOF 6
ENDMDL
MODEL       23
REMARK 921   NORMALIZED FREE ENERGY PREDICTED BY IDOCK:   -5.95 KCAL/MOL
REMARK 922        TOTAL FREE ENERGY PREDICTED BY IDOCK:   -9.04 KCAL/MOL
REMARK 923 INTER-LIGAND FREE ENERGY PREDICTED BY IDOCK:   -8.02 KCAL/MOL
REMARK 924 INTRA-LIGAND FREE ENERGY PREDICTED BY IDOCK:   -1.02 KCAL/MOL
REMARK 927      BINDING AFFINITY PREDICTED BY RF-SCORE:    0.00 PKD
ROOT
HETATM    1  C   UNL     1     -10.352  18.944  66.680  1.00  0.00    -0.417 C  
HETATM    2  O   UNL     1     -10.198  17.889  67.625  1.00  0.00    -0.331 OA 
ENDROOT
BRANCH   2   3
HETATM    3  C   UNL     1     -10.628  16.663  67.202  1.00  0.00    -0.264 A  
HETATM    4  C   UNL     1     -10.283  16.318  65.896  1.00  0.00    -0.384 A  
HETATM    5  C   UNL     1     -10.685  15.092  65.356  1.00  0.00    -0.396 A  
HETATM    6  C   UNL     1     -11.430  14.191  66.128  1.00  0.00    -0.350 A  
HETATM    7  C   UNL     1     -11.749  14.532  67.448  1.00  0.00    -0.425 A  
HETATM    8  C   UNL     1     -11.339  15.756  67.985  1.00  0.00    -0.310 A  
BRANCH   6   9
HETATM    9  C   UNL     1     -11.861  12.902  65.505  1.00  0.00    -0.411 C  
HETATM   10  O   UNL     1     -13.042  12.750  65.180  1.00  0.00    -0.750 OA 
BRANCH   9  11
HETATM   11  C   UNL     1     -10.873  11.767  65.363  1.00  0.00    -0.347 C  
BRANCH  11  12
HETATM   12  C   UNL     1      -9.949  11.587  66.540  1.00  0.00    -0.210 C  
HETATM   13  O   UNL     1      -8.812  12.054  66.573  1.00  0.00    -0.205 OA 
BRANCH  12  14
HETATM   14  C   UNL     1     -10.429  10.794  67.702  1.00  0.00    -0.252 A  
HETATM   15  C   UNL     1     -11.106  11.476  68.713  1.00  0.00    -0.288 A  
HETATM   16  C   UNL     1     -11.521  10.806  69.864  1.00  0.00    -0.398 A  
HETATM   17  C   UNL     1     -11.282   9.434  70.040  1.00  0.00    -0.217 A  
HETATM   18  C   UNL     1     -10.223   9.418  67.827  1.00  0.00    -0.273 A  
HETATM   19  C   UNL     1     -10.651   8.749  68.982  1.00  0.00    -0.191 A  
BRANCH  17  20
HETATM   20  C   UNL     1     -11.657   8.702  71.342  1.00  0.00    -0.354 C  
HETATM   21  C   UNL     1     -12.094   7.237  71.110  1.00  0.00    -0.376 C  
HETATM   22  C   UNL     1     -10.456   8.680  72.309  1.00  0.00    -0.376 C  
HETATM   23  C   UNL     1     -12.840   9.422  72.025  1.00  0.00    -0.496 C  
ENDBRANCH  17  20
ENDBRANCH  12  14
ENDBRANCH  11  12
ENDBRANCH   9  11
ENDBRANCH   6   9
ENDBRANCH   2   3
TORSDOF 6
ENDMDL
MODEL       24
REMARK 921   NORMALIZED FREE ENERGY PREDICTED BY IDOCK:   -5.95 KCAL/MOL
REMARK 922        TOTAL FREE ENERGY PREDICTED BY IDOCK:   -9.04 KCAL/MOL
REMARK 923 INTER-LIGAND FREE ENERGY PREDICTED BY IDOCK:   -7.48 KCAL/MOL
REMARK 924 INTRA-LIGAND FREE ENERGY PREDICTED BY IDOCK:   -1.56 KCAL/MOL
REMARK 927      BINDING AFFINITY PREDICTED BY RF-SCORE:    0.00 PKD
ROOT
HETATM    1  C   UNL     1     -13.178  11.839  71.846  1.00  0.00    -0.362 C  
HETATM    2  O   UNL     1     -13.243  13.226  72.170  1.00  0.00    -0.441 OA 
ENDROOT
BRANCH   2   3
HETATM    3  C   UNL     1     -12.574  14.054  71.311  1.00  0.00    -0.367 A  
HETATM    4  C   UNL     1     -12.154  15.270  71.848  1.00  0.00    -0.452 A  
HETATM    5  C   UNL     1     -11.474  16.199  71.053  1.00  0.00    -0.424 A  
HETATM    6  C   UNL     1     -11.197  15.910  69.710  1.00  0.00    -0.339 A  
HETATM    7  C   UNL     1     -11.598  14.675  69.186  1.00  0.00    -0.331 A  
HETATM    8  C   UNL     1     -12.272  13.748  69.986  1.00  0.00    -0.407 A  
BRANCH   6   9
HETATM    9  C   UNL     1     -10.491  16.940  68.888  1.00  0.00    -0.346 C  
HETATM   10  O   UNL     1     -11.151  17.746  68.227  1.00  0.00    -0.135 OA 
BRANCH   9  11
HETATM   11  C   UNL     1      -8.982  16.929  68.801  1.00  0.00    -0.256 C  
BRANCH  11  12
HETATM   12  C   UNL     1      -8.434  16.583  67.441  1.00  0.00    -0.177 C  
HETATM   13  O   UNL     1      -7.567  17.252  66.880  1.00  0.00    -0.181 OA 
BRANCH  12  14
HETATM   14  C   UNL     1      -8.981  15.391  66.738  1.00  0.00    -0.288 A  
HETATM   15  C   UNL     1      -9.832  15.616  65.656  1.00  0.00    -0.369 A  
HETATM   16  C   UNL     1     -10.436  14.545  64.997  1.00  0.00    -0.454 A  
HETATM   17  C   UNL     1     -10.205  13.217  65.391  1.00  0.00    -0.304 A  
HETATM   18  C   UNL     1      -8.692  14.079  67.120  1.00  0.00    -0.234 A  
HETATM   19  C   UNL     1      -9.296  13.007  66.447  1.00  0.00    -0.189 A  
BRANCH  17  20
HETATM   20  C   UNL     1     -10.933  12.033  64.729  1.00  0.00    -0.361 C  
HETATM   21  C   UNL     1     -10.843  10.728  65.555  1.00  0.00    -0.061 C  
HETATM   22  C   UNL     1     -12.427  12.360  64.541  1.00  0.00    -0.519 C  
HETATM   23  C   UNL     1     -10.304  11.737  63.350  1.00  0.00    -0.481 C  
ENDBRANCH  17  20
ENDBRANCH  12  14
ENDBRANCH  11  12
ENDBRANCH   9  11
ENDBRANCH   6   9
ENDBRANCH   2   3
TORSDOF 6
ENDMDL
MODEL       25
REMARK 921   NORMALIZED FREE ENERGY PREDICTED BY IDOCK:   -5.94 KCAL/MOL
REMARK 922        TOTAL FREE ENERGY PREDICTED BY IDOCK:   -9.02 KCAL/MOL
REMARK 923 INTER-LIGAND FREE ENERGY PREDICTED BY IDOCK:   -8.05 KCAL/MOL
REMARK 924 INTRA-LIGAND FREE ENERGY PREDICTED BY IDOCK:   -0.97 KCAL/MOL
REMARK 927      BINDING AFFINITY PREDICTED BY RF-SCORE:    0.00 PKD
ROOT
HETATM    1  C   UNL     1      -7.969   8.288  62.970  1.00  0.00    -0.156 C  
HETATM    2  O   UNL     1      -8.120   9.678  62.693  1.00  0.00    -0.118 OA 
ENDROOT
BRANCH   2   3
HETATM    3  C   UNL     1      -9.040  10.327  63.469  1.00  0.00    -0.264 A  
HETATM    4  C   UNL     1      -9.753  11.346  62.837  1.00  0.00    -0.344 A  
HETATM    5  C   UNL     1     -10.708  12.085  63.543  1.00  0.00    -0.513 A  
HETATM    6  C   UNL     1     -10.968  11.800  64.889  1.00  0.00    -0.358 A  
HETATM    7  C   UNL     1     -10.268  10.758  65.509  1.00  0.00    -0.330 A  
HETATM    8  C   UNL     1      -9.318  10.019  64.799  1.00  0.00    -0.330 A  
BRANCH   6   9
HETATM    9  C   UNL     1     -11.979  12.631  65.614  1.00  0.00    -0.452 C  
HETATM   10  O   UNL     1     -12.791  13.297  64.968  1.00  0.00    -0.686 OA 
BRANCH   9  11
HETATM   11  C   UNL     1     -11.938  12.719  67.122  1.00  0.00    -0.351 C  
BRANCH  11  12
HETATM   12  C   UNL     1     -10.705  13.381  67.680  1.00  0.00    -0.247 C  
HETATM   13  O   UNL     1      -9.840  12.766  68.301  1.00  0.00    -0.221 OA 
BRANCH  12  14
HETATM   14  C   UNL     1     -10.538  14.847  67.487  1.00  0.00    -0.266 A  
HETATM   15  C   UNL     1      -9.755  15.270  66.413  1.00  0.00    -0.308 A  
HETATM   16  C   UNL     1      -9.500  16.627  66.216  1.00  0.00    -0.321 A  
HETATM   17  C   UNL     1     -10.024  17.605  67.077  1.00  0.00    -0.320 A  
HETATM   18  C   UNL     1     -11.116  15.799  68.329  1.00  0.00    -0.342 A  
HETATM   19  C   UNL     1     -10.862  17.163  68.120  1.00  0.00    -0.316 A  
BRANCH  17  20
HETATM   20  C   UNL     1      -9.678  19.097  66.921  1.00  0.00    -0.389 C  
HETATM   21  C   UNL     1     -10.038  19.936  68.169  1.00  0.00    -0.569 C  
HETATM   22  C   UNL     1      -8.169  19.274  66.663  1.00  0.00    -0.305 C  
HETATM   23  C   UNL     1     -10.465  19.695  65.734  1.00  0.00    -0.540 C  
ENDBRANCH  17  20
ENDBRANCH  12  14
ENDBRANCH  11  12
ENDBRANCH   9  11
ENDBRANCH   6   9
ENDBRANCH   2   3
TORSDOF 6
ENDMDL
MODEL       26
REMARK 921   NORMALIZED FREE ENERGY PREDICTED BY IDOCK:   -5.93 KCAL/MOL
REMARK 922        TOTAL FREE ENERGY PREDICTED BY IDOCK:   -9.02 KCAL/MOL
REMARK 923 INTER-LIGAND FREE ENERGY PREDICTED BY IDOCK:   -7.89 KCAL/MOL
REMARK 924 INTRA-LIGAND FREE ENERGY PREDICTED BY IDOCK:   -1.13 KCAL/MOL
REMARK 927      BINDING AFFINITY PREDICTED BY RF-SCORE:    0.00 PKD
ROOT
HETATM    1  C   UNL     1     -13.787  13.500  72.277  1.00  0.00    -0.581 C  
HETATM    2  O   UNL     1     -12.712  12.612  71.983  1.00  0.00    -0.163 OA 
ENDROOT
BRANCH   2   3
HETATM    3  C   UNL     1     -12.378  12.522  70.660  1.00  0.00    -0.282 A  
HETATM    4  C   UNL     1     -12.375  13.724  69.954  1.00  0.00    -0.334 A  
HETATM    5  C   UNL     1     -12.063  13.744  68.591  1.00  0.00    -0.333 A  
HETATM    6  C   UNL     1     -11.736  12.556  67.923  1.00  0.00    -0.416 A  
HETATM    7  C   UNL     1     -11.714  11.358  68.646  1.00  0.00    -0.394 A  
HETATM    8  C   UNL     1     -12.022  11.343  70.009  1.00  0.00    -0.442 A  
BRANCH   6   9
HETATM    9  C   UNL     1     -11.434  12.618  66.460  1.00  0.00    -0.353 C  
HETATM   10  O   UNL     1     -12.347  12.467  65.645  1.00  0.00    -0.639 OA 
BRANCH   9  11
HETATM   11  C   UNL     1     -10.004  12.773  65.994  1.00  0.00    -0.277 C  
BRANCH  11  12
HETATM   12  C   UNL     1      -9.065  13.342  67.026  1.00  0.00    -0.243 C  
HETATM   13  O   UNL     1      -8.271  12.650  67.660  1.00  0.00    -0.149 OA 
BRANCH  12  14
HETATM   14  C   UNL     1      -9.117  14.803  67.302  1.00  0.00    -0.214 A  
HETATM   15  C   UNL     1      -9.405  15.651  66.233  1.00  0.00    -0.358 A  
HETATM   16  C   UNL     1      -9.401  17.035  66.406  1.00  0.00    -0.295 A  
HETATM   17  C   UNL     1      -9.116  17.617  67.652  1.00  0.00    -0.241 A  
HETATM   18  C   UNL     1      -8.881  15.351  68.564  1.00  0.00    -0.183 A  
HETATM   19  C   UNL     1      -8.887  16.744  68.734  1.00  0.00    -0.258 A  
BRANCH  17  20
HETATM   20  C   UNL     1      -9.022  19.142  67.836  1.00  0.00    -0.347 C  
HETATM   21  C   UNL     1     -10.120  19.711  68.765  1.00  0.00    -0.532 C  
HETATM   22  C   UNL     1      -7.657  19.526  68.442  1.00  0.00    -0.365 C  
HETATM   23  C   UNL     1      -9.180  19.845  66.469  1.00  0.00    -0.483 C  
ENDBRANCH  17  20
ENDBRANCH  12  14
ENDBRANCH  11  12
ENDBRANCH   9  11
ENDBRANCH   6   9
ENDBRANCH   2   3
TORSDOF 6
ENDMDL
MODEL       27
REMARK 921   NORMALIZED FREE ENERGY PREDICTED BY IDOCK:   -5.93 KCAL/MOL
REMARK 922        TOTAL FREE ENERGY PREDICTED BY IDOCK:   -9.02 KCAL/MOL
REMARK 923 INTER-LIGAND FREE ENERGY PREDICTED BY IDOCK:   -8.16 KCAL/MOL
REMARK 924 INTRA-LIGAND FREE ENERGY PREDICTED BY IDOCK:   -0.85 KCAL/MOL
REMARK 927      BINDING AFFINITY PREDICTED BY RF-SCORE:    0.00 PKD
ROOT
HETATM    1  C   UNL     1      -9.232  20.059  66.861  1.00  0.00    -0.381 C  
HETATM    2  O   UNL     1     -10.115  19.291  66.048  1.00  0.00    -0.405 OA 
ENDROOT
BRANCH   2   3
HETATM    3  C   UNL     1     -10.400  18.040  66.522  1.00  0.00    -0.373 A  
HETATM    4  C   UNL     1     -10.393  17.018  65.574  1.00  0.00    -0.161 A  
HETATM    5  C   UNL     1     -10.687  15.702  65.949  1.00  0.00    -0.336 A  
HETATM    6  C   UNL     1     -10.979  15.397  67.284  1.00  0.00    -0.317 A  
HETATM    7  C   UNL     1     -10.957  16.424  68.235  1.00  0.00    -0.355 A  
HETATM    8  C   UNL     1     -10.658  17.736  67.857  1.00  0.00    -0.389 A  
BRANCH   6   9
HETATM    9  C   UNL     1     -11.313  13.982  67.638  1.00  0.00    -0.312 C  
HETATM   10  O   UNL     1     -12.066  13.336  66.907  1.00  0.00    -0.380 OA 
BRANCH   9  11
HETATM   11  C   UNL     1     -10.800  13.389  68.930  1.00  0.00    -0.253 C  
BRANCH  11  12
HETATM   12  C   UNL     1     -11.873  13.011  69.918  1.00  0.00    -0.307 C  
HETATM   13  O   UNL     1     -12.700  13.815  70.346  1.00  0.00    -0.276 OA 
BRANCH  12  14
HETATM   14  C   UNL     1     -11.921  11.609  70.410  1.00  0.00    -0.448 A  
HETATM   15  C   UNL     1     -10.974  10.717  69.907  1.00  0.00    -0.337 A  
HETATM   16  C   UNL     1     -11.005   9.371  70.273  1.00  0.00    -0.305 A  
HETATM   17  C   UNL     1     -11.977   8.874  71.156  1.00  0.00    -0.344 A  
HETATM   18  C   UNL     1     -12.867  11.153  71.331  1.00  0.00    -0.544 A  
HETATM   19  C   UNL     1     -12.888   9.800  71.701  1.00  0.00    -0.519 A  
BRANCH  17  20
HETATM   20  C   UNL     1     -12.076   7.376  71.498  1.00  0.00    -0.357 C  
HETATM   21  C   UNL     1     -11.279   6.989  72.766  1.00  0.00    -0.294 C  
HETATM   22  C   UNL     1     -13.546   6.976  71.735  1.00  0.00    -0.305 C  
HETATM   23  C   UNL     1     -11.507   6.535  70.335  1.00  0.00    -0.465 C  
ENDBRANCH  17  20
ENDBRANCH  12  14
ENDBRANCH  11  12
ENDBRANCH   9  11
ENDBRANCH   6   9
ENDBRANCH   2   3
TORSDOF 6
ENDMDL
MODEL       28
REMARK 921   NORMALIZED FREE ENERGY PREDICTED BY IDOCK:   -5.93 KCAL/MOL
REMARK 922        TOTAL FREE ENERGY PREDICTED BY IDOCK:   -9.01 KCAL/MOL
REMARK 923 INTER-LIGAND FREE ENERGY PREDICTED BY IDOCK:   -7.32 KCAL/MOL
REMARK 924 INTRA-LIGAND FREE ENERGY PREDICTED BY IDOCK:   -1.69 KCAL/MOL
REMARK 927      BINDING AFFINITY PREDICTED BY RF-SCORE:    0.00 PKD
ROOT
HETATM    1  C   UNL     1      -5.817  14.270  67.954  1.00  0.00    -0.123 C  
HETATM    2  O   UNL     1      -5.168  15.412  67.401  1.00  0.00    -0.330 OA 
ENDROOT
BRANCH   2   3
HETATM    3  C   UNL     1      -5.872  16.581  67.495  1.00  0.00    -0.150 A  
HETATM    4  C   UNL     1      -6.045  17.279  66.301  1.00  0.00    -0.188 A  
HETATM    5  C   UNL     1      -6.737  18.495  66.285  1.00  0.00    -0.259 A  
HETATM    6  C   UNL     1      -7.274  19.017  67.469  1.00  0.00    -0.235 A  
HETATM    7  C   UNL     1      -7.120  18.296  68.659  1.00  0.00    -0.285 A  
HETATM    8  C   UNL     1      -6.433  17.079  68.669  1.00  0.00    -0.172 A  
BRANCH   6   9
HETATM    9  C   UNL     1      -7.984  20.332  67.413  1.00  0.00    -0.329 C  
HETATM   10  O   UNL     1      -7.327  21.374  67.355  1.00  0.00    -0.493 OA 
BRANCH   9  11
HETATM   11  C   UNL     1      -9.491  20.378  67.520  1.00  0.00    -0.532 C  
BRANCH  11  12
HETATM   12  C   UNL     1     -10.219  19.542  66.498  1.00  0.00    -0.467 C  
HETATM   13  O   UNL     1     -10.701  20.014  65.470  1.00  0.00    -0.426 OA 
BRANCH  12  14
HETATM   14  C   UNL     1     -10.378  18.086  66.758  1.00  0.00    -0.373 A  
HETATM   15  C   UNL     1     -10.162  17.214  65.691  1.00  0.00    -0.162 A  
HETATM   16  C   UNL     1     -10.362  15.843  65.847  1.00  0.00    -0.383 A  
HETATM   17  C   UNL     1     -10.776  15.296  67.072  1.00  0.00    -0.313 A  
HETATM   18  C   UNL     1     -10.739  17.566  68.003  1.00  0.00    -0.342 A  
HETATM   19  C   UNL     1     -10.930  16.185  68.155  1.00  0.00    -0.341 A  
BRANCH  17  20
HETATM   20  C   UNL     1     -11.084  13.796  67.233  1.00  0.00    -0.319 C  
HETATM   21  C   UNL     1     -12.114  13.275  66.203  1.00  0.00    -0.477 C  
HETATM   22  C   UNL     1      -9.798  12.963  67.065  1.00  0.00    -0.233 C  
HETATM   23  C   UNL     1     -11.676  13.531  68.635  1.00  0.00    -0.389 C  
ENDBRANCH  17  20
ENDBRANCH  12  14
ENDBRANCH  11  12
ENDBRANCH   9  11
ENDBRANCH   6   9
ENDBRANCH   2   3
TORSDOF 6
ENDMDL
MODEL       29
REMARK 921   NORMALIZED FREE ENERGY PREDICTED BY IDOCK:   -5.90 KCAL/MOL
REMARK 922        TOTAL FREE ENERGY PREDICTED BY IDOCK:   -8.97 KCAL/MOL
REMARK 923 INTER-LIGAND FREE ENERGY PREDICTED BY IDOCK:   -8.27 KCAL/MOL
REMARK 924 INTRA-LIGAND FREE ENERGY PREDICTED BY IDOCK:   -0.69 KCAL/MOL
REMARK 927      BINDING AFFINITY PREDICTED BY RF-SCORE:    0.00 PKD
ROOT
HETATM    1  C   UNL     1     -12.843  16.182  73.815  1.00  0.00    -0.531 C  
HETATM    2  O   UNL     1     -13.626  15.840  72.675  1.00  0.00    -0.523 OA 
ENDROOT
BRANCH   2   3
HETATM    3  C   UNL     1     -13.195  14.741  71.985  1.00  0.00    -0.351 A  
HETATM    4  C   UNL     1     -13.579  13.507  72.509  1.00  0.00    -0.674 A  
HETATM    5  C   UNL     1     -13.180  12.318  71.890  1.00  0.00    -0.481 A  
HETATM    6  C   UNL     1     -12.400  12.356  70.727  1.00  0.00    -0.377 A  
HETATM    7  C   UNL     1     -12.041  13.598  70.191  1.00  0.00    -0.431 A  
HETATM    8  C   UNL     1     -12.447  14.783  70.810  1.00  0.00    -0.402 A  
BRANCH   6   9
HETATM    9  C   UNL     1     -11.973  11.061  70.111  1.00  0.00    -0.360 C  
HETATM   10  O   UNL     1     -12.268  10.822  68.937  1.00  0.00    -0.447 OA 
BRANCH   9  11
HETATM   11  C   UNL     1     -11.268  10.023  70.953  1.00  0.00    -0.415 C  
BRANCH  11  12
HETATM   12  C   UNL     1     -12.149   8.896  71.428  1.00  0.00    -0.322 C  
HETATM   13  O   UNL     1     -13.371   8.995  71.518  1.00  0.00    -0.346 OA 
BRANCH  12  14
HETATM   14  C   UNL     1     -11.506   7.614  71.824  1.00  0.00    -0.302 A  
HETATM   15  C   UNL     1     -11.410   6.615  70.855  1.00  0.00    -0.377 A  
HETATM   16  C   UNL     1     -10.883   5.365  71.177  1.00  0.00    -0.188 A  
HETATM   17  C   UNL     1     -10.428   5.073  72.474  1.00  0.00    -0.270 A  
HETATM   18  C   UNL     1     -11.014   7.370  73.108  1.00  0.00    -0.408 A  
HETATM   19  C   UNL     1     -10.478   6.113  73.423  1.00  0.00    -0.269 A  
BRANCH  17  20
HETATM   20  C   UNL     1      -9.927   3.671  72.864  1.00  0.00    -0.210 C  
HETATM   21  C   UNL     1      -9.848   2.698  71.664  1.00  0.00    -0.213 C  
HETATM   22  C   UNL     1      -8.517   3.759  73.482  1.00  0.00    -0.087 C  
HETATM   23  C   UNL     1     -10.889   3.039  73.894  1.00  0.00    -0.293 C  
ENDBRANCH  17  20
ENDBRANCH  12  14
ENDBRANCH  11  12
ENDBRANCH   9  11
ENDBRANCH   6   9
ENDBRANCH   2   3
TORSDOF 6
ENDMDL
MODEL       30
REMARK 921   NORMALIZED FREE ENERGY PREDICTED BY IDOCK:   -5.88 KCAL/MOL
REMARK 922        TOTAL FREE ENERGY PREDICTED BY IDOCK:   -8.94 KCAL/MOL
REMARK 923 INTER-LIGAND FREE ENERGY PREDICTED BY IDOCK:   -7.96 KCAL/MOL
REMARK 924 INTRA-LIGAND FREE ENERGY PREDICTED BY IDOCK:   -0.98 KCAL/MOL
REMARK 927      BINDING AFFINITY PREDICTED BY RF-SCORE:    0.00 PKD
ROOT
HETATM    1  C   UNL     1     -10.690   8.940  71.748  1.00  0.00    -0.362 C  
HETATM    2  O   UNL     1     -11.569  10.036  71.506  1.00  0.00    -0.353 OA 
ENDROOT
BRANCH   2   3
HETATM    3  C   UNL     1     -11.518  10.551  70.241  1.00  0.00    -0.333 A  
HETATM    4  C   UNL     1     -11.977  11.860  70.102  1.00  0.00    -0.413 A  
HETATM    5  C   UNL     1     -11.984  12.480  68.848  1.00  0.00    -0.282 A  
HETATM    6  C   UNL     1     -11.516  11.795  67.719  1.00  0.00    -0.381 A  
HETATM    7  C   UNL     1     -11.030  10.491  67.871  1.00  0.00    -0.352 A  
HETATM    8  C   UNL     1     -11.020   9.878  69.127  1.00  0.00    -0.233 A  
BRANCH   6   9
HETATM    9  C   UNL     1     -11.564  12.484  66.393  1.00  0.00    -0.391 C  
HETATM   10  O   UNL     1     -12.639  12.576  65.795  1.00  0.00    -0.569 OA 
BRANCH   9  11
HETATM   11  C   UNL     1     -10.286  12.980  65.756  1.00  0.00    -0.297 C  
BRANCH  11  12
HETATM   12  C   UNL     1      -9.314  13.620  66.714  1.00  0.00    -0.261 C  
HETATM   13  O   UNL     1      -8.522  12.972  67.395  1.00  0.00    -0.180 OA 
BRANCH  12  14
HETATM   14  C   UNL     1      -9.330  15.101  66.854  1.00  0.00    -0.251 A  
HETATM   15  C   UNL     1     -10.425  15.675  67.499  1.00  0.00    -0.285 A  
HETATM   16  C   UNL     1     -10.538  17.061  67.603  1.00  0.00    -0.333 A  
HETATM   17  C   UNL     1      -9.559  17.918  67.074  1.00  0.00    -0.286 A  
HETATM   18  C   UNL     1      -8.315  15.926  66.364  1.00  0.00    -0.310 A  
HETATM   19  C   UNL     1      -8.431  17.319  66.479  1.00  0.00    -0.306 A  
BRANCH  17  20
HETATM   20  C   UNL     1      -9.715  19.450  67.104  1.00  0.00    -0.425 C  
HETATM   21  C   UNL     1      -8.361  20.198  67.122  1.00  0.00    -0.391 C  
HETATM   22  C   UNL     1     -10.495  19.934  65.865  1.00  0.00    -0.567 C  
HETATM   23  C   UNL     1     -10.480  19.873  68.377  1.00  0.00    -0.395 C  
ENDBRANCH  17  20
ENDBRANCH  12  14
ENDBRANCH  11  12
ENDBRANCH   9  11
ENDBRANCH   6   9
ENDBRANCH   2   3
TORSDOF 6
ENDMDL
MODEL       31
REMARK 921   NORMALIZED FREE ENERGY PREDICTED BY IDOCK:   -5.87 KCAL/MOL
REMARK 922        TOTAL FREE ENERGY PREDICTED BY IDOCK:   -8.93 KCAL/MOL
REMARK 923 INTER-LIGAND FREE ENERGY PREDICTED BY IDOCK:   -7.86 KCAL/MOL
REMARK 924 INTRA-LIGAND FREE ENERGY PREDICTED BY IDOCK:   -1.08 KCAL/MOL
REMARK 927      BINDING AFFINITY PREDICTED BY RF-SCORE:    0.00 PKD
ROOT
HETATM    1  C   UNL     1      -9.815  20.279  67.320  1.00  0.00    -0.452 C  
HETATM    2  O   UNL     1     -10.810  19.293  67.581  1.00  0.00    -0.458 OA 
ENDROOT
BRANCH   2   3
HETATM    3  C   UNL     1     -10.434  18.005  67.318  1.00  0.00    -0.380 A  
HETATM    4  C   UNL     1     -10.820  17.056  68.264  1.00  0.00    -0.341 A  
HETATM    5  C   UNL     1     -10.475  15.711  68.100  1.00  0.00    -0.259 A  
HETATM    6  C   UNL     1      -9.747  15.301  66.976  1.00  0.00    -0.232 A  
HETATM    7  C   UNL     1      -9.387  16.254  66.017  1.00  0.00    -0.361 A  
HETATM    8  C   UNL     1      -9.739  17.597  66.181  1.00  0.00    -0.228 A  
BRANCH   6   9
HETATM    9  C   UNL     1      -9.376  13.857  66.852  1.00  0.00    -0.258 C  
HETATM   10  O   UNL     1      -8.437  13.413  67.517  1.00  0.00    -0.168 OA 
BRANCH   9  11
HETATM   11  C   UNL     1     -10.091  12.980  65.850  1.00  0.00    -0.291 C  
BRANCH  11  12
HETATM   12  C   UNL     1     -11.360  12.348  66.362  1.00  0.00    -0.342 C  
HETATM   13  O   UNL     1     -12.452  12.510  65.821  1.00  0.00    -0.626 OA 
BRANCH  12  14
HETATM   14  C   UNL     1     -11.289  11.508  67.588  1.00  0.00    -0.358 A  
HETATM   15  C   UNL     1     -10.674  10.261  67.479  1.00  0.00    -0.348 A  
HETATM   16  C   UNL     1     -10.635   9.394  68.571  1.00  0.00    -0.234 A  
HETATM   17  C   UNL     1     -11.202   9.745  69.807  1.00  0.00    -0.242 A  
HETATM   18  C   UNL     1     -11.815  11.905  68.819  1.00  0.00    -0.371 A  
HETATM   19  C   UNL     1     -11.766  11.032  69.915  1.00  0.00    -0.424 A  
BRANCH  17  20
HETATM   20  C   UNL     1     -11.243   8.764  70.992  1.00  0.00    -0.329 C  
HETATM   21  C   UNL     1     -12.358   9.092  72.013  1.00  0.00    -0.455 C  
HETATM   22  C   UNL     1     -11.483   7.326  70.490  1.00  0.00    -0.310 C  
HETATM   23  C   UNL     1      -9.903   8.812  71.758  1.00  0.00    -0.391 C  
ENDBRANCH  17  20
ENDBRANCH  12  14
ENDBRANCH  11  12
ENDBRANCH   9  11
ENDBRANCH   6   9
ENDBRANCH   2   3
TORSDOF 6
ENDMDL
MODEL       32
REMARK 921   NORMALIZED FREE ENERGY PREDICTED BY IDOCK:   -5.86 KCAL/MOL
REMARK 922        TOTAL FREE ENERGY PREDICTED BY IDOCK:   -8.91 KCAL/MOL
REMARK 923 INTER-LIGAND FREE ENERGY PREDICTED BY IDOCK:   -8.02 KCAL/MOL
REMARK 924 INTRA-LIGAND FREE ENERGY PREDICTED BY IDOCK:   -0.90 KCAL/MOL
REMARK 927      BINDING AFFINITY PREDICTED BY RF-SCORE:    0.00 PKD
ROOT
HETATM    1  C   UNL     1      -9.379   6.955  66.318  1.00  0.00    -0.099 C  
HETATM    2  O   UNL     1     -10.383   7.808  66.861  1.00  0.00    -0.295 OA 
ENDROOT
BRANCH   2   3
HETATM    3  C   UNL     1     -10.269   9.127  66.519  1.00  0.00    -0.252 A  
HETATM    4  C   UNL     1     -10.819  10.036  67.423  1.00  0.00    -0.313 A  
HETATM    5  C   UNL     1     -10.772  11.410  67.165  1.00  0.00    -0.292 A  
HETATM    6  C   UNL     1     -10.159  11.888  65.999  1.00  0.00    -0.261 A  
HETATM    7  C   UNL     1      -9.585  10.971  65.110  1.00  0.00    -0.281 A  
HETATM    8  C   UNL     1      -9.630   9.600  65.376  1.00  0.00    -0.361 A  
BRANCH   6   9
HETATM    9  C   UNL     1     -10.153  13.362  65.748  1.00  0.00    -0.288 C  
HETATM   10  O   UNL     1     -10.658  13.804  64.713  1.00  0.00    -0.386 OA 
BRANCH   9  11
HETATM   11  C   UNL     1      -9.449  14.287  66.715  1.00  0.00    -0.287 C  
BRANCH  11  12
HETATM   12  C   UNL     1     -10.303  15.411  67.244  1.00  0.00    -0.271 C  
HETATM   13  O   UNL     1     -10.483  16.459  66.628  1.00  0.00    -0.295 OA 
BRANCH  12  14
HETATM   14  C   UNL     1     -10.938  15.249  68.579  1.00  0.00    -0.266 A  
HETATM   15  C   UNL     1     -11.794  14.162  68.758  1.00  0.00    -0.384 A  
HETATM   16  C   UNL     1     -12.477  13.990  69.962  1.00  0.00    -0.339 A  
HETATM   17  C   UNL     1     -12.323  14.893  71.027  1.00  0.00    -0.388 A  
HETATM   18  C   UNL     1     -10.726  16.134  69.639  1.00  0.00    -0.325 A  
HETATM   19  C   UNL     1     -11.410  15.951  70.850  1.00  0.00    -0.428 A  
BRANCH  17  20
HETATM   20  C   UNL     1     -13.138  14.764  72.328  1.00  0.00    -0.441 C  
HETATM   21  C   UNL     1     -12.288  14.989  73.601  1.00  0.00    -0.639 C  
HETATM   22  C   UNL     1     -14.284  15.795  72.347  1.00  0.00    -0.428 C  
HETATM   23  C   UNL     1     -13.736  13.344  72.432  1.00  0.00    -0.698 C  
ENDBRANCH  17  20
ENDBRANCH  12  14
ENDBRANCH  11  12
ENDBRANCH   9  11
ENDBRANCH   6   9
ENDBRANCH   2   3
TORSDOF 6
ENDMDL
MODEL       33
REMARK 921   NORMALIZED FREE ENERGY PREDICTED BY IDOCK:   -5.85 KCAL/MOL
REMARK 922        TOTAL FREE ENERGY PREDICTED BY IDOCK:   -8.90 KCAL/MOL
REMARK 923 INTER-LIGAND FREE ENERGY PREDICTED BY IDOCK:   -7.35 KCAL/MOL
REMARK 924 INTRA-LIGAND FREE ENERGY PREDICTED BY IDOCK:   -1.55 KCAL/MOL
REMARK 927      BINDING AFFINITY PREDICTED BY RF-SCORE:    0.00 PKD
ROOT
HETATM    1  C   UNL     1     -13.407   9.098  71.497  1.00  0.00    -0.355 C  
HETATM    2  O   UNL     1     -13.541  10.247  72.328  1.00  0.00    -0.325 OA 
ENDROOT
BRANCH   2   3
HETATM    3  C   UNL     1     -13.100  11.418  71.776  1.00  0.00    -0.418 A  
HETATM    4  C   UNL     1     -12.239  11.286  70.687  1.00  0.00    -0.489 A  
HETATM    5  C   UNL     1     -11.716  12.419  70.055  1.00  0.00    -0.307 A  
HETATM    6  C   UNL     1     -12.063  13.700  70.503  1.00  0.00    -0.411 A  
HETATM    7  C   UNL     1     -12.950  13.825  71.579  1.00  0.00    -0.444 A  
HETATM    8  C   UNL     1     -13.474  12.689  72.204  1.00  0.00    -0.561 A  
BRANCH   6   9
HETATM    9  C   UNL     1     -11.462  14.885  69.816  1.00  0.00    -0.295 C  
HETATM   10  O   UNL     1     -10.564  15.519  70.375  1.00  0.00    -0.317 OA 
BRANCH   9  11
HETATM   11  C   UNL     1     -12.020  15.349  68.491  1.00  0.00    -0.205 C  
BRANCH  11  12
HETATM   12  C   UNL     1     -11.057  15.253  67.335  1.00  0.00    -0.326 C  
HETATM   13  O   UNL     1     -10.707  16.229  66.674  1.00  0.00    -0.291 OA 
BRANCH  12  14
HETATM   14  C   UNL     1     -10.523  13.914  66.968  1.00  0.00    -0.278 A  
HETATM   15  C   UNL     1     -11.439  12.947  66.554  1.00  0.00    -0.390 A  
HETATM   16  C   UNL     1     -11.015  11.650  66.263  1.00  0.00    -0.338 A  
HETATM   17  C   UNL     1      -9.665  11.279  66.367  1.00  0.00    -0.238 A  
HETATM   18  C   UNL     1      -9.167  13.588  67.031  1.00  0.00    -0.248 A  
HETATM   19  C   UNL     1      -8.746  12.285  66.729  1.00  0.00    -0.175 A  
BRANCH  17  20
HETATM   20  C   UNL     1      -9.198   9.831  66.134  1.00  0.00    -0.221 C  
HETATM   21  C   UNL     1      -7.788   9.548  66.705  1.00  0.00    -0.101 C  
HETATM   22  C   UNL     1     -10.174   8.839  66.798  1.00  0.00    -0.354 C  
HETATM   23  C   UNL     1      -9.137   9.538  64.619  1.00  0.00    -0.263 C  
ENDBRANCH  17  20
ENDBRANCH  12  14
ENDBRANCH  11  12
ENDBRANCH   9  11
ENDBRANCH   6   9
ENDBRANCH   2   3
TORSDOF 6
ENDMDL
MODEL       34
REMARK 921   NORMALIZED FREE ENERGY PREDICTED BY IDOCK:   -5.81 KCAL/MOL
REMARK 922        TOTAL FREE ENERGY PREDICTED BY IDOCK:   -8.85 KCAL/MOL
REMARK 923 INTER-LIGAND FREE ENERGY PREDICTED BY IDOCK:   -7.15 KCAL/MOL
REMARK 924 INTRA-LIGAND FREE ENERGY PREDICTED BY IDOCK:   -1.70 KCAL/MOL
REMARK 927      BINDING AFFINITY PREDICTED BY RF-SCORE:    0.00 PKD
ROOT
HETATM    1  C   UNL     1     -12.706  15.842  72.625  1.00  0.00    -0.451 C  
HETATM    2  O   UNL     1     -11.607  15.127  72.067  1.00  0.00    -0.407 OA 
ENDROOT
BRANCH   2   3
HETATM    3  C   UNL     1     -11.631  14.996  70.706  1.00  0.00    -0.317 A  
HETATM    4  C   UNL     1     -11.975  13.734  70.225  1.00  0.00    -0.397 A  
HETATM    5  C   UNL     1     -12.016  13.486  68.849  1.00  0.00    -0.378 A  
HETATM    6  C   UNL     1     -11.723  14.510  67.938  1.00  0.00    -0.381 A  
HETATM    7  C   UNL     1     -11.406  15.782  68.428  1.00  0.00    -0.372 A  
HETATM    8  C   UNL     1     -11.372  16.026  69.804  1.00  0.00    -0.331 A  
BRANCH   6   9
HETATM    9  C   UNL     1     -11.754  14.197  66.476  1.00  0.00    -0.397 C  
HETATM   10  O   UNL     1     -12.839  14.053  65.909  1.00  0.00    -0.484 OA 
BRANCH   9  11
HETATM   11  C   UNL     1     -10.460  13.970  65.728  1.00  0.00    -0.317 C  
BRANCH  11  12
HETATM   12  C   UNL     1     -10.113  12.521  65.498  1.00  0.00    -0.265 C  
HETATM   13  O   UNL     1      -9.951  12.043  64.377  1.00  0.00    -0.269 OA 
BRANCH  12  14
HETATM   14  C   UNL     1      -9.982  11.628  66.681  1.00  0.00    -0.230 A  
HETATM   15  C   UNL     1     -10.799  10.498  66.729  1.00  0.00    -0.209 A  
HETATM   16  C   UNL     1     -10.778   9.657  67.841  1.00  0.00    -0.302 A  
HETATM   17  C   UNL     1      -9.936   9.910  68.936  1.00  0.00    -0.188 A  
HETATM   18  C   UNL     1      -9.097  11.876  67.732  1.00  0.00    -0.180 A  
HETATM   19  C   UNL     1      -9.075  11.022  68.844  1.00  0.00    -0.132 A  
BRANCH  17  20
HETATM   20  C   UNL     1      -9.967   9.040  70.206  1.00  0.00    -0.229 C  
HETATM   21  C   UNL     1     -11.042   9.488  71.223  1.00  0.00    -0.449 C  
HETATM   22  C   UNL     1     -10.258   7.570  69.841  1.00  0.00    -0.210 C  
HETATM   23  C   UNL     1      -8.604   9.118  70.927  1.00  0.00    -0.259 C  
ENDBRANCH  17  20
ENDBRANCH  12  14
ENDBRANCH  11  12
ENDBRANCH   9  11
ENDBRANCH   6   9
ENDBRANCH   2   3
TORSDOF 6
ENDMDL
MODEL       35
REMARK 921   NORMALIZED FREE ENERGY PREDICTED BY IDOCK:   -5.77 KCAL/MOL
REMARK 922        TOTAL FREE ENERGY PREDICTED BY IDOCK:   -8.80 KCAL/MOL
REMARK 923 INTER-LIGAND FREE ENERGY PREDICTED BY IDOCK:   -7.16 KCAL/MOL
REMARK 924 INTRA-LIGAND FREE ENERGY PREDICTED BY IDOCK:   -1.64 KCAL/MOL
REMARK 927      BINDING AFFINITY PREDICTED BY RF-SCORE:    0.00 PKD
ROOT
HETATM    1  C   UNL     1     -11.641  12.731  67.869  1.00  0.00    -0.351 C  
HETATM    2  O   UNL     1     -12.148  11.407  68.013  1.00  0.00    -0.629 OA 
ENDROOT
BRANCH   2   3
HETATM    3  C   UNL     1     -11.715  10.738  69.125  1.00  0.00    -0.296 A  
HETATM    4  C   UNL     1     -10.436  10.190  69.042  1.00  0.00    -0.239 A  
HETATM    5  C   UNL     1      -9.901   9.473  70.117  1.00  0.00    -0.288 A  
HETATM    6  C   UNL     1     -10.642   9.308  71.294  1.00  0.00    -0.417 A  
HETATM    7  C   UNL     1     -11.915   9.884  71.380  1.00  0.00    -0.489 A  
HETATM    8  C   UNL     1     -12.443  10.605  70.305  1.00  0.00    -0.381 A  
BRANCH   6   9
HETATM    9  C   UNL     1     -10.044   8.512  72.410  1.00  0.00    -0.295 C  
HETATM   10  O   UNL     1      -8.838   8.614  72.650  1.00  0.00    -0.371 OA 
BRANCH   9  11
HETATM   11  C   UNL     1     -10.898   7.525  73.173  1.00  0.00    -0.448 C  
BRANCH  11  12
HETATM   12  C   UNL     1     -10.908   6.130  72.601  1.00  0.00    -0.245 C  
HETATM   13  O   UNL     1     -11.147   5.133  73.279  1.00  0.00    -0.287 OA 
BRANCH  12  14
HETATM   14  C   UNL     1     -10.594   5.954  71.158  1.00  0.00    -0.306 A  
HETATM   15  C   UNL     1      -9.315   5.510  70.826  1.00  0.00    -0.199 A  
HETATM   16  C   UNL     1      -8.932   5.391  69.491  1.00  0.00    -0.125 A  
HETATM   17  C   UNL     1      -9.814   5.703  68.444  1.00  0.00    -0.178 A  
HETATM   18  C   UNL     1     -11.510   6.222  70.138  1.00  0.00    -0.452 A  
HETATM   19  C   UNL     1     -11.122   6.092  68.797  1.00  0.00    -0.398 A  
BRANCH  17  20
HETATM   20  C   UNL     1      -9.376   5.660  66.968  1.00  0.00    -0.119 C  
HETATM   21  C   UNL     1      -8.017   4.950  66.760  1.00  0.00    -0.103 C  
HETATM   22  C   UNL     1     -10.423   4.912  66.119  1.00  0.00    -0.346 C  
HETATM   23  C   UNL     1      -9.221   7.097  66.426  1.00  0.00    -0.196 C  
ENDBRANCH  17  20
ENDBRANCH  12  14
ENDBRANCH  11  12
ENDBRANCH   9  11
ENDBRANCH   6   9
ENDBRANCH   2   3
TORSDOF 6
ENDMDL
MODEL       36
REMARK 921   NORMALIZED FREE ENERGY PREDICTED BY IDOCK:   -5.77 KCAL/MOL
REMARK 922        TOTAL FREE ENERGY PREDICTED BY IDOCK:   -8.80 KCAL/MOL
REMARK 923 INTER-LIGAND FREE ENERGY PREDICTED BY IDOCK:   -8.06 KCAL/MOL
REMARK 924 INTRA-LIGAND FREE ENERGY PREDICTED BY IDOCK:   -0.74 KCAL/MOL
REMARK 927      BINDING AFFINITY PREDICTED BY RF-SCORE:    0.00 PKD
ROOT
HETATM    1  C   UNL     1     -13.324  15.885  72.871  1.00  0.00    -0.547 C  
HETATM    2  O   UNL     1     -13.619  15.412  71.560  1.00  0.00    -0.464 OA 
ENDROOT
BRANCH   2   3
HETATM    3  C   UNL     1     -13.124  14.172  71.266  1.00  0.00    -0.350 A  
HETATM    4  C   UNL     1     -13.570  13.133  72.082  1.00  0.00    -0.637 A  
HETATM    5  C   UNL     1     -13.115  11.826  71.879  1.00  0.00    -0.482 A  
HETATM    6  C   UNL     1     -12.215  11.545  70.842  1.00  0.00    -0.425 A  
HETATM    7  C   UNL     1     -11.794  12.588  70.009  1.00  0.00    -0.363 A  
HETATM    8  C   UNL     1     -12.256  13.892  70.213  1.00  0.00    -0.428 A  
BRANCH   6   9
HETATM    9  C   UNL     1     -11.734  10.139  70.675  1.00  0.00    -0.338 C  
HETATM   10  O   UNL     1     -11.279   9.779  69.587  1.00  0.00    -0.234 OA 
BRANCH   9  11
HETATM   11  C   UNL     1     -11.893   9.150  71.806  1.00  0.00    -0.453 C  
BRANCH  11  12
HETATM   12  C   UNL     1     -12.470   7.818  71.400  1.00  0.00    -0.320 C  
HETATM   13  O   UNL     1     -13.679   7.609  71.325  1.00  0.00    -0.314 OA 
BRANCH  12  14
HETATM   14  C   UNL     1     -11.533   6.703  71.096  1.00  0.00    -0.370 A  
HETATM   15  C   UNL     1     -11.248   6.448  69.755  1.00  0.00    -0.484 A  
HETATM   16  C   UNL     1     -10.434   5.374  69.397  1.00  0.00    -0.331 A  
HETATM   17  C   UNL     1      -9.871   4.526  70.364  1.00  0.00    -0.302 A  
HETATM   18  C   UNL     1     -10.946   5.907  72.083  1.00  0.00    -0.317 A  
HETATM   19  C   UNL     1     -10.121   4.834  71.716  1.00  0.00    -0.261 A  
BRANCH  17  20
HETATM   20  C   UNL     1      -9.044   3.286  69.978  1.00  0.00    -0.197 C  
HETATM   21  C   UNL     1      -7.534   3.448  70.274  1.00  0.00    -0.041 C  
HETATM   22  C   UNL     1      -9.537   2.048  70.753  1.00  0.00    -0.167 C  
HETATM   23  C   UNL     1      -9.178   3.018  68.463  1.00  0.00    -0.233 C  
ENDBRANCH  17  20
ENDBRANCH  12  14
ENDBRANCH  11  12
ENDBRANCH   9  11
ENDBRANCH   6   9
ENDBRANCH   2   3
TORSDOF 6
ENDMDL
MODEL       37
REMARK 921   NORMALIZED FREE ENERGY PREDICTED BY IDOCK:   -5.73 KCAL/MOL
REMARK 922        TOTAL FREE ENERGY PREDICTED BY IDOCK:   -8.74 KCAL/MOL
REMARK 923 INTER-LIGAND FREE ENERGY PREDICTED BY IDOCK:   -7.92 KCAL/MOL
REMARK 924 INTRA-LIGAND FREE ENERGY PREDICTED BY IDOCK:   -0.82 KCAL/MOL
REMARK 927      BINDING AFFINITY PREDICTED BY RF-SCORE:    0.00 PKD
ROOT
HETATM    1  C   UNL     1     -13.066  15.945  73.320  1.00  0.00    -0.589 C  
HETATM    2  O   UNL     1     -11.944  16.348  72.538  1.00  0.00    -0.534 OA 
ENDROOT
BRANCH   2   3
HETATM    3  C   UNL     1     -11.850  15.755  71.310  1.00  0.00    -0.437 A  
HETATM    4  C   UNL     1     -11.125  16.461  70.351  1.00  0.00    -0.246 A  
HETATM    5  C   UNL     1     -10.979  15.952  69.056  1.00  0.00    -0.277 A  
HETATM    6  C   UNL     1     -11.549  14.720  68.713  1.00  0.00    -0.347 A  
HETATM    7  C   UNL     1     -12.252  14.004  69.689  1.00  0.00    -0.383 A  
HETATM    8  C   UNL     1     -12.391  14.513  70.983  1.00  0.00    -0.417 A  
BRANCH   6   9
HETATM    9  C   UNL     1     -11.391  14.223  67.311  1.00  0.00    -0.334 C  
HETATM   10  O   UNL     1     -10.728  14.882  66.506  1.00  0.00    -0.296 OA 
BRANCH   9  11
HETATM   11  C   UNL     1     -12.116  12.974  66.869  1.00  0.00    -0.349 C  
BRANCH  11  12
HETATM   12  C   UNL     1     -11.225  11.781  66.632  1.00  0.00    -0.323 C  
HETATM   13  O   UNL     1     -10.660  11.572  65.560  1.00  0.00    -0.268 OA 
BRANCH  12  14
HETATM   14  C   UNL     1     -11.040  10.804  67.738  1.00  0.00    -0.381 A  
HETATM   15  C   UNL     1     -10.566   9.536  67.405  1.00  0.00    -0.337 A  
HETATM   16  C   UNL     1     -10.435   8.550  68.383  1.00  0.00    -0.215 A  
HETATM   17  C   UNL     1     -10.767   8.799  69.724  1.00  0.00    -0.220 A  
HETATM   18  C   UNL     1     -11.328  11.097  69.073  1.00  0.00    -0.343 A  
HETATM   19  C   UNL     1     -11.187  10.104  70.053  1.00  0.00    -0.361 A  
BRANCH  17  20
HETATM   20  C   UNL     1     -10.711   7.695  70.796  1.00  0.00    -0.231 C  
HETATM   21  C   UNL     1     -11.607   6.480  70.462  1.00  0.00    -0.455 C  
HETATM   22  C   UNL     1      -9.268   7.177  70.958  1.00  0.00    -0.158 C  
HETATM   23  C   UNL     1     -11.199   8.256  72.150  1.00  0.00    -0.413 C  
ENDBRANCH  17  20
ENDBRANCH  12  14
ENDBRANCH  11  12
ENDBRANCH   9  11
ENDBRANCH   6   9
ENDBRANCH   2   3
TORSDOF 6
ENDMDL
MODEL       38
REMARK 921   NORMALIZED FREE ENERGY PREDICTED BY IDOCK:   -5.72 KCAL/MOL
REMARK 922        TOTAL FREE ENERGY PREDICTED BY IDOCK:   -8.74 KCAL/MOL
REMARK 923 INTER-LIGAND FREE ENERGY PREDICTED BY IDOCK:   -7.56 KCAL/MOL
REMARK 924 INTRA-LIGAND FREE ENERGY PREDICTED BY IDOCK:   -1.17 KCAL/MOL
REMARK 927      BINDING AFFINITY PREDICTED BY RF-SCORE:    0.00 PKD
ROOT
HETATM    1  C   UNL     1      -9.324  17.067  68.860  1.00  0.00    -0.224 C  
HETATM    2  O   UNL     1     -10.580  16.410  69.013  1.00  0.00    -0.265 OA 
ENDROOT
BRANCH   2   3
HETATM    3  C   UNL     1     -11.001  15.702  67.921  1.00  0.00    -0.319 A  
HETATM    4  C   UNL     1     -10.475  16.110  66.696  1.00  0.00    -0.300 A  
HETATM    5  C   UNL     1     -10.851  15.464  65.514  1.00  0.00    -0.384 A  
HETATM    6  C   UNL     1     -11.750  14.391  65.550  1.00  0.00    -0.352 A  
HETATM    7  C   UNL     1     -12.251  13.969  66.787  1.00  0.00    -0.439 A  
HETATM    8  C   UNL     1     -11.869  14.613  67.967  1.00  0.00    -0.343 A  
BRANCH   6   9
HETATM    9  C   UNL     1     -12.144  13.744  64.261  1.00  0.00    -0.440 C  
HETATM   10  O   UNL     1     -12.677  14.423  63.380  1.00  0.00    -0.689 OA 
BRANCH   9  11
HETATM   11  C   UNL     1     -11.971  12.253  64.083  1.00  0.00    -0.518 C  
BRANCH  11  12
HETATM   12  C   UNL     1     -10.576  11.746  64.347  1.00  0.00    -0.317 C  
HETATM   13  O   UNL     1      -9.600  12.107  63.694  1.00  0.00    -0.198 OA 
BRANCH  12  14
HETATM   14  C   UNL     1     -10.379  10.751  65.435  1.00  0.00    -0.315 A  
HETATM   15  C   UNL     1      -9.641   9.607  65.135  1.00  0.00    -0.324 A  
HETATM   16  C   UNL     1      -9.477   8.601  66.086  1.00  0.00    -0.308 A  
HETATM   17  C   UNL     1     -10.038   8.707  67.370  1.00  0.00    -0.292 A  
HETATM   18  C   UNL     1     -10.905  10.908  66.719  1.00  0.00    -0.283 A  
HETATM   19  C   UNL     1     -10.729   9.896  67.675  1.00  0.00    -0.339 A  
BRANCH  17  20
HETATM   20  C   UNL     1      -9.939   7.566  68.399  1.00  0.00    -0.185 C  
HETATM   21  C   UNL     1     -10.255   8.021  69.842  1.00  0.00    -0.204 C  
HETATM   22  C   UNL     1     -10.925   6.436  68.043  1.00  0.00    -0.400 C  
HETATM   23  C   UNL     1      -8.503   6.995  68.411  1.00  0.00    -0.123 C  
ENDBRANCH  17  20
ENDBRANCH  12  14
ENDBRANCH  11  12
ENDBRANCH   9  11
ENDBRANCH   6   9
ENDBRANCH   2   3
TORSDOF 6
ENDMDL
MODEL       39
REMARK 921   NORMALIZED FREE ENERGY PREDICTED BY IDOCK:   -5.69 KCAL/MOL
REMARK 922        TOTAL FREE ENERGY PREDICTED BY IDOCK:   -8.68 KCAL/MOL
REMARK 923 INTER-LIGAND FREE ENERGY PREDICTED BY IDOCK:   -7.67 KCAL/MOL
REMARK 924 INTRA-LIGAND FREE ENERGY PREDICTED BY IDOCK:   -1.01 KCAL/MOL
REMARK 927      BINDING AFFINITY PREDICTED BY RF-SCORE:    0.00 PKD
ROOT
HETATM    1  C   UNL     1     -11.931  15.480  64.061  1.00  0.00     0.054 C  
HETATM    2  O   UNL     1     -12.337  14.195  63.596  1.00  0.00    -0.741 OA 
ENDROOT
BRANCH   2   3
HETATM    3  C   UNL     1     -11.754  13.136  64.236  1.00  0.00    -0.395 A  
HETATM    4  C   UNL     1     -12.310  12.794  65.468  1.00  0.00    -0.495 A  
HETATM    5  C   UNL     1     -11.781  11.735  66.214  1.00  0.00    -0.109 A  
HETATM    6  C   UNL     1     -10.695  10.999  65.723  1.00  0.00    -0.216 A  
HETATM    7  C   UNL     1     -10.161  11.331  64.473  1.00  0.00    -0.348 A  
HETATM    8  C   UNL     1     -10.696  12.386  63.729  1.00  0.00    -0.492 A  
BRANCH   6   9
HETATM    9  C   UNL     1     -10.144   9.891  66.564  1.00  0.00    -0.232 C  
HETATM   10  O   UNL     1     -10.241   8.726  66.172  1.00  0.00    -0.233 OA 
BRANCH   9  11
HETATM   11  C   UNL     1      -9.557  10.199  67.922  1.00  0.00    -0.166 C  
BRANCH  11  12
HETATM   12  C   UNL     1     -10.479   9.922  69.082  1.00  0.00    -0.217 C  
HETATM   13  O   UNL     1     -10.698   8.789  69.506  1.00  0.00    -0.228 OA 
BRANCH  12  14
HETATM   14  C   UNL     1     -11.169  11.071  69.728  1.00  0.00    -0.339 A  
HETATM   15  C   UNL     1     -10.912  12.344  69.221  1.00  0.00    -0.145 A  
HETATM   16  C   UNL     1     -11.470  13.472  69.823  1.00  0.00    -0.246 A  
HETATM   17  C   UNL     1     -12.307  13.365  70.946  1.00  0.00    -0.436 A  
HETATM   18  C   UNL     1     -12.039  10.930  70.811  1.00  0.00    -0.469 A  
HETATM   19  C   UNL     1     -12.603  12.067  71.408  1.00  0.00    -0.330 A  
BRANCH  17  20
HETATM   20  C   UNL     1     -12.857  14.606  71.672  1.00  0.00    -0.403 C  
HETATM   21  C   UNL     1     -12.735  14.511  73.211  1.00  0.00    -0.483 C  
HETATM   22  C   UNL     1     -12.099  15.870  71.224  1.00  0.00    -0.487 C  
HETATM   23  C   UNL     1     -14.358  14.778  71.350  1.00  0.00    -0.516 C  
ENDBRANCH  17  20
ENDBRANCH  12  14
ENDBRANCH  11  12
ENDBRANCH   9  11
ENDBRANCH   6   9
ENDBRANCH   2   3
TORSDOF 6
ENDMDL
MODEL       40
REMARK 921   NORMALIZED FREE ENERGY PREDICTED BY IDOCK:   -5.68 KCAL/MOL
REMARK 922        TOTAL FREE ENERGY PREDICTED BY IDOCK:   -8.68 KCAL/MOL
REMARK 923 INTER-LIGAND FREE ENERGY PREDICTED BY IDOCK:   -8.01 KCAL/MOL
REMARK 924 INTRA-LIGAND FREE ENERGY PREDICTED BY IDOCK:   -0.66 KCAL/MOL
REMARK 927      BINDING AFFINITY PREDICTED BY RF-SCORE:    0.00 PKD
ROOT
HETATM    1  C   UNL     1      -7.143  20.462  67.528  1.00  0.00    -0.309 C  
HETATM    2  O   UNL     1      -8.555  20.383  67.352  1.00  0.00    -0.342 OA 
ENDROOT
BRANCH   2   3
HETATM    3  C   UNL     1      -9.058  19.115  67.261  1.00  0.00    -0.295 A  
HETATM    4  C   UNL     1      -8.324  18.228  66.475  1.00  0.00    -0.287 A  
HETATM    5  C   UNL     1      -8.757  16.909  66.301  1.00  0.00    -0.321 A  
HETATM    6  C   UNL     1      -9.928  16.462  66.928  1.00  0.00    -0.273 A  
HETATM    7  C   UNL     1     -10.644  17.351  67.738  1.00  0.00    -0.371 A  
HETATM    8  C   UNL     1     -10.204  18.666  67.913  1.00  0.00    -0.433 A  
BRANCH   6   9
HETATM    9  C   UNL     1     -10.369  15.052  66.696  1.00  0.00    -0.278 C  
HETATM   10  O   UNL     1      -9.802  14.372  65.837  1.00  0.00    -0.305 OA 
BRANCH   9  11
HETATM   11  C   UNL     1     -11.560  14.504  67.447  1.00  0.00    -0.406 C  
BRANCH  11  12
HETATM   12  C   UNL     1     -11.908  13.075  67.117  1.00  0.00    -0.373 C  
HETATM   13  O   UNL     1     -12.391  12.737  66.038  1.00  0.00    -0.547 OA 
BRANCH  12  14
HETATM   14  C   UNL     1     -11.674  12.031  68.151  1.00  0.00    -0.398 A  
HETATM   15  C   UNL     1     -11.038  10.857  67.749  1.00  0.00    -0.371 A  
HETATM   16  C   UNL     1     -10.851   9.810  68.651  1.00  0.00    -0.223 A  
HETATM   17  C   UNL     1     -11.284   9.903  69.983  1.00  0.00    -0.327 A  
HETATM   18  C   UNL     1     -12.069  12.173  69.483  1.00  0.00    -0.263 A  
HETATM   19  C   UNL     1     -11.870  11.119  70.387  1.00  0.00    -0.462 A  
BRANCH  17  20
HETATM   20  C   UNL     1     -11.162   8.723  70.964  1.00  0.00    -0.329 C  
HETATM   21  C   UNL     1     -11.243   7.344  70.267  1.00  0.00    -0.268 C  
HETATM   22  C   UNL     1      -9.816   8.784  71.713  1.00  0.00    -0.391 C  
HETATM   23  C   UNL     1     -12.313   8.776  71.992  1.00  0.00    -0.444 C  
ENDBRANCH  17  20
ENDBRANCH  12  14
ENDBRANCH  11  12
ENDBRANCH   9  11
ENDBRANCH   6   9
ENDBRANCH   2   3
TORSDOF 6
ENDMDL
MODEL       41
REMARK 921   NORMALIZED FREE ENERGY PREDICTED BY IDOCK:   -5.67 KCAL/MOL
REMARK 922        TOTAL FREE ENERGY PREDICTED BY IDOCK:   -8.67 KCAL/MOL
REMARK 923 INTER-LIGAND FREE ENERGY PREDICTED BY IDOCK:   -7.78 KCAL/MOL
REMARK 924 INTRA-LIGAND FREE ENERGY PREDICTED BY IDOCK:   -0.89 KCAL/MOL
REMARK 927      BINDING AFFINITY PREDICTED BY RF-SCORE:    0.00 PKD
ROOT
HETATM    1  C   UNL     1      -6.735  18.840  68.207  1.00  0.00    -0.232 C  
HETATM    2  O   UNL     1      -8.156  18.942  68.230  1.00  0.00    -0.296 OA 
ENDROOT
BRANCH   2   3
HETATM    3  C   UNL     1      -8.811  18.116  67.360  1.00  0.00    -0.256 A  
HETATM    4  C   UNL     1      -9.913  18.672  66.711  1.00  0.00    -0.381 A  
HETATM    5  C   UNL     1     -10.665  17.909  65.811  1.00  0.00    -0.092 A  
HETATM    6  C   UNL     1     -10.309  16.581  65.542  1.00  0.00    -0.307 A  
HETATM    7  C   UNL     1      -9.185  16.039  66.175  1.00  0.00    -0.388 A  
HETATM    8  C   UNL     1      -8.433  16.807  67.070  1.00  0.00    -0.225 A  
BRANCH   6   9
HETATM    9  C   UNL     1     -11.154  15.793  64.592  1.00  0.00    -0.361 C  
HETATM   10  O   UNL     1     -12.025  16.368  63.935  1.00  0.00    -1.023 OA 
BRANCH   9  11
HETATM   11  C   UNL     1     -10.996  14.292  64.513  1.00  0.00    -0.311 C  
BRANCH  11  12
HETATM   12  C   UNL     1     -11.900  13.516  65.437  1.00  0.00    -0.357 C  
HETATM   13  O   UNL     1     -13.050  13.865  65.696  1.00  0.00    -0.625 OA 
BRANCH  12  14
HETATM   14  C   UNL     1     -11.367  12.284  66.078  1.00  0.00    -0.398 A  
HETATM   15  C   UNL     1     -10.439  11.532  65.358  1.00  0.00    -0.333 A  
HETATM   16  C   UNL     1      -9.953  10.330  65.870  1.00  0.00    -0.321 A  
HETATM   17  C   UNL     1     -10.369   9.843  67.119  1.00  0.00    -0.304 A  
HETATM   18  C   UNL     1     -11.760  11.851  67.347  1.00  0.00    -0.326 A  
HETATM   19  C   UNL     1     -11.260  10.645  67.859  1.00  0.00    -0.376 A  
BRANCH  17  20
HETATM   20  C   UNL     1      -9.907   8.476  67.656  1.00  0.00    -0.222 C  
HETATM   21  C   UNL     1      -9.902   8.401  69.201  1.00  0.00    -0.183 C  
HETATM   22  C   UNL     1     -10.834   7.356  67.141  1.00  0.00    -0.340 C  
HETATM   23  C   UNL     1      -8.464   8.190  67.186  1.00  0.00    -0.124 C  
ENDBRANCH  17  20
ENDBRANCH  12  14
ENDBRANCH  11  12
ENDBRANCH   9  11
ENDBRANCH   6   9
ENDBRANCH   2   3
TORSDOF 6
ENDMDL
MODEL       42
REMARK 921   NORMALIZED FREE ENERGY PREDICTED BY IDOCK:   -5.67 KCAL/MOL
REMARK 922        TOTAL FREE ENERGY PREDICTED BY IDOCK:   -8.66 KCAL/MOL
REMARK 923 INTER-LIGAND FREE ENERGY PREDICTED BY IDOCK:   -7.72 KCAL/MOL
REMARK 924 INTRA-LIGAND FREE ENERGY PREDICTED BY IDOCK:   -0.94 KCAL/MOL
REMARK 927      BINDING AFFINITY PREDICTED BY RF-SCORE:    0.00 PKD
ROOT
HETATM    1  C   UNL     1      -9.299   3.011  69.657  1.00  0.00    -0.144 C  
HETATM    2  O   UNL     1      -9.080   3.809  70.817  1.00  0.00    -0.090 OA 
ENDROOT
BRANCH   2   3
HETATM    3  C   UNL     1     -10.035   4.759  71.056  1.00  0.00    -0.209 A  
HETATM    4  C   UNL     1     -10.563   5.383  69.927  1.00  0.00    -0.351 A  
HETATM    5  C   UNL     1     -11.535   6.380  70.058  1.00  0.00    -0.496 A  
HETATM    6  C   UNL     1     -11.998   6.753  71.327  1.00  0.00    -0.414 A  
HETATM    7  C   UNL     1     -11.483   6.102  72.454  1.00  0.00    -0.349 A  
HETATM    8  C   UNL     1     -10.516   5.102  72.318  1.00  0.00    -0.277 A  
BRANCH   6   9
HETATM    9  C   UNL     1     -13.019   7.841  71.424  1.00  0.00    -0.288 C  
HETATM   10  O   UNL     1     -14.201   7.587  71.183  1.00  0.00    -0.348 OA 
BRANCH   9  11
HETATM   11  C   UNL     1     -12.584   9.257  71.726  1.00  0.00    -0.461 C  
BRANCH  11  12
HETATM   12  C   UNL     1     -11.295   9.672  71.064  1.00  0.00    -0.374 C  
HETATM   13  O   UNL     1     -10.189   9.393  71.520  1.00  0.00    -0.308 OA 
BRANCH  12  14
HETATM   14  C   UNL     1     -11.369  10.474  69.812  1.00  0.00    -0.367 A  
HETATM   15  C   UNL     1     -10.938   9.868  68.633  1.00  0.00    -0.222 A  
HETATM   16  C   UNL     1     -10.914  10.585  67.437  1.00  0.00    -0.352 A  
HETATM   17  C   UNL     1     -11.326  11.926  67.378  1.00  0.00    -0.389 A  
HETATM   18  C   UNL     1     -11.833  11.790  69.774  1.00  0.00    -0.420 A  
HETATM   19  C   UNL     1     -11.815  12.503  68.567  1.00  0.00    -0.341 A  
BRANCH  17  20
HETATM   20  C   UNL     1     -11.221  12.754  66.084  1.00  0.00    -0.336 C  
HETATM   21  C   UNL     1     -12.506  13.557  65.772  1.00  0.00    -0.514 C  
HETATM   22  C   UNL     1     -10.058  13.760  66.183  1.00  0.00    -0.314 C  
HETATM   23  C   UNL     1     -10.974  11.816  64.881  1.00  0.00    -0.358 C  
ENDBRANCH  17  20
ENDBRANCH  12  14
ENDBRANCH  11  12
ENDBRANCH   9  11
ENDBRANCH   6   9
ENDBRANCH   2   3
TORSDOF 6
ENDMDL
MODEL       43
REMARK 921   NORMALIZED FREE ENERGY PREDICTED BY IDOCK:   -5.66 KCAL/MOL
REMARK 922        TOTAL FREE ENERGY PREDICTED BY IDOCK:   -8.65 KCAL/MOL
REMARK 923 INTER-LIGAND FREE ENERGY PREDICTED BY IDOCK:   -7.39 KCAL/MOL
REMARK 924 INTRA-LIGAND FREE ENERGY PREDICTED BY IDOCK:   -1.27 KCAL/MOL
REMARK 927      BINDING AFFINITY PREDICTED BY RF-SCORE:    0.00 PKD
ROOT
HETATM    1  C   UNL     1     -11.977  13.718  67.267  1.00  0.00    -0.401 C  
HETATM    2  O   UNL     1     -12.016  12.319  66.997  1.00  0.00    -0.576 OA 
ENDROOT
BRANCH   2   3
HETATM    3  C   UNL     1     -11.650  11.516  68.041  1.00  0.00    -0.300 A  
HETATM    4  C   UNL     1     -12.140  11.889  69.292  1.00  0.00    -0.270 A  
HETATM    5  C   UNL     1     -11.815  11.146  70.431  1.00  0.00    -0.462 A  
HETATM    6  C   UNL     1     -11.002  10.009  70.324  1.00  0.00    -0.377 A  
HETATM    7  C   UNL     1     -10.537   9.625  69.062  1.00  0.00    -0.237 A  
HETATM    8  C   UNL     1     -10.869  10.368  67.925  1.00  0.00    -0.331 A  
BRANCH   6   9
HETATM    9  C   UNL     1     -10.658   9.257  71.571  1.00  0.00    -0.335 C  
HETATM   10  O   UNL     1      -9.482   9.199  71.938  1.00  0.00    -0.332 OA 
BRANCH   9  11
HETATM   11  C   UNL     1     -11.734   8.502  72.315  1.00  0.00    -0.443 C  
BRANCH  11  12
HETATM   12  C   UNL     1     -12.306   7.324  71.568  1.00  0.00    -0.362 C  
HETATM   13  O   UNL     1     -13.515   7.129  71.453  1.00  0.00    -0.380 OA 
BRANCH  12  14
HETATM   14  C   UNL     1     -11.365   6.345  70.962  1.00  0.00    -0.386 A  
HETATM   15  C   UNL     1     -11.283   6.306  69.571  1.00  0.00    -0.500 A  
HETATM   16  C   UNL     1     -10.473   5.365  68.935  1.00  0.00    -0.238 A  
HETATM   17  C   UNL     1      -9.714   4.438  69.667  1.00  0.00    -0.289 A  
HETATM   18  C   UNL     1     -10.581   5.469  71.717  1.00  0.00    -0.296 A  
HETATM   19  C   UNL     1      -9.763   4.530  71.072  1.00  0.00    -0.259 A  
BRANCH  17  20
HETATM   20  C   UNL     1      -8.886   3.338  68.977  1.00  0.00    -0.159 C  
HETATM   21  C   UNL     1      -9.180   3.217  67.464  1.00  0.00    -0.233 C  
HETATM   22  C   UNL     1      -7.379   3.623  69.135  1.00  0.00    -0.050 C  
HETATM   23  C   UNL     1      -9.208   1.966  69.610  1.00  0.00    -0.172 C  
ENDBRANCH  17  20
ENDBRANCH  12  14
ENDBRANCH  11  12
ENDBRANCH   9  11
ENDBRANCH   6   9
ENDBRANCH   2   3
TORSDOF 6
ENDMDL
MODEL       44
REMARK 921   NORMALIZED FREE ENERGY PREDICTED BY IDOCK:   -5.65 KCAL/MOL
REMARK 922        TOTAL FREE ENERGY PREDICTED BY IDOCK:   -8.64 KCAL/MOL
REMARK 923 INTER-LIGAND FREE ENERGY PREDICTED BY IDOCK:   -7.40 KCAL/MOL
REMARK 924 INTRA-LIGAND FREE ENERGY PREDICTED BY IDOCK:   -1.24 KCAL/MOL
REMARK 927      BINDING AFFINITY PREDICTED BY RF-SCORE:    0.00 PKD
ROOT
HETATM    1  C   UNL     1      -9.522   9.977  65.829  1.00  0.00    -0.214 C  
HETATM    2  O   UNL     1     -10.866  10.416  65.650  1.00  0.00    -0.002 OA 
ENDROOT
BRANCH   2   3
HETATM    3  C   UNL     1     -11.021  11.766  65.501  1.00  0.00    -0.290 A  
HETATM    4  C   UNL     1      -9.953  12.435  64.903  1.00  0.00    -0.207 A  
HETATM    5  C   UNL     1     -10.000  13.820  64.716  1.00  0.00    -0.129 A  
HETATM    6  C   UNL     1     -11.127  14.549  65.116  1.00  0.00    -0.374 A  
HETATM    7  C   UNL     1     -12.206  13.867  65.690  1.00  0.00    -0.477 A  
HETATM    8  C   UNL     1     -12.158  12.482  65.870  1.00  0.00    -0.420 A  
BRANCH   6   9
HETATM    9  C   UNL     1     -11.127  16.032  64.921  1.00  0.00    -0.370 C  
HETATM   10  O   UNL     1     -11.700  16.515  63.942  1.00  0.00    -1.148 OA 
BRANCH   9  11
HETATM   11  C   UNL     1     -10.349  16.915  65.869  1.00  0.00    -0.327 C  
BRANCH  11  12
HETATM   12  C   UNL     1      -9.661  16.179  66.991  1.00  0.00    -0.230 C  
HETATM   13  O   UNL     1      -8.445  16.008  67.030  1.00  0.00    -0.180 OA 
BRANCH  12  14
HETATM   14  C   UNL     1     -10.496  15.621  68.088  1.00  0.00    -0.259 A  
HETATM   15  C   UNL     1     -11.496  16.437  68.617  1.00  0.00    -0.224 A  
HETATM   16  C   UNL     1     -12.268  16.003  69.694  1.00  0.00    -0.019 A  
HETATM   17  C   UNL     1     -12.074  14.738  70.272  1.00  0.00    -0.380 A  
HETATM   18  C   UNL     1     -10.315  14.338  68.610  1.00  0.00    -0.246 A  
HETATM   19  C   UNL     1     -11.101  13.904  69.687  1.00  0.00    -0.126 A  
BRANCH  17  20
HETATM   20  C   UNL     1     -12.860  14.282  71.516  1.00  0.00    -0.419 C  
HETATM   21  C   UNL     1     -12.200  14.719  72.845  1.00  0.00    -0.336 C  
HETATM   22  C   UNL     1     -14.286  14.866  71.493  1.00  0.00    -0.631 C  
HETATM   23  C   UNL     1     -12.947  12.740  71.543  1.00  0.00    -0.388 C  
ENDBRANCH  17  20
ENDBRANCH  12  14
ENDBRANCH  11  12
ENDBRANCH   9  11
ENDBRANCH   6   9
ENDBRANCH   2   3
TORSDOF 6
ENDMDL
MODEL       45
REMARK 921   NORMALIZED FREE ENERGY PREDICTED BY IDOCK:   -5.65 KCAL/MOL
REMARK 922        TOTAL FREE ENERGY PREDICTED BY IDOCK:   -8.64 KCAL/MOL
REMARK 923 INTER-LIGAND FREE ENERGY PREDICTED BY IDOCK:   -7.14 KCAL/MOL
REMARK 924 INTRA-LIGAND FREE ENERGY PREDICTED BY IDOCK:   -1.49 KCAL/MOL
REMARK 927      BINDING AFFINITY PREDICTED BY RF-SCORE:    0.00 PKD
ROOT
HETATM    1  C   UNL     1     -12.867  11.205  71.206  1.00  0.00    -0.412 C  
HETATM    2  O   UNL     1     -13.257  12.489  71.686  1.00  0.00    -0.399 OA 
ENDROOT
BRANCH   2   3
HETATM    3  C   UNL     1     -12.547  13.539  71.173  1.00  0.00    -0.355 A  
HETATM    4  C   UNL     1     -12.062  13.367  69.877  1.00  0.00    -0.389 A  
HETATM    5  C   UNL     1     -11.310  14.373  69.262  1.00  0.00    -0.319 A  
HETATM    6  C   UNL     1     -11.047  15.572  69.939  1.00  0.00    -0.318 A  
HETATM    7  C   UNL     1     -11.561  15.748  71.229  1.00  0.00    -0.499 A  
HETATM    8  C   UNL     1     -12.317  14.742  71.837  1.00  0.00    -0.417 A  
BRANCH   6   9
HETATM    9  C   UNL     1     -10.218  16.612  69.255  1.00  0.00    -0.291 C  
HETATM   10  O   UNL     1     -10.767  17.606  68.773  1.00  0.00    -0.257 OA 
BRANCH   9  11
HETATM   11  C   UNL     1      -8.733  16.394  69.080  1.00  0.00    -0.233 C  
BRANCH  11  12
HETATM   12  C   UNL     1      -8.286  16.232  67.649  1.00  0.00    -0.161 C  
HETATM   13  O   UNL     1      -7.425  16.942  67.134  1.00  0.00    -0.150 OA 
BRANCH  12  14
HETATM   14  C   UNL     1      -8.932  15.179  66.820  1.00  0.00    -0.293 A  
HETATM   15  C   UNL     1      -8.561  13.855  67.057  1.00  0.00    -0.190 A  
HETATM   16  C   UNL     1      -9.074  12.825  66.270  1.00  0.00    -0.033 A  
HETATM   17  C   UNL     1      -9.979  13.081  65.227  1.00  0.00    -0.186 A  
HETATM   18  C   UNL     1      -9.870  15.458  65.824  1.00  0.00    -0.399 A  
HETATM   19  C   UNL     1     -10.389  14.416  65.041  1.00  0.00    -0.449 A  
BRANCH  17  20
HETATM   20  C   UNL     1     -10.485  11.964  64.295  1.00  0.00    -0.370 C  
HETATM   21  C   UNL     1     -11.974  12.123  63.910  1.00  0.00    -0.581 C  
HETATM   22  C   UNL     1      -9.668  11.945  62.988  1.00  0.00    -0.102 C  
HETATM   23  C   UNL     1     -10.345  10.595  64.996  1.00  0.00    -0.341 C  
ENDBRANCH  17  20
ENDBRANCH  12  14
ENDBRANCH  11  12
ENDBRANCH   9  11
ENDBRANCH   6   9
ENDBRANCH   2   3
TORSDOF 6
ENDMDL
MODEL       46
REMARK 921   NORMALIZED FREE ENERGY PREDICTED BY IDOCK:   -5.64 KCAL/MOL
REMARK 922        TOTAL FREE ENERGY PREDICTED BY IDOCK:   -8.62 KCAL/MOL
REMARK 923 INTER-LIGAND FREE ENERGY PREDICTED BY IDOCK:   -7.81 KCAL/MOL
REMARK 924 INTRA-LIGAND FREE ENERGY PREDICTED BY IDOCK:   -0.81 KCAL/MOL
REMARK 927      BINDING AFFINITY PREDICTED BY RF-SCORE:    0.00 PKD
ROOT
HETATM    1  C   UNL     1     -10.709  19.330  66.766  1.00  0.00    -0.431 C  
HETATM    2  O   UNL     1     -10.215  18.476  65.738  1.00  0.00    -0.568 OA 
ENDROOT
BRANCH   2   3
HETATM    3  C   UNL     1     -10.557  17.158  65.865  1.00  0.00    -0.215 A  
HETATM    4  C   UNL     1     -10.505  16.641  67.158  1.00  0.00    -0.300 A  
HETATM    5  C   UNL     1     -10.821  15.300  67.399  1.00  0.00    -0.304 A  
HETATM    6  C   UNL     1     -11.207  14.465  66.342  1.00  0.00    -0.345 A  
HETATM    7  C   UNL     1     -11.284  14.999  65.050  1.00  0.00    -0.413 A  
HETATM    8  C   UNL     1     -10.973  16.341  64.816  1.00  0.00    -0.288 A  
BRANCH   6   9
HETATM    9  C   UNL     1     -11.512  13.031  66.638  1.00  0.00    -0.336 C  
HETATM   10  O   UNL     1     -12.393  12.453  65.997  1.00  0.00    -0.627 OA 
BRANCH   9  11
HETATM   11  C   UNL     1     -10.806  12.332  67.777  1.00  0.00    -0.256 C  
BRANCH  11  12
HETATM   12  C   UNL     1     -11.641  12.153  69.019  1.00  0.00    -0.319 C  
HETATM   13  O   UNL     1     -12.489  12.969  69.377  1.00  0.00    -0.058 OA 
BRANCH  12  14
HETATM   14  C   UNL     1     -11.414  10.945  69.858  1.00  0.00    -0.402 A  
HETATM   15  C   UNL     1     -10.328  10.132  69.535  1.00  0.00    -0.263 A  
HETATM   16  C   UNL     1     -10.098   8.948  70.235  1.00  0.00    -0.218 A  
HETATM   17  C   UNL     1     -10.939   8.541  71.283  1.00  0.00    -0.316 A  
HETATM   18  C   UNL     1     -12.237  10.593  70.929  1.00  0.00    -0.497 A  
HETATM   19  C   UNL     1     -11.996   9.405  71.635  1.00  0.00    -0.465 A  
BRANCH  17  20
HETATM   20  C   UNL     1     -10.749   7.195  72.005  1.00  0.00    -0.243 C  
HETATM   21  C   UNL     1      -9.707   6.280  71.318  1.00  0.00    -0.193 C  
HETATM   22  C   UNL     1     -10.278   7.425  73.455  1.00  0.00    -0.402 C  
HETATM   23  C   UNL     1     -12.084   6.419  72.027  1.00  0.00    -0.353 C  
ENDBRANCH  17  20
ENDBRANCH  12  14
ENDBRANCH  11  12
ENDBRANCH   9  11
ENDBRANCH   6   9
ENDBRANCH   2   3
TORSDOF 6
ENDMDL
MODEL       47
REMARK 921   NORMALIZED FREE ENERGY PREDICTED BY IDOCK:   -5.62 KCAL/MOL
REMARK 922        TOTAL FREE ENERGY PREDICTED BY IDOCK:   -8.60 KCAL/MOL
REMARK 923 INTER-LIGAND FREE ENERGY PREDICTED BY IDOCK:   -7.52 KCAL/MOL
REMARK 924 INTRA-LIGAND FREE ENERGY PREDICTED BY IDOCK:   -1.08 KCAL/MOL
REMARK 927      BINDING AFFINITY PREDICTED BY RF-SCORE:    0.00 PKD
ROOT
HETATM    1  C   UNL     1     -10.908   5.911  73.009  1.00  0.00    -0.267 C  
HETATM    2  O   UNL     1     -11.536   5.718  71.744  1.00  0.00    -0.236 OA 
ENDROOT
BRANCH   2   3
HETATM    3  C   UNL     1     -11.135   6.579  70.760  1.00  0.00    -0.300 A  
HETATM    4  C   UNL     1     -11.272   6.111  69.454  1.00  0.00    -0.466 A  
HETATM    5  C   UNL     1     -10.878   6.905  68.372  1.00  0.00    -0.238 A  
HETATM    6  C   UNL     1     -10.353   8.186  68.590  1.00  0.00    -0.224 A  
HETATM    7  C   UNL     1     -10.244   8.659  69.902  1.00  0.00    -0.206 A  
HETATM    8  C   UNL     1     -10.645   7.865  70.980  1.00  0.00    -0.232 A  
BRANCH   6   9
HETATM    9  C   UNL     1      -9.920   8.992  67.406  1.00  0.00    -0.209 C  
HETATM   10  O   UNL     1      -9.668   8.421  66.343  1.00  0.00    -0.233 OA 
BRANCH   9  11
HETATM   11  C   UNL     1      -9.708  10.481  67.548  1.00  0.00    -0.190 C  
BRANCH  11  12
HETATM   12  C   UNL     1     -10.951  11.314  67.358  1.00  0.00    -0.282 C  
HETATM   13  O   UNL     1     -11.629  11.276  66.333  1.00  0.00    -0.300 OA 
BRANCH  12  14
HETATM   14  C   UNL     1     -11.361  12.235  68.452  1.00  0.00    -0.340 A  
HETATM   15  C   UNL     1     -11.772  11.663  69.655  1.00  0.00    -0.418 A  
HETATM   16  C   UNL     1     -12.236  12.465  70.698  1.00  0.00    -0.368 A  
HETATM   17  C   UNL     1     -12.297  13.862  70.576  1.00  0.00    -0.439 A  
HETATM   18  C   UNL     1     -11.361  13.625  68.320  1.00  0.00    -0.322 A  
HETATM   19  C   UNL     1     -11.821  14.427  69.376  1.00  0.00    -0.369 A  
BRANCH  17  20
HETATM   20  C   UNL     1     -12.889  14.751  71.685  1.00  0.00    -0.405 C  
HETATM   21  C   UNL     1     -13.150  13.985  73.003  1.00  0.00    -0.365 C  
HETATM   22  C   UNL     1     -11.931  15.915  72.008  1.00  0.00    -0.602 C  
HETATM   23  C   UNL     1     -14.245  15.329  71.225  1.00  0.00    -0.506 C  
ENDBRANCH  17  20
ENDBRANCH  12  14
ENDBRANCH  11  12
ENDBRANCH   9  11
ENDBRANCH   6   9
ENDBRANCH   2   3
TORSDOF 6
ENDMDL
MODEL       48
REMARK 921   NORMALIZED FREE ENERGY PREDICTED BY IDOCK:   -5.61 KCAL/MOL
REMARK 922        TOTAL FREE ENERGY PREDICTED BY IDOCK:   -8.58 KCAL/MOL
REMARK 923 INTER-LIGAND FREE ENERGY PREDICTED BY IDOCK:   -6.87 KCAL/MOL
REMARK 924 INTRA-LIGAND FREE ENERGY PREDICTED BY IDOCK:   -1.72 KCAL/MOL
REMARK 927      BINDING AFFINITY PREDICTED BY RF-SCORE:    0.00 PKD
ROOT
HETATM    1  C   UNL     1      -6.225  12.669  67.595  1.00  0.00    -0.148 C  
HETATM    2  O   UNL     1      -5.537  13.904  67.417  1.00  0.00    -0.351 OA 
ENDROOT
BRANCH   2   3
HETATM    3  C   UNL     1      -6.240  15.018  67.784  1.00  0.00    -0.149 A  
HETATM    4  C   UNL     1      -5.892  16.198  67.127  1.00  0.00    -0.049 A  
HETATM    5  C   UNL     1      -6.539  17.399  67.438  1.00  0.00    -0.172 A  
HETATM    6  C   UNL     1      -7.553  17.426  68.404  1.00  0.00    -0.255 A  
HETATM    7  C   UNL     1      -7.915  16.233  69.039  1.00  0.00    -0.238 A  
HETATM    8  C   UNL     1      -7.271  15.034  68.722  1.00  0.00    -0.125 A  
BRANCH   6   9
HETATM    9  C   UNL     1      -8.201  18.736  68.724  1.00  0.00    -0.294 C  
HETATM   10  O   UNL     1      -7.497  19.704  69.022  1.00  0.00    -0.358 OA 
BRANCH   9  11
HETATM   11  C   UNL     1      -9.708  18.838  68.768  1.00  0.00    -0.432 C  
BRANCH  11  12
HETATM   12  C   UNL     1     -10.395  18.563  67.456  1.00  0.00    -0.409 C  
HETATM   13  O   UNL     1     -10.769  19.455  66.697  1.00  0.00    -0.443 OA 
BRANCH  12  14
HETATM   14  C   UNL     1     -10.651  17.148  67.073  1.00  0.00    -0.227 A  
HETATM   15  C   UNL     1     -11.278  16.330  68.012  1.00  0.00    -0.260 A  
HETATM   16  C   UNL     1     -11.484  14.976  67.745  1.00  0.00    -0.347 A  
HETATM   17  C   UNL     1     -11.077  14.398  66.532  1.00  0.00    -0.331 A  
HETATM   18  C   UNL     1     -10.282  16.612  65.837  1.00  0.00    -0.358 A  
HETATM   19  C   UNL     1     -10.500  15.252  65.572  1.00  0.00    -0.396 A  
BRANCH  17  20
HETATM   20  C   UNL     1     -11.219  12.889  66.261  1.00  0.00    -0.337 C  
HETATM   21  C   UNL     1     -11.718  12.095  67.492  1.00  0.00    -0.385 C  
HETATM   22  C   UNL     1     -12.219  12.641  65.115  1.00  0.00    -0.539 C  
HETATM   23  C   UNL     1      -9.848  12.296  65.869  1.00  0.00    -0.266 C  
ENDBRANCH  17  20
ENDBRANCH  12  14
ENDBRANCH  11  12
ENDBRANCH   9  11
ENDBRANCH   6   9
ENDBRANCH   2   3
TORSDOF 6
ENDMDL
MODEL       49
REMARK 921   NORMALIZED FREE ENERGY PREDICTED BY IDOCK:   -5.60 KCAL/MOL
REMARK 922        TOTAL FREE ENERGY PREDICTED BY IDOCK:   -8.56 KCAL/MOL
REMARK 923 INTER-LIGAND FREE ENERGY PREDICTED BY IDOCK:   -7.19 KCAL/MOL
REMARK 924 INTRA-LIGAND FREE ENERGY PREDICTED BY IDOCK:   -1.37 KCAL/MOL
REMARK 927      BINDING AFFINITY PREDICTED BY RF-SCORE:    0.00 PKD
ROOT
HETATM    1  C   UNL     1     -14.368   8.746  72.030  1.00  0.00    -0.377 C  
HETATM    2  O   UNL     1     -13.032   9.053  72.421  1.00  0.00    -0.408 OA 
ENDROOT
BRANCH   2   3
HETATM    3  C   UNL     1     -12.057   8.443  71.681  1.00  0.00    -0.313 A  
HETATM    4  C   UNL     1     -10.837   9.115  71.617  1.00  0.00    -0.442 A  
HETATM    5  C   UNL     1      -9.775   8.588  70.874  1.00  0.00    -0.231 A  
HETATM    6  C   UNL     1      -9.923   7.370  70.198  1.00  0.00    -0.184 A  
HETATM    7  C   UNL     1     -11.141   6.688  70.290  1.00  0.00    -0.379 A  
HETATM    8  C   UNL     1     -12.198   7.216  71.038  1.00  0.00    -0.384 A  
BRANCH   6   9
HETATM    9  C   UNL     1      -8.772   6.854  69.395  1.00  0.00    -0.133 C  
HETATM   10  O   UNL     1      -8.068   5.951  69.855  1.00  0.00    -0.111 OA 
BRANCH   9  11
HETATM   11  C   UNL     1      -8.425   7.501  68.074  1.00  0.00    -0.123 C  
BRANCH  11  12
HETATM   12  C   UNL     1      -9.580   7.622  67.112  1.00  0.00    -0.162 C  
HETATM   13  O   UNL     1     -10.179   6.648  66.662  1.00  0.00    -0.189 OA 
BRANCH  12  14
HETATM   14  C   UNL     1      -9.997   8.981  66.674  1.00  0.00    -0.349 A  
HETATM   15  C   UNL     1     -10.671   9.777  67.599  1.00  0.00    -0.334 A  
HETATM   16  C   UNL     1     -11.153  11.034  67.233  1.00  0.00    -0.359 A  
HETATM   17  C   UNL     1     -10.971  11.540  65.936  1.00  0.00    -0.301 A  
HETATM   18  C   UNL     1      -9.756   9.479  65.392  1.00  0.00    -0.314 A  
HETATM   19  C   UNL     1     -10.235  10.747  65.032  1.00  0.00    -0.373 A  
BRANCH  17  20
HETATM   20  C   UNL     1     -11.573  12.886  65.494  1.00  0.00    -0.395 C  
HETATM   21  C   UNL     1     -10.565  13.782  64.736  1.00  0.00    -0.444 C  
HETATM   22  C   UNL     1     -12.779  12.655  64.563  1.00  0.00    -0.439 C  
HETATM   23  C   UNL     1     -12.039  13.682  66.733  1.00  0.00    -0.445 C  
ENDBRANCH  17  20
ENDBRANCH  12  14
ENDBRANCH  11  12
ENDBRANCH   9  11
ENDBRANCH   6   9
ENDBRANCH   2   3
TORSDOF 6
ENDMDL
MODEL       50
REMARK 921   NORMALIZED FREE ENERGY PREDICTED BY IDOCK:   -5.58 KCAL/MOL
REMARK 922        TOTAL FREE ENERGY PREDICTED BY IDOCK:   -8.54 KCAL/MOL
REMARK 923 INTER-LIGAND FREE ENERGY PREDICTED BY IDOCK:   -7.15 KCAL/MOL
REMARK 924 INTRA-LIGAND FREE ENERGY PREDICTED BY IDOCK:   -1.38 KCAL/MOL
REMARK 927      BINDING AFFINITY PREDICTED BY RF-SCORE:    0.00 PKD
ROOT
HETATM    1  C   UNL     1     -12.891  12.032  63.352  1.00  0.00    -0.291 C  
HETATM    2  O   UNL     1     -13.036  12.507  64.687  1.00  0.00    -0.845 OA 
ENDROOT
BRANCH   2   3
HETATM    3  C   UNL     1     -11.919  12.394  65.468  1.00  0.00    -0.391 A  
HETATM    4  C   UNL     1     -10.841  11.727  64.888  1.00  0.00    -0.353 A  
HETATM    5  C   UNL     1      -9.654  11.541  65.605  1.00  0.00    -0.256 A  
HETATM    6  C   UNL     1      -9.533  12.035  66.910  1.00  0.00    -0.206 A  
HETATM    7  C   UNL     1     -10.610  12.728  67.475  1.00  0.00    -0.240 A  
HETATM    8  C   UNL     1     -11.792  12.916  66.753  1.00  0.00    -0.452 A  
BRANCH   6   9
HETATM    9  C   UNL     1      -8.256  11.793  67.650  1.00  0.00    -0.145 C  
HETATM   10  O   UNL     1      -7.730  10.679  67.604  1.00  0.00    -0.096 OA 
BRANCH   9  11
HETATM   11  C   UNL     1      -7.672  12.883  68.520  1.00  0.00    -0.109 C  
BRANCH  11  12
HETATM   12  C   UNL     1      -6.969  13.981  67.764  1.00  0.00    -0.177 C  
HETATM   13  O   UNL     1      -5.884  13.820  67.208  1.00  0.00    -0.326 OA 
BRANCH  12  14
HETATM   14  C   UNL     1      -7.607  15.323  67.706  1.00  0.00    -0.171 A  
HETATM   15  C   UNL     1      -8.433  15.597  66.617  1.00  0.00    -0.323 A  
HETATM   16  C   UNL     1      -9.007  16.859  66.464  1.00  0.00    -0.303 A  
HETATM   17  C   UNL     1      -8.782  17.885  67.396  1.00  0.00    -0.237 A  
HETATM   18  C   UNL     1      -7.407  16.307  68.677  1.00  0.00    -0.180 A  
HETATM   19  C   UNL     1      -7.994  17.571  68.522  1.00  0.00    -0.271 A  
BRANCH  17  20
HETATM   20  C   UNL     1      -9.338  19.306  67.194  1.00  0.00    -0.373 C  
HETATM   21  C   UNL     1      -8.249  20.333  66.802  1.00  0.00    -0.317 C  
HETATM   22  C   UNL     1     -10.402  19.312  66.078  1.00  0.00    -0.556 C  
HETATM   23  C   UNL     1      -9.980  19.809  68.505  1.00  0.00    -0.538 C  
ENDBRANCH  17  20
ENDBRANCH  12  14
ENDBRANCH  11  12
ENDBRANCH   9  11
ENDBRANCH   6   9
ENDBRANCH   2   3
TORSDOF 6
ENDMDL
MODEL       51
REMARK 921   NORMALIZED FREE ENERGY PREDICTED BY IDOCK:   -5.58 KCAL/MOL
REMARK 922        TOTAL FREE ENERGY PREDICTED BY IDOCK:   -8.54 KCAL/MOL
REMARK 923 INTER-LIGAND FREE ENERGY PREDICTED BY IDOCK:   -6.99 KCAL/MOL
REMARK 924 INTRA-LIGAND FREE ENERGY PREDICTED BY IDOCK:   -1.55 KCAL/MOL
REMARK 927      BINDING AFFINITY PREDICTED BY RF-SCORE:    0.00 PKD
ROOT
HETATM    1  C   UNL     1     -11.984  16.014  72.060  1.00  0.00    -0.537 C  
HETATM    2  O   UNL     1     -12.657  15.387  70.972  1.00  0.00    -0.363 OA 
ENDROOT
BRANCH   2   3
HETATM    3  C   UNL     1     -12.655  14.019  70.999  1.00  0.00    -0.366 A  
HETATM    4  C   UNL     1     -13.360  13.434  72.050  1.00  0.00    -0.569 A  
HETATM    5  C   UNL     1     -13.410  12.042  72.181  1.00  0.00    -0.396 A  
HETATM    6  C   UNL     1     -12.763  11.222  71.249  1.00  0.00    -0.510 A  
HETATM    7  C   UNL     1     -12.081  11.816  70.181  1.00  0.00    -0.398 A  
HETATM    8  C   UNL     1     -12.038  13.207  70.050  1.00  0.00    -0.375 A  
BRANCH   6   9
HETATM    9  C   UNL     1     -12.820   9.739  71.440  1.00  0.00    -0.392 C  
HETATM   10  O   UNL     1     -13.893   9.150  71.293  1.00  0.00    -0.326 OA 
BRANCH   9  11
HETATM   11  C   UNL     1     -11.589   8.992  71.898  1.00  0.00    -0.441 C  
BRANCH  11  12
HETATM   12  C   UNL     1     -10.914   8.174  70.826  1.00  0.00    -0.244 C  
HETATM   13  O   UNL     1     -10.859   6.947  70.858  1.00  0.00    -0.233 OA 
BRANCH  12  14
HETATM   14  C   UNL     1     -10.271   8.889  69.691  1.00  0.00    -0.209 A  
HETATM   15  C   UNL     1      -9.240   9.778  69.991  1.00  0.00    -0.266 A  
HETATM   16  C   UNL     1      -8.641  10.533  68.983  1.00  0.00    -0.160 A  
HETATM   17  C   UNL     1      -9.045  10.419  67.643  1.00  0.00    -0.143 A  
HETATM   18  C   UNL     1     -10.659   8.716  68.360  1.00  0.00    -0.169 A  
HETATM   19  C   UNL     1     -10.047   9.472  67.350  1.00  0.00    -0.262 A  
BRANCH  17  20
HETATM   20  C   UNL     1      -8.453  11.309  66.534  1.00  0.00    -0.171 C  
HETATM   21  C   UNL     1      -8.539  12.819  66.858  1.00  0.00    -0.140 C  
HETATM   22  C   UNL     1      -6.967  10.968  66.309  1.00  0.00    -0.095 C  
HETATM   23  C   UNL     1      -9.226  11.086  65.216  1.00  0.00    -0.229 C  
ENDBRANCH  17  20
ENDBRANCH  12  14
ENDBRANCH  11  12
ENDBRANCH   9  11
ENDBRANCH   6   9
ENDBRANCH   2   3
TORSDOF 6
ENDMDL
MODEL       52
REMARK 921   NORMALIZED FREE ENERGY PREDICTED BY IDOCK:   -5.57 KCAL/MOL
REMARK 922        TOTAL FREE ENERGY PREDICTED BY IDOCK:   -8.53 KCAL/MOL
REMARK 923 INTER-LIGAND FREE ENERGY PREDICTED BY IDOCK:   -7.74 KCAL/MOL
REMARK 924 INTRA-LIGAND FREE ENERGY PREDICTED BY IDOCK:   -0.79 KCAL/MOL
REMARK 927      BINDING AFFINITY PREDICTED BY RF-SCORE:    0.00 PKD
ROOT
HETATM    1  C   UNL     1     -10.901   5.721  70.786  1.00  0.00    -0.260 C  
HETATM    2  O   UNL     1     -10.682   5.704  69.378  1.00  0.00    -0.297 OA 
ENDROOT
BRANCH   2   3
HETATM    3  C   UNL     1     -10.590   6.934  68.789  1.00  0.00    -0.220 A  
HETATM    4  C   UNL     1     -10.758   8.026  69.640  1.00  0.00    -0.207 A  
HETATM    5  C   UNL     1     -10.698   9.331  69.140  1.00  0.00    -0.202 A  
HETATM    6  C   UNL     1     -10.454   9.554  67.779  1.00  0.00    -0.309 A  
HETATM    7  C   UNL     1     -10.259   8.454  66.936  1.00  0.00    -0.383 A  
HETATM    8  C   UNL     1     -10.314   7.152  67.441  1.00  0.00    -0.324 A  
BRANCH   6   9
HETATM    9  C   UNL     1     -10.423  10.964  67.280  1.00  0.00    -0.232 C  
HETATM   10  O   UNL     1      -9.415  11.381  66.703  1.00  0.00    -0.181 OA 
BRANCH   9  11
HETATM   11  C   UNL     1     -11.583  11.889  67.566  1.00  0.00    -0.374 C  
BRANCH  11  12
HETATM   12  C   UNL     1     -11.878  12.884  66.472  1.00  0.00    -0.407 C  
HETATM   13  O   UNL     1     -12.446  12.577  65.425  1.00  0.00    -0.630 OA 
BRANCH  12  14
HETATM   14  C   UNL     1     -11.444  14.294  66.661  1.00  0.00    -0.374 A  
HETATM   15  C   UNL     1     -10.966  14.976  65.543  1.00  0.00    -0.364 A  
HETATM   16  C   UNL     1     -10.478  16.277  65.664  1.00  0.00    -0.386 A  
HETATM   17  C   UNL     1     -10.457  16.941  66.901  1.00  0.00    -0.271 A  
HETATM   18  C   UNL     1     -11.485  14.947  67.895  1.00  0.00    -0.357 A  
HETATM   19  C   UNL     1     -11.000  16.258  68.008  1.00  0.00    -0.328 A  
BRANCH  17  20
HETATM   20  C   UNL     1      -9.841  18.342  67.064  1.00  0.00    -0.335 C  
HETATM   21  C   UNL     1     -10.403  19.373  66.058  1.00  0.00    -0.584 C  
HETATM   22  C   UNL     1     -10.109  18.885  68.482  1.00  0.00    -0.460 C  
HETATM   23  C   UNL     1      -8.315  18.273  66.832  1.00  0.00    -0.256 C  
ENDBRANCH  17  20
ENDBRANCH  12  14
ENDBRANCH  11  12
ENDBRANCH   9  11
ENDBRANCH   6   9
ENDBRANCH   2   3
TORSDOF 6
ENDMDL
MODEL       53
REMARK 921   NORMALIZED FREE ENERGY PREDICTED BY IDOCK:   -5.57 KCAL/MOL
REMARK 922        TOTAL FREE ENERGY PREDICTED BY IDOCK:   -8.52 KCAL/MOL
REMARK 923 INTER-LIGAND FREE ENERGY PREDICTED BY IDOCK:   -7.54 KCAL/MOL
REMARK 924 INTRA-LIGAND FREE ENERGY PREDICTED BY IDOCK:   -0.98 KCAL/MOL
REMARK 927      BINDING AFFINITY PREDICTED BY RF-SCORE:    0.00 PKD
ROOT
HETATM    1  C   UNL     1     -12.145   9.257  71.777  1.00  0.00    -0.387 C  
HETATM    2  O   UNL     1     -10.880   9.628  71.237  1.00  0.00    -0.350 OA 
ENDROOT
BRANCH   2   3
HETATM    3  C   UNL     1     -10.903  10.030  69.930  1.00  0.00    -0.285 A  
HETATM    4  C   UNL     1     -11.489  11.272  69.689  1.00  0.00    -0.380 A  
HETATM    5  C   UNL     1     -11.579  11.773  68.386  1.00  0.00    -0.380 A  
HETATM    6  C   UNL     1     -11.069  11.035  67.309  1.00  0.00    -0.359 A  
HETATM    7  C   UNL     1     -10.457   9.802  67.562  1.00  0.00    -0.309 A  
HETATM    8  C   UNL     1     -10.365   9.308  68.867  1.00  0.00    -0.231 A  
BRANCH   6   9
HETATM    9  C   UNL     1     -11.208  11.595  65.929  1.00  0.00    -0.238 C  
HETATM   10  O   UNL     1     -10.314  11.397  65.102  1.00  0.00    -0.264 OA 
BRANCH   9  11
HETATM   11  C   UNL     1     -12.392  12.470  65.588  1.00  0.00    -0.296 C  
BRANCH  11  12
HETATM   12  C   UNL     1     -12.069  13.647  64.704  1.00  0.00    -0.412 C  
HETATM   13  O   UNL     1     -12.255  13.640  63.488  1.00  0.00    -0.618 OA 
BRANCH  12  14
HETATM   14  C   UNL     1     -11.481  14.862  65.329  1.00  0.00    -0.336 A  
HETATM   15  C   UNL     1     -11.335  15.993  64.526  1.00  0.00    -0.303 A  
HETATM   16  C   UNL     1     -10.727  17.143  65.028  1.00  0.00     0.091 A  
HETATM   17  C   UNL     1     -10.252  17.205  66.348  1.00  0.00    -0.331 A  
HETATM   18  C   UNL     1     -11.064  14.911  66.661  1.00  0.00    -0.329 A  
HETATM   19  C   UNL     1     -10.461  16.074  67.162  1.00  0.00    -0.308 A  
BRANCH  17  20
HETATM   20  C   UNL     1      -9.500  18.436  66.887  1.00  0.00    -0.291 C  
HETATM   21  C   UNL     1      -7.970  18.353  66.678  1.00  0.00    -0.278 C  
HETATM   22  C   UNL     1      -9.995  19.716  66.184  1.00  0.00    -0.554 C  
HETATM   23  C   UNL     1      -9.740  18.572  68.407  1.00  0.00    -0.395 C  
ENDBRANCH  17  20
ENDBRANCH  12  14
ENDBRANCH  11  12
ENDBRANCH   9  11
ENDBRANCH   6   9
ENDBRANCH   2   3
TORSDOF 6
ENDMDL
MODEL       54
REMARK 921   NORMALIZED FREE ENERGY PREDICTED BY IDOCK:   -5.56 KCAL/MOL
REMARK 922        TOTAL FREE ENERGY PREDICTED BY IDOCK:   -8.52 KCAL/MOL
REMARK 923 INTER-LIGAND FREE ENERGY PREDICTED BY IDOCK:   -7.28 KCAL/MOL
REMARK 924 INTRA-LIGAND FREE ENERGY PREDICTED BY IDOCK:   -1.24 KCAL/MOL
REMARK 927      BINDING AFFINITY PREDICTED BY RF-SCORE:    0.00 PKD
ROOT
HETATM    1  C   UNL     1     -12.753  15.585  70.914  1.00  0.00    -0.468 C  
HETATM    2  O   UNL     1     -12.183  14.611  70.045  1.00  0.00    -0.307 OA 
ENDROOT
BRANCH   2   3
HETATM    3  C   UNL     1     -12.354  13.312  70.438  1.00  0.00    -0.295 A  
HETATM    4  C   UNL     1     -13.130  13.123  71.580  1.00  0.00    -0.444 A  
HETATM    5  C   UNL     1     -13.356  11.835  72.079  1.00  0.00    -0.417 A  
HETATM    6  C   UNL     1     -12.814  10.721  71.426  1.00  0.00    -0.557 A  
HETATM    7  C   UNL     1     -12.059  10.917  70.264  1.00  0.00    -0.440 A  
HETATM    8  C   UNL     1     -11.841  12.205  69.766  1.00  0.00    -0.397 A  
BRANCH   6   9
HETATM    9  C   UNL     1     -13.058   9.364  72.006  1.00  0.00    -0.433 C  
HETATM   10  O   UNL     1     -14.214   8.946  72.106  1.00  0.00    -0.429 OA 
BRANCH   9  11
HETATM   11  C   UNL     1     -11.900   8.558  72.547  1.00  0.00    -0.398 C  
BRANCH  11  12
HETATM   12  C   UNL     1     -11.670   7.241  71.850  1.00  0.00    -0.287 C  
HETATM   13  O   UNL     1     -12.057   6.167  72.307  1.00  0.00    -0.311 OA 
BRANCH  12  14
HETATM   14  C   UNL     1     -10.926   7.242  70.562  1.00  0.00    -0.282 A  
HETATM   15  C   UNL     1     -11.371   6.380  69.560  1.00  0.00    -0.460 A  
HETATM   16  C   UNL     1     -10.677   6.279  68.354  1.00  0.00    -0.356 A  
HETATM   17  C   UNL     1      -9.522   7.039  68.107  1.00  0.00    -0.123 A  
HETATM   18  C   UNL     1      -9.810   8.048  70.325  1.00  0.00    -0.184 A  
HETATM   19  C   UNL     1      -9.122   7.947  69.107  1.00  0.00    -0.145 A  
BRANCH  17  20
HETATM   20  C   UNL     1      -8.698   6.872  66.817  1.00  0.00    -0.122 C  
HETATM   21  C   UNL     1      -7.177   6.774  67.077  1.00  0.00    -0.081 C  
HETATM   22  C   UNL     1      -9.123   5.592  66.071  1.00  0.00    -0.162 C  
HETATM   23  C   UNL     1      -8.920   8.090  65.894  1.00  0.00    -0.181 C  
ENDBRANCH  17  20
ENDBRANCH  12  14
ENDBRANCH  11  12
ENDBRANCH   9  11
ENDBRANCH   6   9
ENDBRANCH   2   3
TORSDOF 6
ENDMDL
MODEL       55
REMARK 921   NORMALIZED FREE ENERGY PREDICTED BY IDOCK:   -5.55 KCAL/MOL
REMARK 922        TOTAL FREE ENERGY PREDICTED BY IDOCK:   -8.50 KCAL/MOL
REMARK 923 INTER-LIGAND FREE ENERGY PREDICTED BY IDOCK:   -7.65 KCAL/MOL
REMARK 924 INTRA-LIGAND FREE ENERGY PREDICTED BY IDOCK:   -0.85 KCAL/MOL
REMARK 927      BINDING AFFINITY PREDICTED BY RF-SCORE:    0.00 PKD
ROOT
HETATM    1  C   UNL     1     -10.151   6.208  74.350  1.00  0.00    -0.323 C  
HETATM    2  O   UNL     1     -11.196   5.601  73.593  1.00  0.00    -0.151 OA 
ENDROOT
BRANCH   2   3
HETATM    3  C   UNL     1     -11.080   5.731  72.237  1.00  0.00    -0.276 A  
HETATM    4  C   UNL     1     -10.259   4.796  71.607  1.00  0.00    -0.249 A  
HETATM    5  C   UNL     1     -10.059   4.847  70.224  1.00  0.00    -0.322 A  
HETATM    6  C   UNL     1     -10.693   5.831  69.454  1.00  0.00    -0.397 A  
HETATM    7  C   UNL     1     -11.538   6.748  70.090  1.00  0.00    -0.397 A  
HETATM    8  C   UNL     1     -11.739   6.691  71.472  1.00  0.00    -0.369 A  
BRANCH   6   9
HETATM    9  C   UNL     1     -10.432   5.866  67.982  1.00  0.00    -0.234 C  
HETATM   10  O   UNL     1      -9.826   4.931  67.451  1.00  0.00    -0.161 OA 
BRANCH   9  11
HETATM   11  C   UNL     1     -10.829   7.081  67.176  1.00  0.00    -0.427 C  
BRANCH  11  12
HETATM   12  C   UNL     1      -9.811   8.192  67.172  1.00  0.00    -0.217 C  
HETATM   13  O   UNL     1      -8.688   8.071  67.657  1.00  0.00    -0.126 OA 
BRANCH  12  14
HETATM   14  C   UNL     1     -10.192   9.499  66.571  1.00  0.00    -0.307 A  
HETATM   15  C   UNL     1     -10.919  10.385  67.364  1.00  0.00    -0.335 A  
HETATM   16  C   UNL     1     -11.369  11.597  66.841  1.00  0.00    -0.364 A  
HETATM   17  C   UNL     1     -11.101  11.967  65.513  1.00  0.00    -0.356 A  
HETATM   18  C   UNL     1      -9.866   9.862  65.262  1.00  0.00    -0.373 A  
HETATM   19  C   UNL     1     -10.313  11.086  64.745  1.00  0.00    -0.389 A  
BRANCH  17  20
HETATM   20  C   UNL     1     -11.666  13.261  64.897  1.00  0.00    -0.375 C  
HETATM   21  C   UNL     1     -10.627  14.405  64.832  1.00  0.00    -0.456 C  
HETATM   22  C   UNL     1     -12.159  13.000  63.460  1.00  0.00    -0.617 C  
HETATM   23  C   UNL     1     -12.847  13.773  65.750  1.00  0.00    -0.430 C  
ENDBRANCH  17  20
ENDBRANCH  12  14
ENDBRANCH  11  12
ENDBRANCH   9  11
ENDBRANCH   6   9
ENDBRANCH   2   3
TORSDOF 6
ENDMDL
MODEL       56
REMARK 921   NORMALIZED FREE ENERGY PREDICTED BY IDOCK:   -5.50 KCAL/MOL
REMARK 922        TOTAL FREE ENERGY PREDICTED BY IDOCK:   -8.44 KCAL/MOL
REMARK 923 INTER-LIGAND FREE ENERGY PREDICTED BY IDOCK:   -7.77 KCAL/MOL
REMARK 924 INTRA-LIGAND FREE ENERGY PREDICTED BY IDOCK:   -0.67 KCAL/MOL
REMARK 927      BINDING AFFINITY PREDICTED BY RF-SCORE:    0.00 PKD
ROOT
HETATM    1  C   UNL     1     -12.287  13.709  65.811  1.00  0.00    -0.482 C  
HETATM    2  O   UNL     1     -11.340  13.879  66.862  1.00  0.00    -0.306 OA 
ENDROOT
BRANCH   2   3
HETATM    3  C   UNL     1     -11.600  13.165  67.998  1.00  0.00    -0.334 A  
HETATM    4  C   UNL     1     -11.460  11.782  67.889  1.00  0.00    -0.387 A  
HETATM    5  C   UNL     1     -11.715  10.954  68.987  1.00  0.00    -0.391 A  
HETATM    6  C   UNL     1     -12.103  11.509  70.214  1.00  0.00    -0.444 A  
HETATM    7  C   UNL     1     -12.214  12.899  70.324  1.00  0.00    -0.362 A  
HETATM    8  C   UNL     1     -11.952  13.723  69.225  1.00  0.00    -0.399 A  
BRANCH   6   9
HETATM    9  C   UNL     1     -12.391  10.587  71.356  1.00  0.00    -0.372 C  
HETATM   10  O   UNL     1     -13.281  10.876  72.159  1.00  0.00    -0.474 OA 
BRANCH   9  11
HETATM   11  C   UNL     1     -11.534   9.360  71.567  1.00  0.00    -0.467 C  
BRANCH  11  12
HETATM   12  C   UNL     1     -12.273   8.051  71.463  1.00  0.00    -0.299 C  
HETATM   13  O   UNL     1     -13.461   7.929  71.756  1.00  0.00    -0.339 OA 
BRANCH  12  14
HETATM   14  C   UNL     1     -11.525   6.850  71.002  1.00  0.00    -0.358 A  
HETATM   15  C   UNL     1     -11.047   5.976  71.978  1.00  0.00    -0.325 A  
HETATM   16  C   UNL     1     -10.278   4.869  71.620  1.00  0.00    -0.267 A  
HETATM   17  C   UNL     1      -9.967   4.595  70.278  1.00  0.00    -0.309 A  
HETATM   18  C   UNL     1     -11.275   6.575  69.656  1.00  0.00    -0.446 A  
HETATM   19  C   UNL     1     -10.508   5.455  69.302  1.00  0.00    -0.309 A  
BRANCH  17  20
HETATM   20  C   UNL     1      -9.047   3.427  69.878  1.00  0.00    -0.197 C  
HETATM   21  C   UNL     1      -9.300   2.922  68.438  1.00  0.00    -0.252 C  
HETATM   22  C   UNL     1      -7.569   3.855  69.965  1.00  0.00    -0.048 C  
HETATM   23  C   UNL     1      -9.281   2.228  70.823  1.00  0.00    -0.197 C  
ENDBRANCH  17  20
ENDBRANCH  12  14
ENDBRANCH  11  12
ENDBRANCH   9  11
ENDBRANCH   6   9
ENDBRANCH   2   3
TORSDOF 6
ENDMDL
MODEL       57
REMARK 921   NORMALIZED FREE ENERGY PREDICTED BY IDOCK:   -5.44 KCAL/MOL
REMARK 922        TOTAL FREE ENERGY PREDICTED BY IDOCK:   -8.36 KCAL/MOL
REMARK 923 INTER-LIGAND FREE ENERGY PREDICTED BY IDOCK:   -7.50 KCAL/MOL
REMARK 924 INTRA-LIGAND FREE ENERGY PREDICTED BY IDOCK:   -0.86 KCAL/MOL
REMARK 927      BINDING AFFINITY PREDICTED BY RF-SCORE:    0.00 PKD
ROOT
HETATM    1  C   UNL     1     -11.501  16.084  70.748  1.00  0.00    -0.414 C  
HETATM    2  O   UNL     1     -12.752  15.402  70.708  1.00  0.00    -0.404 OA 
ENDROOT
BRANCH   2   3
HETATM    3  C   UNL     1     -12.676  14.043  70.837  1.00  0.00    -0.350 A  
HETATM    4  C   UNL     1     -13.362  13.499  71.923  1.00  0.00    -0.529 A  
HETATM    5  C   UNL     1     -13.338  12.120  72.157  1.00  0.00    -0.438 A  
HETATM    6  C   UNL     1     -12.635  11.269  71.294  1.00  0.00    -0.487 A  
HETATM    7  C   UNL     1     -11.972  11.820  70.191  1.00  0.00    -0.421 A  
HETATM    8  C   UNL     1     -12.004  13.198  69.957  1.00  0.00    -0.391 A  
BRANCH   6   9
HETATM    9  C   UNL     1     -12.614   9.804  71.595  1.00  0.00    -0.416 C  
HETATM   10  O   UNL     1     -13.675   9.177  71.627  1.00  0.00    -0.382 OA 
BRANCH   9  11
HETATM   11  C   UNL     1     -11.309   9.127  71.945  1.00  0.00    -0.416 C  
BRANCH  11  12
HETATM   12  C   UNL     1     -10.804   8.160  70.904  1.00  0.00    -0.230 C  
HETATM   13  O   UNL     1     -10.561   8.493  69.746  1.00  0.00    -0.222 OA 
BRANCH  12  14
HETATM   14  C   UNL     1     -10.611   6.738  71.294  1.00  0.00    -0.246 A  
HETATM   15  C   UNL     1     -11.163   6.321  72.504  1.00  0.00    -0.316 A  
HETATM   16  C   UNL     1     -10.961   5.019  72.963  1.00  0.00    -0.360 A  
HETATM   17  C   UNL     1     -10.207   4.091  72.227  1.00  0.00    -0.227 A  
HETATM   18  C   UNL     1      -9.900   5.822  70.515  1.00  0.00    -0.240 A  
HETATM   19  C   UNL     1      -9.707   4.512  70.979  1.00  0.00    -0.259 A  
BRANCH  17  20
HETATM   20  C   UNL     1      -9.902   2.681  72.764  1.00  0.00    -0.193 C  
HETATM   21  C   UNL     1     -11.067   2.079  73.584  1.00  0.00    -0.291 C  
HETATM   22  C   UNL     1      -9.609   1.715  71.598  1.00  0.00    -0.193 C  
HETATM   23  C   UNL     1      -8.672   2.730  73.697  1.00  0.00    -0.072 C  
ENDBRANCH  17  20
ENDBRANCH  12  14
ENDBRANCH  11  12
ENDBRANCH   9  11
ENDBRANCH   6   9
ENDBRANCH   2   3
TORSDOF 6
ENDMDL
MODEL       58
REMARK 921   NORMALIZED FREE ENERGY PREDICTED BY IDOCK:   -5.43 KCAL/MOL
REMARK 922        TOTAL FREE ENERGY PREDICTED BY IDOCK:   -8.34 KCAL/MOL
REMARK 923 INTER-LIGAND FREE ENERGY PREDICTED BY IDOCK:   -7.55 KCAL/MOL
REMARK 924 INTRA-LIGAND FREE ENERGY PREDICTED BY IDOCK:   -0.79 KCAL/MOL
REMARK 927      BINDING AFFINITY PREDICTED BY RF-SCORE:    0.00 PKD
ROOT
HETATM    1  C   UNL     1      -7.216   6.503  67.270  1.00  0.00    -0.078 C  
HETATM    2  O   UNL     1      -8.222   6.497  66.260  1.00  0.00    -0.110 OA 
ENDROOT
BRANCH   2   3
HETATM    3  C   UNL     1      -8.875   7.685  66.085  1.00  0.00    -0.164 A  
HETATM    4  C   UNL     1      -8.450   8.455  65.003  1.00  0.00    -0.160 A  
HETATM    5  C   UNL     1      -9.041   9.696  64.741  1.00  0.00    -0.283 A  
HETATM    6  C   UNL     1     -10.075  10.171  65.556  1.00  0.00    -0.338 A  
HETATM    7  C   UNL     1     -10.515   9.380  66.624  1.00  0.00    -0.238 A  
HETATM    8  C   UNL     1      -9.926   8.138  66.878  1.00  0.00    -0.343 A  
BRANCH   6   9
HETATM    9  C   UNL     1     -10.662  11.514  65.256  1.00  0.00    -0.279 C  
HETATM   10  O   UNL     1     -10.297  12.125  64.249  1.00  0.00    -0.294 OA 
BRANCH   9  11
HETATM   11  C   UNL     1     -11.625  12.149  66.233  1.00  0.00    -0.424 C  
BRANCH  11  12
HETATM   12  C   UNL     1     -12.210  13.461  65.776  1.00  0.00    -0.458 C  
HETATM   13  O   UNL     1     -13.240  13.538  65.109  1.00  0.00    -0.720 OA 
BRANCH  12  14
HETATM   14  C   UNL     1     -11.496  14.717  66.132  1.00  0.00    -0.339 A  
HETATM   15  C   UNL     1     -11.435  15.062  67.482  1.00  0.00    -0.339 A  
HETATM   16  C   UNL     1     -10.842  16.261  67.879  1.00  0.00    -0.330 A  
HETATM   17  C   UNL     1     -10.285  17.149  66.945  1.00  0.00    -0.315 A  
HETATM   18  C   UNL     1     -10.904  15.555  65.185  1.00  0.00    -0.452 A  
HETATM   19  C   UNL     1     -10.303  16.755  65.592  1.00  0.00    -0.284 A  
BRANCH  17  20
HETATM   20  C   UNL     1      -9.708  18.514  67.361  1.00  0.00    -0.318 C  
HETATM   21  C   UNL     1      -8.182  18.623  67.130  1.00  0.00    -0.258 C  
HETATM   22  C   UNL     1     -10.380  19.647  66.562  1.00  0.00    -0.601 C  
HETATM   23  C   UNL     1      -9.952  18.747  68.868  1.00  0.00    -0.423 C  
ENDBRANCH  17  20
ENDBRANCH  12  14
ENDBRANCH  11  12
ENDBRANCH   9  11
ENDBRANCH   6   9
ENDBRANCH   2   3
TORSDOF 6
ENDMDL
MODEL       59
REMARK 921   NORMALIZED FREE ENERGY PREDICTED BY IDOCK:   -5.43 KCAL/MOL
REMARK 922        TOTAL FREE ENERGY PREDICTED BY IDOCK:   -8.34 KCAL/MOL
REMARK 923 INTER-LIGAND FREE ENERGY PREDICTED BY IDOCK:   -7.54 KCAL/MOL
REMARK 924 INTRA-LIGAND FREE ENERGY PREDICTED BY IDOCK:   -0.80 KCAL/MOL
REMARK 927      BINDING AFFINITY PREDICTED BY RF-SCORE:    0.00 PKD
ROOT
HETATM    1  C   UNL     1      -9.457  18.957  66.461  1.00  0.00    -0.340 C  
HETATM    2  O   UNL     1     -10.193  18.265  65.456  1.00  0.00    -0.530 OA 
ENDROOT
BRANCH   2   3
HETATM    3  C   UNL     1     -10.564  16.990  65.782  1.00  0.00    -0.211 A  
HETATM    4  C   UNL     1     -11.058  16.217  64.732  1.00  0.00    -0.345 A  
HETATM    5  C   UNL     1     -11.481  14.903  64.958  1.00  0.00    -0.379 A  
HETATM    6  C   UNL     1     -11.400  14.346  66.241  1.00  0.00    -0.350 A  
HETATM    7  C   UNL     1     -10.877  15.119  67.284  1.00  0.00    -0.316 A  
HETATM    8  C   UNL     1     -10.450  16.430  67.052  1.00  0.00    -0.291 A  
BRANCH   6   9
HETATM    9  C   UNL     1     -11.886  12.946  66.445  1.00  0.00    -0.415 C  
HETATM   10  O   UNL     1     -12.444  12.356  65.516  1.00  0.00    -0.643 OA 
BRANCH   9  11
HETATM   11  C   UNL     1     -11.772  12.301  67.807  1.00  0.00    -0.403 C  
BRANCH  11  12
HETATM   12  C   UNL     1     -10.605  11.359  67.960  1.00  0.00    -0.191 C  
HETATM   13  O   UNL     1      -9.558  11.484  67.328  1.00  0.00    -0.171 OA 
BRANCH  12  14
HETATM   14  C   UNL     1     -10.737  10.217  68.905  1.00  0.00    -0.256 A  
HETATM   15  C   UNL     1     -11.211  10.493  70.187  1.00  0.00    -0.389 A  
HETATM   16  C   UNL     1     -11.292   9.482  71.144  1.00  0.00    -0.440 A  
HETATM   17  C   UNL     1     -10.910   8.163  70.851  1.00  0.00    -0.254 A  
HETATM   18  C   UNL     1     -10.398   8.904  68.569  1.00  0.00    -0.229 A  
HETATM   19  C   UNL     1     -10.490   7.890  69.534  1.00  0.00    -0.226 A  
BRANCH  17  20
HETATM   20  C   UNL     1     -10.912   7.057  71.922  1.00  0.00    -0.263 C  
HETATM   21  C   UNL     1     -10.515   7.572  73.326  1.00  0.00    -0.426 C  
HETATM   22  C   UNL     1     -12.313   6.426  72.040  1.00  0.00    -0.268 C  
HETATM   23  C   UNL     1      -9.896   5.958  71.542  1.00  0.00    -0.201 C  
ENDBRANCH  17  20
ENDBRANCH  12  14
ENDBRANCH  11  12
ENDBRANCH   9  11
ENDBRANCH   6   9
ENDBRANCH   2   3
TORSDOF 6
ENDMDL
MODEL       60
REMARK 921   NORMALIZED FREE ENERGY PREDICTED BY IDOCK:   -5.42 KCAL/MOL
REMARK 922        TOTAL FREE ENERGY PREDICTED BY IDOCK:   -8.32 KCAL/MOL
REMARK 923 INTER-LIGAND FREE ENERGY PREDICTED BY IDOCK:   -7.57 KCAL/MOL
REMARK 924 INTRA-LIGAND FREE ENERGY PREDICTED BY IDOCK:   -0.75 KCAL/MOL
REMARK 927      BINDING AFFINITY PREDICTED BY RF-SCORE:    0.00 PKD
ROOT
HETATM    1  C   UNL     1     -14.050   8.760  72.322  1.00  0.00    -0.441 C  
HETATM    2  O   UNL     1     -12.649   8.998  72.212  1.00  0.00    -0.380 OA 
ENDROOT
BRANCH   2   3
HETATM    3  C   UNL     1     -12.291   9.932  71.280  1.00  0.00    -0.381 A  
HETATM    4  C   UNL     1     -12.787  11.218  71.489  1.00  0.00    -0.519 A  
HETATM    5  C   UNL     1     -12.495  12.246  70.588  1.00  0.00    -0.323 A  
HETATM    6  C   UNL     1     -11.687  11.997  69.471  1.00  0.00    -0.408 A  
HETATM    7  C   UNL     1     -11.169  10.711  69.282  1.00  0.00    -0.332 A  
HETATM    8  C   UNL     1     -11.460   9.687  70.189  1.00  0.00    -0.238 A  
BRANCH   6   9
HETATM    9  C   UNL     1     -11.419  13.119  68.518  1.00  0.00    -0.303 C  
HETATM   10  O   UNL     1     -12.055  13.184  67.464  1.00  0.00    -0.339 OA 
BRANCH   9  11
HETATM   11  C   UNL     1     -10.311  14.105  68.810  1.00  0.00    -0.230 C  
BRANCH  11  12
HETATM   12  C   UNL     1     -10.768  15.533  68.967  1.00  0.00    -0.243 C  
HETATM   13  O   UNL     1     -11.918  15.837  69.275  1.00  0.00    -0.369 OA 
BRANCH  12  14
HETATM   14  C   UNL     1      -9.785  16.622  68.718  1.00  0.00    -0.254 A  
HETATM   15  C   UNL     1      -8.444  16.261  68.584  1.00  0.00    -0.221 A  
HETATM   16  C   UNL     1      -7.462  17.238  68.420  1.00  0.00    -0.234 A  
HETATM   17  C   UNL     1      -7.786  18.603  68.376  1.00  0.00    -0.344 A  
HETATM   18  C   UNL     1     -10.143  17.969  68.626  1.00  0.00    -0.401 A  
HETATM   19  C   UNL     1      -9.151  18.945  68.452  1.00  0.00    -0.383 A  
BRANCH  17  20
HETATM   20  C   UNL     1      -6.704  19.695  68.283  1.00  0.00    -0.313 C  
HETATM   21  C   UNL     1      -7.184  20.964  67.540  1.00  0.00    -0.364 C  
HETATM   22  C   UNL     1      -6.255  20.126  69.693  1.00  0.00    -0.377 C  
HETATM   23  C   UNL     1      -5.482  19.155  67.509  1.00  0.00    -0.170 C  
ENDBRANCH  17  20
ENDBRANCH  12  14
ENDBRANCH  11  12
ENDBRANCH   9  11
ENDBRANCH   6   9
ENDBRANCH   2   3
TORSDOF 6
ENDMDL
MODEL       61
REMARK 921   NORMALIZED FREE ENERGY PREDICTED BY IDOCK:   -5.41 KCAL/MOL
REMARK 922        TOTAL FREE ENERGY PREDICTED BY IDOCK:   -8.31 KCAL/MOL
REMARK 923 INTER-LIGAND FREE ENERGY PREDICTED BY IDOCK:   -7.17 KCAL/MOL
REMARK 924 INTRA-LIGAND FREE ENERGY PREDICTED BY IDOCK:   -1.14 KCAL/MOL
REMARK 927      BINDING AFFINITY PREDICTED BY RF-SCORE:    0.00 PKD
ROOT
HETATM    1  C   UNL     1     -12.700  14.430  65.462  1.00  0.00    -0.293 C  
HETATM    2  O   UNL     1     -12.862  13.244  64.688  1.00  0.00    -0.679 OA 
ENDROOT
BRANCH   2   3
HETATM    3  C   UNL     1     -11.857  12.326  64.817  1.00  0.00    -0.364 A  
HETATM    4  C   UNL     1     -11.345  11.819  63.623  1.00  0.00    -0.525 A  
HETATM    5  C   UNL     1     -10.325  10.862  63.640  1.00  0.00    -0.364 A  
HETATM    6  C   UNL     1      -9.797  10.413  64.858  1.00  0.00    -0.400 A  
HETATM    7  C   UNL     1     -10.297  10.948  66.051  1.00  0.00    -0.304 A  
HETATM    8  C   UNL     1     -11.313  11.908  66.029  1.00  0.00    -0.375 A  
BRANCH   6   9
HETATM    9  C   UNL     1      -8.725   9.371  64.831  1.00  0.00    -0.190 C  
HETATM   10  O   UNL     1      -8.234   9.033  63.752  1.00  0.00    -0.156 OA 
BRANCH   9  11
HETATM   11  C   UNL     1      -8.318   8.679  66.112  1.00  0.00    -0.127 C  
BRANCH  11  12
HETATM   12  C   UNL     1      -9.086   7.418  66.416  1.00  0.00    -0.160 C  
HETATM   13  O   UNL     1      -9.084   6.439  65.672  1.00  0.00    -0.077 OA 
BRANCH  12  14
HETATM   14  C   UNL     1      -9.897   7.366  67.661  1.00  0.00    -0.194 A  
HETATM   15  C   UNL     1      -9.837   8.467  68.516  1.00  0.00    -0.186 A  
HETATM   16  C   UNL     1     -10.517   8.455  69.733  1.00  0.00    -0.220 A  
HETATM   17  C   UNL     1     -11.284   7.350  70.134  1.00  0.00    -0.239 A  
HETATM   18  C   UNL     1     -10.695   6.274  68.010  1.00  0.00    -0.369 A  
HETATM   19  C   UNL     1     -11.382   6.272  69.232  1.00  0.00    -0.411 A  
BRANCH  17  20
HETATM   20  C   UNL     1     -11.967   7.289  71.513  1.00  0.00    -0.349 C  
HETATM   21  C   UNL     1     -11.646   8.512  72.404  1.00  0.00    -0.425 C  
HETATM   22  C   UNL     1     -13.499   7.223  71.350  1.00  0.00    -0.400 C  
HETATM   23  C   UNL     1     -11.488   6.036  72.279  1.00  0.00    -0.364 C  
ENDBRANCH  17  20
ENDBRANCH  12  14
ENDBRANCH  11  12
ENDBRANCH   9  11
ENDBRANCH   6   9
ENDBRANCH   2   3
TORSDOF 6
ENDMDL
MODEL       62
REMARK 921   NORMALIZED FREE ENERGY PREDICTED BY IDOCK:   -5.40 KCAL/MOL
REMARK 922        TOTAL FREE ENERGY PREDICTED BY IDOCK:   -8.30 KCAL/MOL
REMARK 923 INTER-LIGAND FREE ENERGY PREDICTED BY IDOCK:   -7.31 KCAL/MOL
REMARK 924 INTRA-LIGAND FREE ENERGY PREDICTED BY IDOCK:   -0.99 KCAL/MOL
REMARK 927      BINDING AFFINITY PREDICTED BY RF-SCORE:    0.00 PKD
ROOT
HETATM    1  C   UNL     1     -12.808  11.974  63.111  1.00  0.00    -0.038 C  
HETATM    2  O   UNL     1     -12.617  13.332  63.498  1.00  0.00    -0.728 OA 
ENDROOT
BRANCH   2   3
HETATM    3  C   UNL     1     -11.958  13.510  64.683  1.00  0.00    -0.400 A  
HETATM    4  C   UNL     1     -10.580  13.694  64.587  1.00  0.00    -0.446 A  
HETATM    5  C   UNL     1      -9.806  13.871  65.739  1.00  0.00    -0.262 A  
HETATM    6  C   UNL     1     -10.412  13.877  67.002  1.00  0.00    -0.278 A  
HETATM    7  C   UNL     1     -11.800  13.720  67.089  1.00  0.00    -0.441 A  
HETATM    8  C   UNL     1     -12.570  13.549  65.934  1.00  0.00    -0.454 A  
BRANCH   6   9
HETATM    9  C   UNL     1      -9.545  14.044  68.210  1.00  0.00    -0.224 C  
HETATM   10  O   UNL     1      -9.687  15.038  68.925  1.00  0.00    -0.210 OA 
BRANCH   9  11
HETATM   11  C   UNL     1      -8.447  13.044  68.491  1.00  0.00    -0.048 C  
BRANCH  11  12
HETATM   12  C   UNL     1      -8.801  11.615  68.170  1.00  0.00    -0.164 C  
HETATM   13  O   UNL     1      -8.490  11.071  67.113  1.00  0.00    -0.132 OA 
BRANCH  12  14
HETATM   14  C   UNL     1      -9.580  10.836  69.171  1.00  0.00    -0.169 A  
HETATM   15  C   UNL     1      -8.922   9.801  69.835  1.00  0.00    -0.254 A  
HETATM   16  C   UNL     1      -9.611   8.987  70.733  1.00  0.00    -0.308 A  
HETATM   17  C   UNL     1     -10.975   9.184  71.004  1.00  0.00    -0.375 A  
HETATM   18  C   UNL     1     -10.923  11.088  69.458  1.00  0.00    -0.297 A  
HETATM   19  C   UNL     1     -11.608  10.271  70.369  1.00  0.00    -0.411 A  
BRANCH  17  20
HETATM   20  C   UNL     1     -11.767   8.238  71.926  1.00  0.00    -0.381 C  
HETATM   21  C   UNL     1     -12.998   8.914  72.574  1.00  0.00    -0.415 C  
HETATM   22  C   UNL     1     -12.273   7.017  71.133  1.00  0.00    -0.427 C  
HETATM   23  C   UNL     1     -10.862   7.751  73.078  1.00  0.00    -0.451 C  
ENDBRANCH  17  20
ENDBRANCH  12  14
ENDBRANCH  11  12
ENDBRANCH   9  11
ENDBRANCH   6   9
ENDBRANCH   2   3
TORSDOF 6
ENDMDL
MODEL       63
REMARK 921   NORMALIZED FREE ENERGY PREDICTED BY IDOCK:   -5.40 KCAL/MOL
REMARK 922        TOTAL FREE ENERGY PREDICTED BY IDOCK:   -8.30 KCAL/MOL
REMARK 923 INTER-LIGAND FREE ENERGY PREDICTED BY IDOCK:   -6.70 KCAL/MOL
REMARK 924 INTRA-LIGAND FREE ENERGY PREDICTED BY IDOCK:   -1.60 KCAL/MOL
REMARK 927      BINDING AFFINITY PREDICTED BY RF-SCORE:    0.00 PKD
ROOT
HETATM    1  C   UNL     1     -14.259   8.626  72.361  1.00  0.00    -0.363 C  
HETATM    2  O   UNL     1     -13.703   9.875  71.960  1.00  0.00    -0.332 OA 
ENDROOT
BRANCH   2   3
HETATM    3  C   UNL     1     -12.423   9.813  71.481  1.00  0.00    -0.403 A  
HETATM    4  C   UNL     1     -11.599   8.861  72.079  1.00  0.00    -0.435 A  
HETATM    5  C   UNL     1     -10.267   8.723  71.676  1.00  0.00    -0.394 A  
HETATM    6  C   UNL     1      -9.751   9.533  70.656  1.00  0.00    -0.311 A  
HETATM    7  C   UNL     1     -10.592  10.467  70.041  1.00  0.00    -0.282 A  
HETATM    8  C   UNL     1     -11.924  10.597  70.444  1.00  0.00    -0.436 A  
BRANCH   6   9
HETATM    9  C   UNL     1      -8.314   9.370  70.272  1.00  0.00    -0.195 C  
HETATM   10  O   UNL     1      -7.440   9.917  70.948  1.00  0.00    -0.314 OA 
BRANCH   9  11
HETATM   11  C   UNL     1      -7.953   8.618  69.012  1.00  0.00    -0.115 C  
BRANCH  11  12
HETATM   12  C   UNL     1      -7.481   9.487  67.874  1.00  0.00    -0.083 C  
HETATM   13  O   UNL     1      -6.315   9.505  67.486  1.00  0.00    -0.060 OA 
BRANCH  12  14
HETATM   14  C   UNL     1      -8.469  10.377  67.206  1.00  0.00    -0.122 A  
HETATM   15  C   UNL     1      -8.298  11.753  67.352  1.00  0.00    -0.159 A  
HETATM   16  C   UNL     1      -9.226  12.643  66.812  1.00  0.00    -0.225 A  
HETATM   17  C   UNL     1     -10.350  12.189  66.103  1.00  0.00    -0.264 A  
HETATM   18  C   UNL     1      -9.549   9.898  66.462  1.00  0.00    -0.243 A  
HETATM   19  C   UNL     1     -10.475  10.798  65.914  1.00  0.00    -0.270 A  
BRANCH  17  20
HETATM   20  C   UNL     1     -11.427  13.156  65.578  1.00  0.00    -0.343 C  
HETATM   21  C   UNL     1     -12.290  13.773  66.704  1.00  0.00    -0.403 C  
HETATM   22  C   UNL     1     -10.774  14.319  64.805  1.00  0.00    -0.435 C  
HETATM   23  C   UNL     1     -12.391  12.403  64.634  1.00  0.00    -0.518 C  
ENDBRANCH  17  20
ENDBRANCH  12  14
ENDBRANCH  11  12
ENDBRANCH   9  11
ENDBRANCH   6   9
ENDBRANCH   2   3
TORSDOF 6
ENDMDL
MODEL       64
REMARK 921   NORMALIZED FREE ENERGY PREDICTED BY IDOCK:   -5.36 KCAL/MOL
REMARK 922        TOTAL FREE ENERGY PREDICTED BY IDOCK:   -8.24 KCAL/MOL
REMARK 923 INTER-LIGAND FREE ENERGY PREDICTED BY IDOCK:   -7.09 KCAL/MOL
REMARK 924 INTRA-LIGAND FREE ENERGY PREDICTED BY IDOCK:   -1.15 KCAL/MOL
REMARK 927      BINDING AFFINITY PREDICTED BY RF-SCORE:    0.00 PKD
ROOT
HETATM    1  C   UNL     1     -11.784  15.683  69.180  1.00  0.00    -0.390 C  
HETATM    2  O   UNL     1     -12.607  15.394  70.307  1.00  0.00    -0.377 OA 
ENDROOT
BRANCH   2   3
HETATM    3  C   UNL     1     -12.658  14.076  70.666  1.00  0.00    -0.344 A  
HETATM    4  C   UNL     1     -11.929  13.201  69.861  1.00  0.00    -0.387 A  
HETATM    5  C   UNL     1     -11.924  11.828  70.131  1.00  0.00    -0.421 A  
HETATM    6  C   UNL     1     -12.641  11.320  71.222  1.00  0.00    -0.487 A  
HETATM    7  C   UNL     1     -13.347  12.208  72.041  1.00  0.00    -0.470 A  
HETATM    8  C   UNL     1     -13.345  13.580  71.772  1.00  0.00    -0.480 A  
BRANCH   6   9
HETATM    9  C   UNL     1     -12.629   9.843  71.460  1.00  0.00    -0.416 C  
HETATM   10  O   UNL     1     -13.698   9.231  71.526  1.00  0.00    -0.378 OA 
BRANCH   9  11
HETATM   11  C   UNL     1     -11.319   9.132  71.707  1.00  0.00    -0.451 C  
BRANCH  11  12
HETATM   12  C   UNL     1     -10.966   8.089  70.678  1.00  0.00    -0.245 C  
HETATM   13  O   UNL     1     -11.098   6.883  70.877  1.00  0.00    -0.250 OA 
BRANCH  12  14
HETATM   14  C   UNL     1     -10.416   8.541  69.372  1.00  0.00    -0.223 A  
HETATM   15  C   UNL     1     -10.720   7.776  68.246  1.00  0.00    -0.093 A  
HETATM   16  C   UNL     1     -10.179   8.103  67.002  1.00  0.00    -0.378 A  
HETATM   17  C   UNL     1      -9.325   9.205  66.841  1.00  0.00    -0.199 A  
HETATM   18  C   UNL     1      -9.611   9.673  69.232  1.00  0.00    -0.190 A  
HETATM   19  C   UNL     1      -9.077  10.001  67.977  1.00  0.00    -0.132 A  
BRANCH  17  20
HETATM   20  C   UNL     1      -8.652   9.524  65.493  1.00  0.00    -0.163 C  
HETATM   21  C   UNL     1      -8.300   8.259  64.676  1.00  0.00    -0.115 C  
HETATM   22  C   UNL     1      -9.581  10.394  64.622  1.00  0.00    -0.360 C  
HETATM   23  C   UNL     1      -7.331  10.286  65.735  1.00  0.00    -0.140 C  
ENDBRANCH  17  20
ENDBRANCH  12  14
ENDBRANCH  11  12
ENDBRANCH   9  11
ENDBRANCH   6   9
ENDBRANCH   2   3
TORSDOF 6
ENDMDL
MODEL       65
REMARK 921   NORMALIZED FREE ENERGY PREDICTED BY IDOCK:   -5.33 KCAL/MOL
REMARK 922        TOTAL FREE ENERGY PREDICTED BY IDOCK:   -8.20 KCAL/MOL
REMARK 923 INTER-LIGAND FREE ENERGY PREDICTED BY IDOCK:   -7.39 KCAL/MOL
REMARK 924 INTRA-LIGAND FREE ENERGY PREDICTED BY IDOCK:   -0.81 KCAL/MOL
REMARK 927      BINDING AFFINITY PREDICTED BY RF-SCORE:    0.00 PKD
ROOT
HETATM    1  C   UNL     1     -12.547   8.747  72.151  1.00  0.00    -0.399 C  
HETATM    2  O   UNL     1     -11.296   8.794  71.470  1.00  0.00    -0.261 OA 
ENDROOT
BRANCH   2   3
HETATM    3  C   UNL     1     -11.274   9.581  70.351  1.00  0.00    -0.270 A  
HETATM    4  C   UNL     1     -11.857  10.840  70.485  1.00  0.00    -0.453 A  
HETATM    5  C   UNL     1     -11.902  11.720  69.399  1.00  0.00    -0.398 A  
HETATM    6  C   UNL     1     -11.350  11.348  68.166  1.00  0.00    -0.374 A  
HETATM    7  C   UNL     1     -10.741  10.093  68.047  1.00  0.00    -0.305 A  
HETATM    8  C   UNL     1     -10.693   9.220  69.137  1.00  0.00    -0.202 A  
BRANCH   6   9
HETATM    9  C   UNL     1     -11.442  12.308  67.023  1.00  0.00    -0.354 C  
HETATM   10  O   UNL     1     -12.278  12.117  66.137  1.00  0.00    -0.611 OA 
BRANCH   9  11
HETATM   11  C   UNL     1     -10.453  13.446  66.915  1.00  0.00    -0.273 C  
BRANCH  11  12
HETATM   12  C   UNL     1     -10.941  14.757  67.476  1.00  0.00    -0.304 C  
HETATM   13  O   UNL     1     -12.023  14.878  68.047  1.00  0.00    -0.306 OA 
BRANCH  12  14
HETATM   14  C   UNL     1     -10.082  15.960  67.314  1.00  0.00    -0.260 A  
HETATM   15  C   UNL     1      -9.044  15.890  66.384  1.00  0.00    -0.355 A  
HETATM   16  C   UNL     1      -8.158  16.956  66.231  1.00  0.00    -0.351 A  
HETATM   17  C   UNL     1      -8.282  18.128  66.995  1.00  0.00    -0.246 A  
HETATM   18  C   UNL     1     -10.261  17.133  68.050  1.00  0.00    -0.332 A  
HETATM   19  C   UNL     1      -9.372  18.205  67.886  1.00  0.00    -0.276 A  
BRANCH  17  20
HETATM   20  C   UNL     1      -7.260  19.275  66.899  1.00  0.00    -0.217 C  
HETATM   21  C   UNL     1      -6.534  19.328  65.534  1.00  0.00    -0.297 C  
HETATM   22  C   UNL     1      -7.957  20.634  67.105  1.00  0.00    -0.323 C  
HETATM   23  C   UNL     1      -6.172  19.099  67.981  1.00  0.00    -0.228 C  
ENDBRANCH  17  20
ENDBRANCH  12  14
ENDBRANCH  11  12
ENDBRANCH   9  11
ENDBRANCH   6   9
ENDBRANCH   2   3
TORSDOF 6
ENDMDL
MODEL       66
REMARK 921   NORMALIZED FREE ENERGY PREDICTED BY IDOCK:   -5.33 KCAL/MOL
REMARK 922        TOTAL FREE ENERGY PREDICTED BY IDOCK:   -8.20 KCAL/MOL
REMARK 923 INTER-LIGAND FREE ENERGY PREDICTED BY IDOCK:   -6.69 KCAL/MOL
REMARK 924 INTRA-LIGAND FREE ENERGY PREDICTED BY IDOCK:   -1.51 KCAL/MOL
REMARK 927      BINDING AFFINITY PREDICTED BY RF-SCORE:    0.00 PKD
ROOT
HETATM    1  C   UNL     1     -12.387  12.107  63.421  1.00  0.00    -0.538 C  
HETATM    2  O   UNL     1     -12.623  13.512  63.442  1.00  0.00    -0.740 OA 
ENDROOT
BRANCH   2   3
HETATM    3  C   UNL     1     -12.117  14.169  64.529  1.00  0.00    -0.468 A  
HETATM    4  C   UNL     1     -12.563  13.718  65.770  1.00  0.00    -0.525 A  
HETATM    5  C   UNL     1     -12.120  14.330  66.948  1.00  0.00    -0.440 A  
HETATM    6  C   UNL     1     -11.212  15.395  66.891  1.00  0.00    -0.214 A  
HETATM    7  C   UNL     1     -10.747  15.824  65.642  1.00  0.00    -0.360 A  
HETATM    8  C   UNL     1     -11.188  15.206  64.469  1.00  0.00    -0.283 A  
BRANCH   6   9
HETATM    9  C   UNL     1     -10.782  16.038  68.172  1.00  0.00    -0.311 C  
HETATM   10  O   UNL     1     -10.852  17.264  68.288  1.00  0.00    -0.365 OA 
BRANCH   9  11
HETATM   11  C   UNL     1     -10.184  15.194  69.273  1.00  0.00    -0.251 C  
BRANCH  11  12
HETATM   12  C   UNL     1      -8.882  14.523  68.914  1.00  0.00    -0.103 C  
HETATM   13  O   UNL     1      -7.787  15.050  69.098  1.00  0.00    -0.164 OA 
BRANCH  12  14
HETATM   14  C   UNL     1      -8.930  13.173  68.292  1.00  0.00    -0.175 A  
HETATM   15  C   UNL     1      -7.898  12.829  67.419  1.00  0.00    -0.172 A  
HETATM   16  C   UNL     1      -7.917  11.607  66.747  1.00  0.00    -0.140 A  
HETATM   17  C   UNL     1      -8.961  10.686  66.930  1.00  0.00    -0.147 A  
HETATM   18  C   UNL     1      -9.955  12.256  68.533  1.00  0.00    -0.175 A  
HETATM   19  C   UNL     1      -9.964  11.025  67.861  1.00  0.00    -0.192 A  
BRANCH  17  20
HETATM   20  C   UNL     1      -9.039   9.374  66.129  1.00  0.00    -0.214 C  
HETATM   21  C   UNL     1      -7.739   8.539  66.203  1.00  0.00    -0.093 C  
HETATM   22  C   UNL     1     -10.187   8.490  66.658  1.00  0.00    -0.345 C  
HETATM   23  C   UNL     1      -9.290   9.685  64.637  1.00  0.00    -0.271 C  
ENDBRANCH  17  20
ENDBRANCH  12  14
ENDBRANCH  11  12
ENDBRANCH   9  11
ENDBRANCH   6   9
ENDBRANCH   2   3
TORSDOF 6
ENDMDL
MODEL       67
REMARK 921   NORMALIZED FREE ENERGY PREDICTED BY IDOCK:   -5.32 KCAL/MOL
REMARK 922        TOTAL FREE ENERGY PREDICTED BY IDOCK:   -8.19 KCAL/MOL
REMARK 923 INTER-LIGAND FREE ENERGY PREDICTED BY IDOCK:   -6.16 KCAL/MOL
REMARK 924 INTRA-LIGAND FREE ENERGY PREDICTED BY IDOCK:   -2.03 KCAL/MOL
REMARK 927      BINDING AFFINITY PREDICTED BY RF-SCORE:    0.00 PKD
ROOT
HETATM    1  C   UNL     1     -10.134  10.906  63.072  1.00  0.00    -0.201 C  
HETATM    2  O   UNL     1     -11.419  11.381  63.464  1.00  0.00    -0.355 OA 
ENDROOT
BRANCH   2   3
HETATM    3  C   UNL     1     -11.409  12.490  64.264  1.00  0.00    -0.361 A  
HETATM    4  C   UNL     1     -10.198  13.180  64.326  1.00  0.00    -0.283 A  
HETATM    5  C   UNL     1     -10.072  14.320  65.126  1.00  0.00    -0.353 A  
HETATM    6  C   UNL     1     -11.167  14.788  65.865  1.00  0.00    -0.340 A  
HETATM    7  C   UNL     1     -12.386  14.107  65.776  1.00  0.00    -0.481 A  
HETATM    8  C   UNL     1     -12.509  12.971  64.970  1.00  0.00    -0.534 A  
BRANCH   6   9
HETATM    9  C   UNL     1     -10.983  15.996  66.728  1.00  0.00    -0.112 C  
HETATM   10  O   UNL     1     -10.524  17.030  66.235  1.00  0.00    -0.314 OA 
BRANCH   9  11
HETATM   11  C   UNL     1     -11.272  15.913  68.209  1.00  0.00    -0.354 C  
BRANCH  11  12
HETATM   12  C   UNL     1     -10.256  15.133  69.004  1.00  0.00    -0.241 C  
HETATM   13  O   UNL     1      -9.502  15.658  69.822  1.00  0.00    -0.277 OA 
BRANCH  12  14
HETATM   14  C   UNL     1     -10.151  13.668  68.774  1.00  0.00    -0.129 A  
HETATM   15  C   UNL     1      -8.905  13.162  68.403  1.00  0.00    -0.117 A  
HETATM   16  C   UNL     1      -8.752  11.809  68.104  1.00  0.00    -0.168 A  
HETATM   17  C   UNL     1      -9.833  10.915  68.172  1.00  0.00    -0.187 A  
HETATM   18  C   UNL     1     -11.233  12.794  68.901  1.00  0.00    -0.332 A  
HETATM   19  C   UNL     1     -11.070  11.432  68.606  1.00  0.00    -0.290 A  
BRANCH  17  20
HETATM   20  C   UNL     1      -9.697   9.438  67.759  1.00  0.00    -0.182 C  
HETATM   21  C   UNL     1     -10.317   9.135  66.375  1.00  0.00    -0.235 C  
HETATM   22  C   UNL     1      -8.211   9.033  67.700  1.00  0.00    -0.109 C  
HETATM   23  C   UNL     1     -10.424   8.540  68.784  1.00  0.00    -0.208 C  
ENDBRANCH  17  20
ENDBRANCH  12  14
ENDBRANCH  11  12
ENDBRANCH   9  11
ENDBRANCH   6   9
ENDBRANCH   2   3
TORSDOF 6
ENDMDL
MODEL       68
REMARK 921   NORMALIZED FREE ENERGY PREDICTED BY IDOCK:   -5.31 KCAL/MOL
REMARK 922        TOTAL FREE ENERGY PREDICTED BY IDOCK:   -8.18 KCAL/MOL
REMARK 923 INTER-LIGAND FREE ENERGY PREDICTED BY IDOCK:   -7.40 KCAL/MOL
REMARK 924 INTRA-LIGAND FREE ENERGY PREDICTED BY IDOCK:   -0.78 KCAL/MOL
REMARK 927      BINDING AFFINITY PREDICTED BY RF-SCORE:    0.00 PKD
ROOT
HETATM    1  C   UNL     1     -11.620  16.025  70.675  1.00  0.00    -0.383 C  
HETATM    2  O   UNL     1     -12.881  15.363  70.699  1.00  0.00    -0.432 OA 
ENDROOT
BRANCH   2   3
HETATM    3  C   UNL     1     -12.828  14.022  70.960  1.00  0.00    -0.340 A  
HETATM    4  C   UNL     1     -12.043  13.267  70.088  1.00  0.00    -0.403 A  
HETATM    5  C   UNL     1     -11.931  11.883  70.254  1.00  0.00    -0.416 A  
HETATM    6  C   UNL     1     -12.596  11.242  71.307  1.00  0.00    -0.487 A  
HETATM    7  C   UNL     1     -13.359  12.010  72.194  1.00  0.00    -0.396 A  
HETATM    8  C   UNL     1     -13.464  13.394  72.028  1.00  0.00    -0.584 A  
BRANCH   6   9
HETATM    9  C   UNL     1     -12.470   9.757  71.434  1.00  0.00    -0.387 C  
HETATM   10  O   UNL     1     -13.485   9.057  71.404  1.00  0.00    -0.339 OA 
BRANCH   9  11
HETATM   11  C   UNL     1     -11.115   9.136  71.689  1.00  0.00    -0.445 C  
BRANCH  11  12
HETATM   12  C   UNL     1     -11.141   7.647  71.925  1.00  0.00    -0.249 C  
HETATM   13  O   UNL     1     -11.463   7.147  73.000  1.00  0.00    -0.217 OA 
BRANCH  12  14
HETATM   14  C   UNL     1     -10.738   6.747  70.811  1.00  0.00    -0.270 A  
HETATM   15  C   UNL     1     -10.365   5.444  71.139  1.00  0.00    -0.304 A  
HETATM   16  C   UNL     1      -9.910   4.569  70.152  1.00  0.00    -0.296 A  
HETATM   17  C   UNL     1      -9.819   4.964  68.808  1.00  0.00    -0.231 A  
HETATM   18  C   UNL     1     -10.708   7.151  69.474  1.00  0.00    -0.255 A  
HETATM   19  C   UNL     1     -10.257   6.264  68.486  1.00  0.00    -0.205 A  
BRANCH  17  20
HETATM   20  C   UNL     1      -9.236   4.037  67.725  1.00  0.00    -0.197 C  
HETATM   21  C   UNL     1      -9.369   2.536  68.074  1.00  0.00    -0.254 C  
HETATM   22  C   UNL     1      -9.955   4.265  66.380  1.00  0.00    -0.223 C  
HETATM   23  C   UNL     1      -7.730   4.326  67.545  1.00  0.00    -0.084 C  
ENDBRANCH  17  20
ENDBRANCH  12  14
ENDBRANCH  11  12
ENDBRANCH   9  11
ENDBRANCH   6   9
ENDBRANCH   2   3
TORSDOF 6
ENDMDL
MODEL       69
REMARK 921   NORMALIZED FREE ENERGY PREDICTED BY IDOCK:   -5.29 KCAL/MOL
REMARK 922        TOTAL FREE ENERGY PREDICTED BY IDOCK:   -8.15 KCAL/MOL
REMARK 923 INTER-LIGAND FREE ENERGY PREDICTED BY IDOCK:   -6.90 KCAL/MOL
REMARK 924 INTRA-LIGAND FREE ENERGY PREDICTED BY IDOCK:   -1.26 KCAL/MOL
REMARK 927      BINDING AFFINITY PREDICTED BY RF-SCORE:    0.00 PKD
ROOT
HETATM    1  C   UNL     1      -8.276   6.071  67.866  1.00  0.00    -0.112 C  
HETATM    2  O   UNL     1      -8.397   5.850  69.269  1.00  0.00    -0.111 OA 
ENDROOT
BRANCH   2   3
HETATM    3  C   UNL     1      -9.466   6.463  69.863  1.00  0.00    -0.154 A  
HETATM    4  C   UNL     1      -9.205   7.702  70.447  1.00  0.00    -0.156 A  
HETATM    5  C   UNL     1     -10.224   8.408  71.096  1.00  0.00    -0.254 A  
HETATM    6  C   UNL     1     -11.521   7.883  71.152  1.00  0.00    -0.297 A  
HETATM    7  C   UNL     1     -11.782   6.652  70.538  1.00  0.00    -0.453 A  
HETATM    8  C   UNL     1     -10.762   5.953  69.887  1.00  0.00    -0.406 A  
BRANCH   6   9
HETATM    9  C   UNL     1     -12.576   8.659  71.876  1.00  0.00    -0.359 C  
HETATM   10  O   UNL     1     -12.784   8.430  73.070  1.00  0.00    -0.172 OA 
BRANCH   9  11
HETATM   11  C   UNL     1     -13.435   9.646  71.121  1.00  0.00    -0.292 C  
BRANCH  11  12
HETATM   12  C   UNL     1     -12.973  11.078  71.209  1.00  0.00    -0.372 C  
HETATM   13  O   UNL     1     -13.168  11.783  72.197  1.00  0.00    -0.498 OA 
BRANCH  12  14
HETATM   14  C   UNL     1     -12.266  11.667  70.040  1.00  0.00    -0.338 A  
HETATM   15  C   UNL     1     -12.096  13.051  70.021  1.00  0.00    -0.367 A  
HETATM   16  C   UNL     1     -11.505  13.676  68.923  1.00  0.00    -0.344 A  
HETATM   17  C   UNL     1     -11.060  12.941  67.813  1.00  0.00    -0.291 A  
HETATM   18  C   UNL     1     -11.786  10.905  68.973  1.00  0.00    -0.391 A  
HETATM   19  C   UNL     1     -11.186  11.539  67.876  1.00  0.00    -0.344 A  
BRANCH  17  20
HETATM   20  C   UNL     1     -10.487  13.626  66.558  1.00  0.00    -0.281 C  
HETATM   21  C   UNL     1     -10.405  12.682  65.336  1.00  0.00    -0.311 C  
HETATM   22  C   UNL     1     -11.364  14.829  66.157  1.00  0.00    -0.330 C  
HETATM   23  C   UNL     1      -9.052  14.121  66.842  1.00  0.00    -0.260 C  
ENDBRANCH  17  20
ENDBRANCH  12  14
ENDBRANCH  11  12
ENDBRANCH   9  11
ENDBRANCH   6   9
ENDBRANCH   2   3
TORSDOF 6
ENDMDL
MODEL       70
REMARK 921   NORMALIZED FREE ENERGY PREDICTED BY IDOCK:   -5.29 KCAL/MOL
REMARK 922        TOTAL FREE ENERGY PREDICTED BY IDOCK:   -8.15 KCAL/MOL
REMARK 923 INTER-LIGAND FREE ENERGY PREDICTED BY IDOCK:   -6.33 KCAL/MOL
REMARK 924 INTRA-LIGAND FREE ENERGY PREDICTED BY IDOCK:   -1.82 KCAL/MOL
REMARK 927      BINDING AFFINITY PREDICTED BY RF-SCORE:    0.00 PKD
ROOT
HETATM    1  C   UNL     1      -8.559   7.280  66.222  1.00  0.00    -0.142 C  
HETATM    2  O   UNL     1      -9.384   6.143  66.466  1.00  0.00    -0.148 OA 
ENDROOT
BRANCH   2   3
HETATM    3  C   UNL     1      -9.761   5.970  67.769  1.00  0.00    -0.115 A  
HETATM    4  C   UNL     1      -8.807   5.388  68.603  1.00  0.00    -0.107 A  
HETATM    5  C   UNL     1      -9.094   5.151  69.951  1.00  0.00    -0.162 A  
HETATM    6  C   UNL     1     -10.341   5.508  70.481  1.00  0.00    -0.342 A  
HETATM    7  C   UNL     1     -11.284   6.117  69.644  1.00  0.00    -0.488 A  
HETATM    8  C   UNL     1     -10.990   6.357  68.299  1.00  0.00    -0.396 A  
BRANCH   6   9
HETATM    9  C   UNL     1     -10.617   5.214  71.921  1.00  0.00    -0.188 C  
HETATM   10  O   UNL     1     -10.491   4.060  72.340  1.00  0.00    -0.164 OA 
BRANCH   9  11
HETATM   11  C   UNL     1     -11.134   6.308  72.827  1.00  0.00    -0.284 C  
BRANCH  11  12
HETATM   12  C   UNL     1     -10.219   7.499  72.958  1.00  0.00    -0.306 C  
HETATM   13  O   UNL     1      -9.476   7.667  73.923  1.00  0.00    -0.275 OA 
BRANCH  12  14
HETATM   14  C   UNL     1     -10.232   8.524  71.881  1.00  0.00    -0.369 A  
HETATM   15  C   UNL     1     -11.428   9.205  71.654  1.00  0.00    -0.451 A  
HETATM   16  C   UNL     1     -11.530  10.128  70.614  1.00  0.00    -0.432 A  
HETATM   17  C   UNL     1     -10.441  10.408  69.773  1.00  0.00    -0.284 A  
HETATM   18  C   UNL     1      -9.117   8.820  71.093  1.00  0.00    -0.285 A  
HETATM   19  C   UNL     1      -9.224   9.756  70.054  1.00  0.00    -0.266 A  
BRANCH  17  20
HETATM   20  C   UNL     1     -10.566  11.359  68.568  1.00  0.00    -0.225 C  
HETATM   21  C   UNL     1     -11.663  12.434  68.754  1.00  0.00    -0.379 C  
HETATM   22  C   UNL     1      -9.233  12.094  68.324  1.00  0.00    -0.192 C  
HETATM   23  C   UNL     1     -10.936  10.554  67.302  1.00  0.00    -0.325 C  
ENDBRANCH  17  20
ENDBRANCH  12  14
ENDBRANCH  11  12
ENDBRANCH   9  11
ENDBRANCH   6   9
ENDBRANCH   2   3
TORSDOF 6
ENDMDL
MODEL       71
REMARK 921   NORMALIZED FREE ENERGY PREDICTED BY IDOCK:   -5.27 KCAL/MOL
REMARK 922        TOTAL FREE ENERGY PREDICTED BY IDOCK:   -8.13 KCAL/MOL
REMARK 923 INTER-LIGAND FREE ENERGY PREDICTED BY IDOCK:   -7.30 KCAL/MOL
REMARK 924 INTRA-LIGAND FREE ENERGY PREDICTED BY IDOCK:   -0.83 KCAL/MOL
REMARK 927      BINDING AFFINITY PREDICTED BY RF-SCORE:    0.00 PKD
ROOT
HETATM    1  C   UNL     1     -10.653  19.618  66.148  1.00  0.00    -0.483 C  
HETATM    2  O   UNL     1     -10.671  18.449  65.333  1.00  0.00    -0.594 OA 
ENDROOT
BRANCH   2   3
HETATM    3  C   UNL     1     -10.531  17.268  66.009  1.00  0.00    -0.282 A  
HETATM    4  C   UNL     1     -10.236  17.380  67.367  1.00  0.00    -0.326 A  
HETATM    5  C   UNL     1     -10.058  16.234  68.150  1.00  0.00    -0.244 A  
HETATM    6  C   UNL     1     -10.186  14.962  67.579  1.00  0.00    -0.233 A  
HETATM    7  C   UNL     1     -10.510  14.858  66.221  1.00  0.00    -0.306 A  
HETATM    8  C   UNL     1     -10.693  16.005  65.444  1.00  0.00    -0.399 A  
BRANCH   6   9
HETATM    9  C   UNL     1      -9.962  13.763  68.445  1.00  0.00    -0.229 C  
HETATM   10  O   UNL     1      -8.859  13.212  68.444  1.00  0.00    -0.175 OA 
BRANCH   9  11
HETATM   11  C   UNL     1     -11.110  13.185  69.240  1.00  0.00    -0.201 C  
BRANCH  11  12
HETATM   12  C   UNL     1     -11.528  11.798  68.823  1.00  0.00    -0.291 C  
HETATM   13  O   UNL     1     -12.258  11.583  67.857  1.00  0.00    -0.586 OA 
BRANCH  12  14
HETATM   14  C   UNL     1     -11.052  10.642  69.629  1.00  0.00    -0.342 A  
HETATM   15  C   UNL     1     -11.889  10.173  70.640  1.00  0.00    -0.431 A  
HETATM   16  C   UNL     1     -11.475   9.139  71.479  1.00  0.00    -0.437 A  
HETATM   17  C   UNL     1     -10.216   8.535  71.331  1.00  0.00    -0.303 A  
HETATM   18  C   UNL     1      -9.815  10.026  69.425  1.00  0.00    -0.240 A  
HETATM   19  C   UNL     1      -9.408   8.981  70.266  1.00  0.00    -0.227 A  
BRANCH  17  20
HETATM   20  C   UNL     1      -9.712   7.453  72.305  1.00  0.00    -0.191 C  
HETATM   21  C   UNL     1     -10.851   6.778  73.104  1.00  0.00    -0.315 C  
HETATM   22  C   UNL     1      -8.966   6.345  71.535  1.00  0.00    -0.144 C  
HETATM   23  C   UNL     1      -8.751   8.084  73.336  1.00  0.00    -0.323 C  
ENDBRANCH  17  20
ENDBRANCH  12  14
ENDBRANCH  11  12
ENDBRANCH   9  11
ENDBRANCH   6   9
ENDBRANCH   2   3
TORSDOF 6
ENDMDL
MODEL       72
REMARK 921   NORMALIZED FREE ENERGY PREDICTED BY IDOCK:   -5.27 KCAL/MOL
REMARK 922        TOTAL FREE ENERGY PREDICTED BY IDOCK:   -8.12 KCAL/MOL
REMARK 923 INTER-LIGAND FREE ENERGY PREDICTED BY IDOCK:   -7.10 KCAL/MOL
REMARK 924 INTRA-LIGAND FREE ENERGY PREDICTED BY IDOCK:   -1.02 KCAL/MOL
REMARK 927      BINDING AFFINITY PREDICTED BY RF-SCORE:    0.00 PKD
ROOT
HETATM    1  C   UNL     1      -6.756   8.048  71.975  1.00  0.00    -0.067 C  
HETATM    2  O   UNL     1      -7.815   7.094  71.944  1.00  0.00    -0.091 OA 
ENDROOT
BRANCH   2   3
HETATM    3  C   UNL     1      -9.075   7.625  71.976  1.00  0.00    -0.131 A  
HETATM    4  C   UNL     1      -9.305   8.691  71.108  1.00  0.00    -0.274 A  
HETATM    5  C   UNL     1     -10.555   9.318  71.071  1.00  0.00    -0.386 A  
HETATM    6  C   UNL     1     -11.593   8.872  71.899  1.00  0.00    -0.442 A  
HETATM    7  C   UNL     1     -11.362   7.784  72.748  1.00  0.00    -0.446 A  
HETATM    8  C   UNL     1     -10.114   7.157  72.777  1.00  0.00    -0.230 A  
BRANCH   6   9
HETATM    9  C   UNL     1     -12.906   9.586  71.847  1.00  0.00    -0.420 C  
HETATM   10  O   UNL     1     -13.800   9.271  72.636  1.00  0.00    -0.449 OA 
BRANCH   9  11
HETATM   11  C   UNL     1     -13.158  10.620  70.773  1.00  0.00    -0.299 C  
BRANCH  11  12
HETATM   12  C   UNL     1     -13.001  12.049  71.228  1.00  0.00    -0.217 C  
HETATM   13  O   UNL     1     -13.522  12.484  72.253  1.00  0.00    -0.556 OA 
BRANCH  12  14
HETATM   14  C   UNL     1     -12.197  12.975  70.387  1.00  0.00    -0.386 A  
HETATM   15  C   UNL     1     -12.038  14.284  70.841  1.00  0.00    -0.417 A  
HETATM   16  C   UNL     1     -11.356  15.224  70.069  1.00  0.00    -0.311 A  
HETATM   17  C   UNL     1     -10.804  14.886  68.822  1.00  0.00    -0.254 A  
HETATM   18  C   UNL     1     -11.614  12.597  69.176  1.00  0.00    -0.374 A  
HETATM   19  C   UNL     1     -10.922  13.544  68.407  1.00  0.00    -0.289 A  
BRANCH  17  20
HETATM   20  C   UNL     1     -10.125  15.934  67.921  1.00  0.00    -0.235 C  
HETATM   21  C   UNL     1      -8.599  16.033  68.149  1.00  0.00    -0.171 C  
HETATM   22  C   UNL     1     -10.351  15.590  66.435  1.00  0.00    -0.303 C  
HETATM   23  C   UNL     1     -10.716  17.332  68.208  1.00  0.00    -0.349 C  
ENDBRANCH  17  20
ENDBRANCH  12  14
ENDBRANCH  11  12
ENDBRANCH   9  11
ENDBRANCH   6   9
ENDBRANCH   2   3
TORSDOF 6
ENDMDL
MODEL       73
REMARK 921   NORMALIZED FREE ENERGY PREDICTED BY IDOCK:   -5.26 KCAL/MOL
REMARK 922        TOTAL FREE ENERGY PREDICTED BY IDOCK:   -8.11 KCAL/MOL
REMARK 923 INTER-LIGAND FREE ENERGY PREDICTED BY IDOCK:   -7.08 KCAL/MOL
REMARK 924 INTRA-LIGAND FREE ENERGY PREDICTED BY IDOCK:   -1.03 KCAL/MOL
REMARK 927      BINDING AFFINITY PREDICTED BY RF-SCORE:    0.00 PKD
ROOT
HETATM    1  C   UNL     1     -12.436  14.965  64.363  1.00  0.00    -0.207 C  
HETATM    2  O   UNL     1     -12.922  13.714  64.841  1.00  0.00    -0.706 OA 
ENDROOT
BRANCH   2   3
HETATM    3  C   UNL     1     -11.982  12.726  64.940  1.00  0.00    -0.402 A  
HETATM    4  C   UNL     1     -11.500  12.227  63.731  1.00  0.00    -0.545 A  
HETATM    5  C   UNL     1     -10.546  11.203  63.717  1.00  0.00    -0.422 A  
HETATM    6  C   UNL     1     -10.056  10.678  64.919  1.00  0.00    -0.402 A  
HETATM    7  C   UNL     1     -10.524  11.204  66.129  1.00  0.00    -0.307 A  
HETATM    8  C   UNL     1     -11.473  12.230  66.138  1.00  0.00    -0.429 A  
BRANCH   6   9
HETATM    9  C   UNL     1      -9.056   9.567  64.860  1.00  0.00    -0.223 C  
HETATM   10  O   UNL     1      -8.192   9.576  63.980  1.00  0.00    -0.139 OA 
BRANCH   9  11
HETATM   11  C   UNL     1      -9.168   8.402  65.816  1.00  0.00    -0.175 C  
BRANCH  11  12
HETATM   12  C   UNL     1      -8.514   8.624  67.156  1.00  0.00    -0.114 C  
HETATM   13  O   UNL     1      -7.311   8.847  67.283  1.00  0.00    -0.080 OA 
BRANCH  12  14
HETATM   14  C   UNL     1      -9.359   8.549  68.378  1.00  0.00    -0.137 A  
HETATM   15  C   UNL     1      -9.996   7.339  68.647  1.00  0.00    -0.169 A  
HETATM   16  C   UNL     1     -10.859   7.220  69.737  1.00  0.00    -0.251 A  
HETATM   17  C   UNL     1     -11.107   8.303  70.596  1.00  0.00    -0.269 A  
HETATM   18  C   UNL     1      -9.546   9.628  69.245  1.00  0.00    -0.190 A  
HETATM   19  C   UNL     1     -10.409   9.500  70.343  1.00  0.00    -0.334 A  
BRANCH  17  20
HETATM   20  C   UNL     1     -12.123   8.211  71.749  1.00  0.00    -0.357 C  
HETATM   21  C   UNL     1     -13.210   7.135  71.516  1.00  0.00    -0.419 C  
HETATM   22  C   UNL     1     -11.407   7.867  73.070  1.00  0.00    -0.298 C  
HETATM   23  C   UNL     1     -12.855   9.561  71.911  1.00  0.00    -0.508 C  
ENDBRANCH  17  20
ENDBRANCH  12  14
ENDBRANCH  11  12
ENDBRANCH   9  11
ENDBRANCH   6   9
ENDBRANCH   2   3
TORSDOF 6
ENDMDL
MODEL       74
REMARK 921   NORMALIZED FREE ENERGY PREDICTED BY IDOCK:   -5.26 KCAL/MOL
REMARK 922        TOTAL FREE ENERGY PREDICTED BY IDOCK:   -8.11 KCAL/MOL
REMARK 923 INTER-LIGAND FREE ENERGY PREDICTED BY IDOCK:   -7.13 KCAL/MOL
REMARK 924 INTRA-LIGAND FREE ENERGY PREDICTED BY IDOCK:   -0.98 KCAL/MOL
REMARK 927      BINDING AFFINITY PREDICTED BY RF-SCORE:    0.00 PKD
ROOT
HETATM    1  C   UNL     1      -8.549  19.162  68.432  1.00  0.00    -0.352 C  
HETATM    2  O   UNL     1      -7.855  18.335  67.503  1.00  0.00    -0.224 OA 
ENDROOT
BRANCH   2   3
HETATM    3  C   UNL     1      -8.486  17.164  67.184  1.00  0.00    -0.200 A  
HETATM    4  C   UNL     1      -9.793  17.290  66.715  1.00  0.00    -0.296 A  
HETATM    5  C   UNL     1     -10.536  16.155  66.375  1.00  0.00    -0.304 A  
HETATM    6  C   UNL     1      -9.968  14.879  66.490  1.00  0.00    -0.277 A  
HETATM    7  C   UNL     1      -8.647  14.763  66.935  1.00  0.00    -0.254 A  
HETATM    8  C   UNL     1      -7.906  15.900  67.268  1.00  0.00    -0.218 A  
BRANCH   6   9
HETATM    9  C   UNL     1     -10.805  13.690  66.139  1.00  0.00    -0.279 C  
HETATM   10  O   UNL     1     -10.528  13.027  65.137  1.00  0.00    -0.301 OA 
BRANCH   9  11
HETATM   11  C   UNL     1     -12.033  13.366  66.960  1.00  0.00    -0.429 C  
BRANCH  11  12
HETATM   12  C   UNL     1     -11.808  13.359  68.450  1.00  0.00    -0.366 C  
HETATM   13  O   UNL     1     -11.889  14.371  69.143  1.00  0.00    -0.291 OA 
BRANCH  12  14
HETATM   14  C   UNL     1     -11.453  12.072  69.106  1.00  0.00    -0.357 A  
HETATM   15  C   UNL     1     -12.281  11.622  70.134  1.00  0.00    -0.367 A  
HETATM   16  C   UNL     1     -11.968  10.460  70.839  1.00  0.00    -0.478 A  
HETATM   17  C   UNL     1     -10.822   9.706  70.537  1.00  0.00    -0.371 A  
HETATM   18  C   UNL     1     -10.335  11.314  68.749  1.00  0.00    -0.223 A  
HETATM   19  C   UNL     1     -10.030  10.142  69.456  1.00  0.00    -0.257 A  
BRANCH  17  20
HETATM   20  C   UNL     1     -10.418   8.472  71.364  1.00  0.00    -0.305 C  
HETATM   21  C   UNL     1      -8.989   8.573  71.945  1.00  0.00    -0.301 C  
HETATM   22  C   UNL     1     -11.387   8.278  72.547  1.00  0.00    -0.455 C  
HETATM   23  C   UNL     1     -10.454   7.211  70.473  1.00  0.00    -0.228 C  
ENDBRANCH  17  20
ENDBRANCH  12  14
ENDBRANCH  11  12
ENDBRANCH   9  11
ENDBRANCH   6   9
ENDBRANCH   2   3
TORSDOF 6
ENDMDL
MODEL       75
REMARK 921   NORMALIZED FREE ENERGY PREDICTED BY IDOCK:   -5.25 KCAL/MOL
REMARK 922        TOTAL FREE ENERGY PREDICTED BY IDOCK:   -8.10 KCAL/MOL
REMARK 923 INTER-LIGAND FREE ENERGY PREDICTED BY IDOCK:   -6.77 KCAL/MOL
REMARK 924 INTRA-LIGAND FREE ENERGY PREDICTED BY IDOCK:   -1.33 KCAL/MOL
REMARK 927      BINDING AFFINITY PREDICTED BY RF-SCORE:    0.00 PKD
ROOT
HETATM    1  C   UNL     1     -10.409  13.797  68.294  1.00  0.00    -0.247 C  
HETATM    2  O   UNL     1     -11.659  13.657  68.964  1.00  0.00    -0.267 OA 
ENDROOT
BRANCH   2   3
HETATM    3  C   UNL     1     -11.827  12.478  69.638  1.00  0.00    -0.314 A  
HETATM    4  C   UNL     1     -12.613  12.546  70.788  1.00  0.00    -0.299 A  
HETATM    5  C   UNL     1     -12.837  11.402  71.561  1.00  0.00    -0.508 A  
HETATM    6  C   UNL     1     -12.284  10.173  71.180  1.00  0.00    -0.490 A  
HETATM    7  C   UNL     1     -11.520  10.107  70.010  1.00  0.00    -0.344 A  
HETATM    8  C   UNL     1     -11.303  11.252  69.237  1.00  0.00    -0.354 A  
BRANCH   6   9
HETATM    9  C   UNL     1     -12.527   8.979  72.049  1.00  0.00    -0.390 C  
HETATM   10  O   UNL     1     -13.669   8.744  72.450  1.00  0.00    -0.421 OA 
BRANCH   9  11
HETATM   11  C   UNL     1     -11.363   8.129  72.500  1.00  0.00    -0.469 C  
BRANCH  11  12
HETATM   12  C   UNL     1     -11.332   6.741  71.912  1.00  0.00    -0.271 C  
HETATM   13  O   UNL     1     -11.804   5.762  72.485  1.00  0.00    -0.297 OA 
BRANCH  12  14
HETATM   14  C   UNL     1     -10.684   6.548  70.586  1.00  0.00    -0.297 A  
HETATM   15  C   UNL     1     -11.517   6.350  69.485  1.00  0.00    -0.412 A  
HETATM   16  C   UNL     1     -10.975   6.093  68.226  1.00  0.00    -0.397 A  
HETATM   17  C   UNL     1      -9.586   6.033  68.024  1.00  0.00    -0.120 A  
HETATM   18  C   UNL     1      -9.299   6.546  70.406  1.00  0.00    -0.166 A  
HETATM   19  C   UNL     1      -8.761   6.295  69.136  1.00  0.00    -0.123 A  
BRANCH  17  20
HETATM   20  C   UNL     1      -8.977   5.663  66.659  1.00  0.00    -0.120 C  
HETATM   21  C   UNL     1      -9.918   4.796  65.789  1.00  0.00    -0.225 C  
HETATM   22  C   UNL     1      -8.648   6.937  65.856  1.00  0.00    -0.152 C  
HETATM   23  C   UNL     1      -7.680   4.851  66.867  1.00  0.00    -0.092 C  
ENDBRANCH  17  20
ENDBRANCH  12  14
ENDBRANCH  11  12
ENDBRANCH   9  11
ENDBRANCH   6   9
ENDBRANCH   2   3
TORSDOF 6
ENDMDL
MODEL       76
REMARK 921   NORMALIZED FREE ENERGY PREDICTED BY IDOCK:   -5.24 KCAL/MOL
REMARK 922        TOTAL FREE ENERGY PREDICTED BY IDOCK:   -8.08 KCAL/MOL
REMARK 923 INTER-LIGAND FREE ENERGY PREDICTED BY IDOCK:   -6.48 KCAL/MOL
REMARK 924 INTRA-LIGAND FREE ENERGY PREDICTED BY IDOCK:   -1.60 KCAL/MOL
REMARK 927      BINDING AFFINITY PREDICTED BY RF-SCORE:    0.00 PKD
ROOT
HETATM    1  C   UNL     1     -11.093  14.711  65.688  1.00  0.00    -0.338 C  
HETATM    2  O   UNL     1     -11.473  14.925  67.044  1.00  0.00    -0.353 OA 
ENDROOT
BRANCH   2   3
HETATM    3  C   UNL     1     -11.638  13.789  67.787  1.00  0.00    -0.346 A  
HETATM    4  C   UNL     1     -11.869  13.984  69.148  1.00  0.00    -0.391 A  
HETATM    5  C   UNL     1     -12.037  12.889  70.003  1.00  0.00    -0.357 A  
HETATM    6  C   UNL     1     -11.988  11.584  69.496  1.00  0.00    -0.402 A  
HETATM    7  C   UNL     1     -11.783  11.397  68.124  1.00  0.00    -0.355 A  
HETATM    8  C   UNL     1     -11.622  12.494  67.273  1.00  0.00    -0.434 A  
BRANCH   6   9
HETATM    9  C   UNL     1     -12.147  10.441  70.447  1.00  0.00    -0.315 C  
HETATM   10  O   UNL     1     -13.266  10.171  70.890  1.00  0.00    -0.395 OA 
BRANCH   9  11
HETATM   11  C   UNL     1     -10.928   9.687  70.928  1.00  0.00    -0.412 C  
BRANCH  11  12
HETATM   12  C   UNL     1     -10.645   8.409  70.180  1.00  0.00    -0.233 C  
HETATM   13  O   UNL     1     -10.883   7.296  70.645  1.00  0.00    -0.231 OA 
BRANCH  12  14
HETATM   14  C   UNL     1     -10.031   8.501  68.828  1.00  0.00    -0.197 A  
HETATM   15  C   UNL     1      -8.909   9.315  68.684  1.00  0.00    -0.132 A  
HETATM   16  C   UNL     1      -8.326   9.502  67.431  1.00  0.00    -0.125 A  
HETATM   17  C   UNL     1      -8.839   8.877  66.283  1.00  0.00    -0.187 A  
HETATM   18  C   UNL     1     -10.532   7.825  67.714  1.00  0.00    -0.277 A  
HETATM   19  C   UNL     1      -9.937   8.010  66.457  1.00  0.00    -0.283 A  
BRANCH  17  20
HETATM   20  C   UNL     1      -8.260   9.144  64.882  1.00  0.00    -0.154 C  
HETATM   21  C   UNL     1      -9.251   9.872  63.944  1.00  0.00    -0.295 C  
HETATM   22  C   UNL     1      -6.992  10.015  64.983  1.00  0.00    -0.135 C  
HETATM   23  C   UNL     1      -7.898   7.805  64.202  1.00  0.00    -0.133 C  
ENDBRANCH  17  20
ENDBRANCH  12  14
ENDBRANCH  11  12
ENDBRANCH   9  11
ENDBRANCH   6   9
ENDBRANCH   2   3
TORSDOF 6
ENDMDL
MODEL       77
REMARK 921   NORMALIZED FREE ENERGY PREDICTED BY IDOCK:   -5.23 KCAL/MOL
REMARK 922        TOTAL FREE ENERGY PREDICTED BY IDOCK:   -8.07 KCAL/MOL
REMARK 923 INTER-LIGAND FREE ENERGY PREDICTED BY IDOCK:   -7.04 KCAL/MOL
REMARK 924 INTRA-LIGAND FREE ENERGY PREDICTED BY IDOCK:   -1.03 KCAL/MOL
REMARK 927      BINDING AFFINITY PREDICTED BY RF-SCORE:    0.00 PKD
ROOT
HETATM    1  C   UNL     1     -12.344   7.163  71.995  1.00  0.00    -0.263 C  
HETATM    2  O   UNL     1     -12.366   8.430  72.645  1.00  0.00    -0.365 OA 
ENDROOT
BRANCH   2   3
HETATM    3  C   UNL     1     -12.266   9.511  71.813  1.00  0.00    -0.387 A  
HETATM    4  C   UNL     1     -11.287   9.425  70.824  1.00  0.00    -0.363 A  
HETATM    5  C   UNL     1     -11.089  10.481  69.928  1.00  0.00    -0.371 A  
HETATM    6  C   UNL     1     -11.883  11.632  70.008  1.00  0.00    -0.435 A  
HETATM    7  C   UNL     1     -12.883  11.699  70.985  1.00  0.00    -0.339 A  
HETATM    8  C   UNL     1     -13.081  10.639  71.874  1.00  0.00    -0.563 A  
BRANCH   6   9
HETATM    9  C   UNL     1     -11.622  12.748  69.047  1.00  0.00    -0.316 C  
HETATM   10  O   UNL     1     -12.278  13.789  69.134  1.00  0.00    -0.344 OA 
BRANCH   9  11
HETATM   11  C   UNL     1     -10.627  12.558  67.926  1.00  0.00    -0.233 C  
BRANCH  11  12
HETATM   12  C   UNL     1     -11.211  11.992  66.656  1.00  0.00    -0.327 C  
HETATM   13  O   UNL     1     -12.325  12.301  66.238  1.00  0.00    -0.556 OA 
BRANCH  12  14
HETATM   14  C   UNL     1     -10.410  11.002  65.888  1.00  0.00    -0.315 A  
HETATM   15  C   UNL     1      -9.937   9.884  66.575  1.00  0.00    -0.291 A  
HETATM   16  C   UNL     1      -9.121   8.953  65.934  1.00  0.00    -0.271 A  
HETATM   17  C   UNL     1      -8.756   9.102  64.586  1.00  0.00    -0.199 A  
HETATM   18  C   UNL     1     -10.106  11.150  64.533  1.00  0.00    -0.364 A  
HETATM   19  C   UNL     1      -9.292  10.205  63.892  1.00  0.00    -0.336 A  
BRANCH  17  20
HETATM   20  C   UNL     1      -7.786   8.129  63.892  1.00  0.00    -0.138 C  
HETATM   21  C   UNL     1      -6.302   8.406  64.231  1.00  0.00    -0.067 C  
HETATM   22  C   UNL     1      -8.093   6.677  64.308  1.00  0.00    -0.044 C  
HETATM   23  C   UNL     1      -7.927   8.254  62.359  1.00  0.00    -0.156 C  
ENDBRANCH  17  20
ENDBRANCH  12  14
ENDBRANCH  11  12
ENDBRANCH   9  11
ENDBRANCH   6   9
ENDBRANCH   2   3
TORSDOF 6
ENDMDL
MODEL       78
REMARK 921   NORMALIZED FREE ENERGY PREDICTED BY IDOCK:   -5.20 KCAL/MOL
REMARK 922        TOTAL FREE ENERGY PREDICTED BY IDOCK:   -8.02 KCAL/MOL
REMARK 923 INTER-LIGAND FREE ENERGY PREDICTED BY IDOCK:   -7.19 KCAL/MOL
REMARK 924 INTRA-LIGAND FREE ENERGY PREDICTED BY IDOCK:   -0.83 KCAL/MOL
REMARK 927      BINDING AFFINITY PREDICTED BY RF-SCORE:    0.00 PKD
ROOT
HETATM    1  C   UNL     1     -10.105  17.306  68.898  1.00  0.00    -0.331 C  
HETATM    2  O   UNL     1     -11.029  16.520  68.151  1.00  0.00    -0.346 OA 
ENDROOT
BRANCH   2   3
HETATM    3  C   UNL     1     -11.496  15.406  68.793  1.00  0.00    -0.341 A  
HETATM    4  C   UNL     1     -11.977  15.610  70.086  1.00  0.00    -0.387 A  
HETATM    5  C   UNL     1     -12.464  14.536  70.838  1.00  0.00    -0.415 A  
HETATM    6  C   UNL     1     -12.484  13.245  70.294  1.00  0.00    -0.255 A  
HETATM    7  C   UNL     1     -12.025  13.053  68.986  1.00  0.00    -0.312 A  
HETATM    8  C   UNL     1     -11.545  14.131  68.236  1.00  0.00    -0.356 A  
BRANCH   6   9
HETATM    9  C   UNL     1     -12.989  12.121  71.142  1.00  0.00    -0.148 C  
HETATM   10  O   UNL     1     -13.300  12.337  72.315  1.00  0.00    -0.515 OA 
BRANCH   9  11
HETATM   11  C   UNL     1     -13.028  10.717  70.583  1.00  0.00    -0.343 C  
BRANCH  11  12
HETATM   12  C   UNL     1     -12.953   9.626  71.620  1.00  0.00    -0.407 C  
HETATM   13  O   UNL     1     -13.926   9.261  72.277  1.00  0.00    -0.440 OA 
BRANCH  12  14
HETATM   14  C   UNL     1     -11.638   8.977  71.872  1.00  0.00    -0.441 A  
HETATM   15  C   UNL     1     -11.604   7.923  72.785  1.00  0.00    -0.387 A  
HETATM   16  C   UNL     1     -10.393   7.317  73.120  1.00  0.00    -0.359 A  
HETATM   17  C   UNL     1      -9.180   7.737  72.551  1.00  0.00    -0.227 A  
HETATM   18  C   UNL     1     -10.454   9.382  71.251  1.00  0.00    -0.385 A  
HETATM   19  C   UNL     1      -9.242   8.762  71.586  1.00  0.00    -0.333 A  
BRANCH  17  20
HETATM   20  C   UNL     1      -7.829   7.135  72.978  1.00  0.00    -0.109 C  
HETATM   21  C   UNL     1      -7.976   5.830  73.794  1.00  0.00    -0.107 C  
HETATM   22  C   UNL     1      -6.970   6.813  71.739  1.00  0.00    -0.071 C  
HETATM   23  C   UNL     1      -7.068   8.140  73.870  1.00  0.00    -0.179 C  
ENDBRANCH  17  20
ENDBRANCH  12  14
ENDBRANCH  11  12
ENDBRANCH   9  11
ENDBRANCH   6   9
ENDBRANCH   2   3
TORSDOF 6
ENDMDL
MODEL       79
REMARK 921   NORMALIZED FREE ENERGY PREDICTED BY IDOCK:   -5.20 KCAL/MOL
REMARK 922        TOTAL FREE ENERGY PREDICTED BY IDOCK:   -8.02 KCAL/MOL
REMARK 923 INTER-LIGAND FREE ENERGY PREDICTED BY IDOCK:   -6.87 KCAL/MOL
REMARK 924 INTRA-LIGAND FREE ENERGY PREDICTED BY IDOCK:   -1.15 KCAL/MOL
REMARK 927      BINDING AFFINITY PREDICTED BY RF-SCORE:    0.00 PKD
ROOT
HETATM    1  C   UNL     1     -13.448   8.988  72.420  1.00  0.00    -0.470 C  
HETATM    2  O   UNL     1     -12.271   8.185  72.476  1.00  0.00    -0.344 OA 
ENDROOT
BRANCH   2   3
HETATM    3  C   UNL     1     -11.739   7.850  71.262  1.00  0.00    -0.287 A  
HETATM    4  C   UNL     1     -11.044   8.865  70.606  1.00  0.00    -0.306 A  
HETATM    5  C   UNL     1     -10.472   8.635  69.350  1.00  0.00    -0.224 A  
HETATM    6  C   UNL     1     -10.580   7.376  68.745  1.00  0.00    -0.189 A  
HETATM    7  C   UNL     1     -11.255   6.354  69.423  1.00  0.00    -0.459 A  
HETATM    8  C   UNL     1     -11.820   6.587  70.680  1.00  0.00    -0.398 A  
BRANCH   6   9
HETATM    9  C   UNL     1      -9.975   7.179  67.392  1.00  0.00    -0.172 C  
HETATM   10  O   UNL     1     -10.487   6.373  66.610  1.00  0.00    -0.212 OA 
BRANCH   9  11
HETATM   11  C   UNL     1      -8.696   7.896  67.027  1.00  0.00    -0.132 C  
BRANCH  11  12
HETATM   12  C   UNL     1      -8.791   8.767  65.801  1.00  0.00    -0.195 C  
HETATM   13  O   UNL     1      -8.289   8.458  64.722  1.00  0.00    -0.163 OA 
BRANCH  12  14
HETATM   14  C   UNL     1      -9.507  10.066  65.908  1.00  0.00    -0.260 A  
HETATM   15  C   UNL     1     -10.260  10.480  64.809  1.00  0.00    -0.373 A  
HETATM   16  C   UNL     1     -10.899  11.719  64.816  1.00  0.00    -0.358 A  
HETATM   17  C   UNL     1     -10.815  12.582  65.921  1.00  0.00    -0.302 A  
HETATM   18  C   UNL     1      -9.448  10.880  67.042  1.00  0.00    -0.184 A  
HETATM   19  C   UNL     1     -10.100  12.122  67.045  1.00  0.00    -0.219 A  
BRANCH  17  20
HETATM   20  C   UNL     1     -11.442  13.988  65.906  1.00  0.00    -0.330 C  
HETATM   21  C   UNL     1     -11.615  14.590  67.321  1.00  0.00    -0.405 C  
HETATM   22  C   UNL     1     -10.562  14.959  65.094  1.00  0.00    -0.450 C  
HETATM   23  C   UNL     1     -12.847  13.928  65.268  1.00  0.00    -0.437 C  
ENDBRANCH  17  20
ENDBRANCH  12  14
ENDBRANCH  11  12
ENDBRANCH   9  11
ENDBRANCH   6   9
ENDBRANCH   2   3
TORSDOF 6
ENDMDL
MODEL       80
REMARK 921   NORMALIZED FREE ENERGY PREDICTED BY IDOCK:   -5.18 KCAL/MOL
REMARK 922        TOTAL FREE ENERGY PREDICTED BY IDOCK:   -8.00 KCAL/MOL
REMARK 923 INTER-LIGAND FREE ENERGY PREDICTED BY IDOCK:   -6.74 KCAL/MOL
REMARK 924 INTRA-LIGAND FREE ENERGY PREDICTED BY IDOCK:   -1.26 KCAL/MOL
REMARK 927      BINDING AFFINITY PREDICTED BY RF-SCORE:    0.00 PKD
ROOT
HETATM    1  C   UNL     1     -12.837  15.521  71.254  1.00  0.00    -0.475 C  
HETATM    2  O   UNL     1     -11.693  16.148  70.683  1.00  0.00    -0.368 OA 
ENDROOT
BRANCH   2   3
HETATM    3  C   UNL     1     -11.190  15.534  69.569  1.00  0.00    -0.299 A  
HETATM    4  C   UNL     1     -12.134  15.080  68.650  1.00  0.00    -0.198 A  
HETATM    5  C   UNL     1     -11.729  14.424  67.483  1.00  0.00    -0.416 A  
HETATM    6  C   UNL     1     -10.367  14.229  67.219  1.00  0.00    -0.260 A  
HETATM    7  C   UNL     1      -9.424  14.712  68.133  1.00  0.00    -0.212 A  
HETATM    8  C   UNL     1      -9.833  15.372  69.296  1.00  0.00    -0.262 A  
BRANCH   6   9
HETATM    9  C   UNL     1      -9.978  13.501  65.972  1.00  0.00    -0.299 C  
HETATM   10  O   UNL     1     -10.370  13.917  64.879  1.00  0.00    -0.397 OA 
BRANCH   9  11
HETATM   11  C   UNL     1      -9.188  12.216  66.067  1.00  0.00    -0.119 C  
BRANCH  11  12
HETATM   12  C   UNL     1     -10.010  10.960  65.927  1.00  0.00    -0.243 C  
HETATM   13  O   UNL     1     -10.452  10.568  64.849  1.00  0.00    -0.301 OA 
BRANCH  12  14
HETATM   14  C   UNL     1     -10.317  10.174  67.152  1.00  0.00    -0.295 A  
HETATM   15  C   UNL     1     -11.032  10.813  68.165  1.00  0.00    -0.308 A  
HETATM   16  C   UNL     1     -11.292  10.158  69.369  1.00  0.00    -0.233 A  
HETATM   17  C   UNL     1     -10.855   8.843  69.597  1.00  0.00    -0.186 A  
HETATM   18  C   UNL     1      -9.914   8.849  67.331  1.00  0.00    -0.267 A  
HETATM   19  C   UNL     1     -10.187   8.193  68.541  1.00  0.00    -0.233 A  
BRANCH  17  20
HETATM   20  C   UNL     1     -11.059   8.141  70.952  1.00  0.00    -0.280 C  
HETATM   21  C   UNL     1      -9.729   7.793  71.662  1.00  0.00    -0.200 C  
HETATM   22  C   UNL     1     -11.871   9.040  71.906  1.00  0.00    -0.447 C  
HETATM   23  C   UNL     1     -11.819   6.813  70.744  1.00  0.00    -0.446 C  
ENDBRANCH  17  20
ENDBRANCH  12  14
ENDBRANCH  11  12
ENDBRANCH   9  11
ENDBRANCH   6   9
ENDBRANCH   2   3
TORSDOF 6
ENDMDL
MODEL       81
REMARK 921   NORMALIZED FREE ENERGY PREDICTED BY IDOCK:   -5.14 KCAL/MOL
REMARK 922        TOTAL FREE ENERGY PREDICTED BY IDOCK:   -7.95 KCAL/MOL
REMARK 923 INTER-LIGAND FREE ENERGY PREDICTED BY IDOCK:   -7.83 KCAL/MOL
REMARK 924 INTRA-LIGAND FREE ENERGY PREDICTED BY IDOCK:   -0.12 KCAL/MOL
REMARK 927      BINDING AFFINITY PREDICTED BY RF-SCORE:    0.00 PKD
ROOT
HETATM    1  C   UNL     1     -10.659   6.774  66.964  1.00  0.00    -0.335 C  
HETATM    2  O   UNL     1      -9.732   7.814  67.264  1.00  0.00    -0.149 OA 
ENDROOT
BRANCH   2   3
HETATM    3  C   UNL     1     -10.128   9.069  66.895  1.00  0.00    -0.267 A  
HETATM    4  C   UNL     1      -9.732   9.479  65.623  1.00  0.00    -0.361 A  
HETATM    5  C   UNL     1     -10.071  10.751  65.151  1.00  0.00    -0.363 A  
HETATM    6  C   UNL     1     -10.824  11.623  65.948  1.00  0.00    -0.339 A  
HETATM    7  C   UNL     1     -11.241  11.194  67.213  1.00  0.00    -0.347 A  
HETATM    8  C   UNL     1     -10.905   9.920  67.679  1.00  0.00    -0.318 A  
BRANCH   6   9
HETATM    9  C   UNL     1     -11.143  12.984  65.415  1.00  0.00    -0.275 C  
HETATM   10  O   UNL     1     -10.473  13.445  64.488  1.00  0.00    -0.404 OA 
BRANCH   9  11
HETATM   11  C   UNL     1     -12.217  13.817  66.075  1.00  0.00    -0.495 C  
BRANCH  11  12
HETATM   12  C   UNL     1     -11.825  14.410  67.404  1.00  0.00    -0.400 C  
HETATM   13  O   UNL     1     -12.074  13.866  68.478  1.00  0.00    -0.362 OA 
BRANCH  12  14
HETATM   14  C   UNL     1     -11.125  15.722  67.415  1.00  0.00    -0.235 A  
HETATM   15  C   UNL     1     -10.436  16.094  66.260  1.00  0.00    -0.321 A  
HETATM   16  C   UNL     1      -9.700  17.278  66.227  1.00  0.00    -0.282 A  
HETATM   17  C   UNL     1      -9.633  18.132  67.339  1.00  0.00    -0.275 A  
HETATM   18  C   UNL     1     -11.119  16.577  68.519  1.00  0.00    -0.335 A  
HETATM   19  C   UNL     1     -10.383  17.770  68.476  1.00  0.00    -0.366 A  
BRANCH  17  20
HETATM   20  C   UNL     1      -8.753  19.396  67.345  1.00  0.00    -0.343 C  
HETATM   21  C   UNL     1      -7.937  19.562  68.648  1.00  0.00    -0.381 C  
HETATM   22  C   UNL     1      -7.752  19.358  66.173  1.00  0.00    -0.314 C  
HETATM   23  C   UNL     1      -9.641  20.652  67.207  1.00  0.00    -0.558 C  
ENDBRANCH  17  20
ENDBRANCH  12  14
ENDBRANCH  11  12
ENDBRANCH   9  11
ENDBRANCH   6   9
ENDBRANCH   2   3
TORSDOF 6
ENDMDL
MODEL       82
REMARK 921   NORMALIZED FREE ENERGY PREDICTED BY IDOCK:   -5.13 KCAL/MOL
REMARK 922        TOTAL FREE ENERGY PREDICTED BY IDOCK:   -7.93 KCAL/MOL
REMARK 923 INTER-LIGAND FREE ENERGY PREDICTED BY IDOCK:   -7.18 KCAL/MOL
REMARK 924 INTRA-LIGAND FREE ENERGY PREDICTED BY IDOCK:   -0.76 KCAL/MOL
REMARK 927      BINDING AFFINITY PREDICTED BY RF-SCORE:    0.00 PKD
ROOT
HETATM    1  C   UNL     1      -9.254  18.515  67.955  1.00  0.00    -0.290 C  
HETATM    2  O   UNL     1     -10.501  17.975  68.382  1.00  0.00    -0.366 OA 
ENDROOT
BRANCH   2   3
HETATM    3  C   UNL     1     -10.662  16.636  68.155  1.00  0.00    -0.349 A  
HETATM    4  C   UNL     1     -11.502  15.968  69.045  1.00  0.00    -0.360 A  
HETATM    5  C   UNL     1     -11.725  14.593  68.913  1.00  0.00    -0.343 A  
HETATM    6  C   UNL     1     -11.115  13.875  67.876  1.00  0.00    -0.278 A  
HETATM    7  C   UNL     1     -10.295  14.558  66.970  1.00  0.00    -0.263 A  
HETATM    8  C   UNL     1     -10.080  15.933  67.102  1.00  0.00    -0.264 A  
BRANCH   6   9
HETATM    9  C   UNL     1     -11.359  12.402  67.785  1.00  0.00    -0.299 C  
HETATM   10  O   UNL     1     -12.125  11.966  66.923  1.00  0.00    -0.599 OA 
BRANCH   9  11
HETATM   11  C   UNL     1     -10.741  11.474  68.804  1.00  0.00    -0.247 C  
BRANCH  11  12
HETATM   12  C   UNL     1     -11.692  10.980  69.864  1.00  0.00    -0.346 C  
HETATM   13  O   UNL     1     -12.721  11.580  70.169  1.00  0.00    -0.107 OA 
BRANCH  12  14
HETATM   14  C   UNL     1     -11.359   9.722  70.584  1.00  0.00    -0.401 A  
HETATM   15  C   UNL     1     -12.046   9.457  71.769  1.00  0.00    -0.454 A  
HETATM   16  C   UNL     1     -11.734   8.331  72.531  1.00  0.00    -0.451 A  
HETATM   17  C   UNL     1     -10.733   7.430  72.132  1.00  0.00    -0.262 A  
HETATM   18  C   UNL     1     -10.395   8.816  70.136  1.00  0.00    -0.225 A  
HETATM   19  C   UNL     1     -10.092   7.682  70.902  1.00  0.00    -0.194 A  
BRANCH  17  20
HETATM   20  C   UNL     1     -10.318   6.233  73.007  1.00  0.00    -0.230 C  
HETATM   21  C   UNL     1      -9.053   5.511  72.487  1.00  0.00    -0.140 C  
HETATM   22  C   UNL     1     -10.028   6.697  74.448  1.00  0.00    -0.359 C  
HETATM   23  C   UNL     1     -11.454   5.187  73.035  1.00  0.00    -0.349 C  
ENDBRANCH  17  20
ENDBRANCH  12  14
ENDBRANCH  11  12
ENDBRANCH   9  11
ENDBRANCH   6   9
ENDBRANCH   2   3
TORSDOF 6
ENDMDL
MODEL       83
REMARK 921   NORMALIZED FREE ENERGY PREDICTED BY IDOCK:   -5.12 KCAL/MOL
REMARK 922        TOTAL FREE ENERGY PREDICTED BY IDOCK:   -7.92 KCAL/MOL
REMARK 923 INTER-LIGAND FREE ENERGY PREDICTED BY IDOCK:   -6.63 KCAL/MOL
REMARK 924 INTRA-LIGAND FREE ENERGY PREDICTED BY IDOCK:   -1.29 KCAL/MOL
REMARK 927      BINDING AFFINITY PREDICTED BY RF-SCORE:    0.00 PKD
ROOT
HETATM    1  C   UNL     1     -11.698  15.521  69.596  1.00  0.00    -0.357 C  
HETATM    2  O   UNL     1     -11.776  15.715  68.186  1.00  0.00    -0.331 OA 
ENDROOT
BRANCH   2   3
HETATM    3  C   UNL     1     -11.276  14.690  67.432  1.00  0.00    -0.342 A  
HETATM    4  C   UNL     1     -12.192  14.052  66.596  1.00  0.00    -0.463 A  
HETATM    5  C   UNL     1     -11.791  12.980  65.792  1.00  0.00    -0.453 A  
HETATM    6  C   UNL     1     -10.459  12.545  65.808  1.00  0.00    -0.296 A  
HETATM    7  C   UNL     1      -9.540  13.208  66.629  1.00  0.00    -0.260 A  
HETATM    8  C   UNL     1      -9.944  14.282  67.427  1.00  0.00    -0.242 A  
BRANCH   6   9
HETATM    9  C   UNL     1     -10.077  11.379  64.952  1.00  0.00    -0.274 C  
HETATM   10  O   UNL     1     -10.868  10.967  64.100  1.00  0.00    -0.361 OA 
BRANCH   9  11
HETATM   11  C   UNL     1      -8.770  10.662  65.198  1.00  0.00    -0.196 C  
BRANCH  11  12
HETATM   12  C   UNL     1      -8.914   9.263  65.741  1.00  0.00    -0.192 C  
HETATM   13  O   UNL     1      -8.635   8.260  65.086  1.00  0.00    -0.165 OA 
BRANCH  12  14
HETATM   14  C   UNL     1      -9.436   9.089  67.123  1.00  0.00    -0.196 A  
HETATM   15  C   UNL     1     -10.152   7.925  67.399  1.00  0.00    -0.292 A  
HETATM   16  C   UNL     1     -10.730   7.731  68.654  1.00  0.00    -0.084 A  
HETATM   17  C   UNL     1     -10.605   8.688  69.675  1.00  0.00    -0.219 A  
HETATM   18  C   UNL     1      -9.252  10.035  68.134  1.00  0.00    -0.130 A  
HETATM   19  C   UNL     1      -9.828   9.830  69.396  1.00  0.00    -0.217 A  
BRANCH  17  20
HETATM   20  C   UNL     1     -11.311   8.526  71.033  1.00  0.00    -0.313 C  
HETATM   21  C   UNL     1     -12.342   9.643  71.319  1.00  0.00    -0.449 C  
HETATM   22  C   UNL     1     -12.059   7.179  71.092  1.00  0.00    -0.397 C  
HETATM   23  C   UNL     1     -10.269   8.573  72.173  1.00  0.00    -0.403 C  
ENDBRANCH  17  20
ENDBRANCH  12  14
ENDBRANCH  11  12
ENDBRANCH   9  11
ENDBRANCH   6   9
ENDBRANCH   2   3
TORSDOF 6
ENDMDL
MODEL       84
REMARK 921   NORMALIZED FREE ENERGY PREDICTED BY IDOCK:   -5.09 KCAL/MOL
REMARK 922        TOTAL FREE ENERGY PREDICTED BY IDOCK:   -7.88 KCAL/MOL
REMARK 923 INTER-LIGAND FREE ENERGY PREDICTED BY IDOCK:   -6.93 KCAL/MOL
REMARK 924 INTRA-LIGAND FREE ENERGY PREDICTED BY IDOCK:   -0.95 KCAL/MOL
REMARK 927      BINDING AFFINITY PREDICTED BY RF-SCORE:    0.00 PKD
ROOT
HETATM    1  C   UNL     1      -7.727   8.336  63.024  1.00  0.00    -0.134 C  
HETATM    2  O   UNL     1      -8.392   7.986  64.235  1.00  0.00    -0.110 OA 
ENDROOT
BRANCH   2   3
HETATM    3  C   UNL     1      -8.886   9.041  64.950  1.00  0.00    -0.148 A  
HETATM    4  C   UNL     1      -8.828   8.912  66.337  1.00  0.00    -0.178 A  
HETATM    5  C   UNL     1      -9.320   9.926  67.165  1.00  0.00    -0.170 A  
HETATM    6  C   UNL     1      -9.865  11.090  66.608  1.00  0.00    -0.235 A  
HETATM    7  C   UNL     1      -9.895  11.224  65.216  1.00  0.00    -0.291 A  
HETATM    8  C   UNL     1      -9.397  10.211  64.392  1.00  0.00    -0.348 A  
BRANCH   6   9
HETATM    9  C   UNL     1     -10.403  12.139  67.529  1.00  0.00    -0.205 C  
HETATM   10  O   UNL     1      -9.665  12.630  68.386  1.00  0.00    -0.222 OA 
BRANCH   9  11
HETATM   11  C   UNL     1     -11.864  12.520  67.462  1.00  0.00    -0.389 C  
BRANCH  11  12
HETATM   12  C   UNL     1     -12.169  13.684  66.553  1.00  0.00    -0.404 C  
HETATM   13  O   UNL     1     -13.019  13.633  65.666  1.00  0.00    -0.538 OA 
BRANCH  12  14
HETATM   14  C   UNL     1     -11.390  14.940  66.725  1.00  0.00    -0.328 A  
HETATM   15  C   UNL     1     -11.449  15.568  67.968  1.00  0.00    -0.313 A  
HETATM   16  C   UNL     1     -10.800  16.785  68.176  1.00  0.00    -0.353 A  
HETATM   17  C   UNL     1     -10.068  17.410  67.154  1.00  0.00    -0.307 A  
HETATM   18  C   UNL     1     -10.626  15.511  65.705  1.00  0.00    -0.389 A  
HETATM   19  C   UNL     1      -9.970  16.731  65.923  1.00  0.00    -0.299 A  
BRANCH  17  20
HETATM   20  C   UNL     1      -9.421  18.795  67.345  1.00  0.00    -0.324 C  
HETATM   21  C   UNL     1      -8.006  18.894  66.729  1.00  0.00    -0.269 C  
HETATM   22  C   UNL     1     -10.289  19.887  66.688  1.00  0.00    -0.608 C  
HETATM   23  C   UNL     1      -9.280  19.103  68.852  1.00  0.00    -0.365 C  
ENDBRANCH  17  20
ENDBRANCH  12  14
ENDBRANCH  11  12
ENDBRANCH   9  11
ENDBRANCH   6   9
ENDBRANCH   2   3
TORSDOF 6
ENDMDL
MODEL       85
REMARK 921   NORMALIZED FREE ENERGY PREDICTED BY IDOCK:   -5.09 KCAL/MOL
REMARK 922        TOTAL FREE ENERGY PREDICTED BY IDOCK:   -7.88 KCAL/MOL
REMARK 923 INTER-LIGAND FREE ENERGY PREDICTED BY IDOCK:   -6.98 KCAL/MOL
REMARK 924 INTRA-LIGAND FREE ENERGY PREDICTED BY IDOCK:   -0.90 KCAL/MOL
REMARK 927      BINDING AFFINITY PREDICTED BY RF-SCORE:    0.00 PKD
ROOT
HETATM    1  C   UNL     1     -12.592  11.890  63.128  1.00  0.00    -0.195 C  
HETATM    2  O   UNL     1     -11.418  11.537  63.855  1.00  0.00    -0.379 OA 
ENDROOT
BRANCH   2   3
HETATM    3  C   UNL     1     -11.375  11.992  65.144  1.00  0.00    -0.304 A  
HETATM    4  C   UNL     1     -12.229  13.054  65.439  1.00  0.00    -0.520 A  
HETATM    5  C   UNL     1     -12.254  13.606  66.724  1.00  0.00    -0.416 A  
HETATM    6  C   UNL     1     -11.430  13.088  67.732  1.00  0.00    -0.359 A  
HETATM    7  C   UNL     1     -10.596  12.004  67.435  1.00  0.00    -0.253 A  
HETATM    8  C   UNL     1     -10.578  11.452  66.151  1.00  0.00    -0.316 A  
BRANCH   6   9
HETATM    9  C   UNL     1     -11.470  13.724  69.085  1.00  0.00    -0.298 C  
HETATM   10  O   UNL     1     -12.402  13.466  69.850  1.00  0.00    -0.281 OA 
BRANCH   9  11
HETATM   11  C   UNL     1     -10.422  14.744  69.468  1.00  0.00    -0.166 C  
BRANCH  11  12
HETATM   12  C   UNL     1     -10.698  16.143  68.979  1.00  0.00    -0.287 C  
HETATM   13  O   UNL     1     -11.824  16.537  68.684  1.00  0.00    -0.089 OA 
BRANCH  12  14
HETATM   14  C   UNL     1      -9.552  17.080  68.830  1.00  0.00    -0.269 A  
HETATM   15  C   UNL     1      -9.845  18.431  68.645  1.00  0.00    -0.403 A  
HETATM   16  C   UNL     1      -8.821  19.353  68.428  1.00  0.00    -0.397 A  
HETATM   17  C   UNL     1      -7.474  18.959  68.395  1.00  0.00    -0.331 A  
HETATM   18  C   UNL     1      -8.218  16.666  68.854  1.00  0.00    -0.231 A  
HETATM   19  C   UNL     1      -7.193  17.600  68.643  1.00  0.00    -0.255 A  
BRANCH  17  20
HETATM   20  C   UNL     1      -6.342  19.951  68.069  1.00  0.00    -0.266 C  
HETATM   21  C   UNL     1      -6.783  21.080  67.109  1.00  0.00    -0.424 C  
HETATM   22  C   UNL     1      -5.824  20.616  69.360  1.00  0.00    -0.382 C  
HETATM   23  C   UNL     1      -5.175  19.207  67.384  1.00  0.00    -0.160 C  
ENDBRANCH  17  20
ENDBRANCH  12  14
ENDBRANCH  11  12
ENDBRANCH   9  11
ENDBRANCH   6   9
ENDBRANCH   2   3
TORSDOF 6
ENDMDL
MODEL       86
REMARK 921   NORMALIZED FREE ENERGY PREDICTED BY IDOCK:   -5.08 KCAL/MOL
REMARK 922        TOTAL FREE ENERGY PREDICTED BY IDOCK:   -7.87 KCAL/MOL
REMARK 923 INTER-LIGAND FREE ENERGY PREDICTED BY IDOCK:   -7.01 KCAL/MOL
REMARK 924 INTRA-LIGAND FREE ENERGY PREDICTED BY IDOCK:   -0.86 KCAL/MOL
REMARK 927      BINDING AFFINITY PREDICTED BY RF-SCORE:    0.00 PKD
ROOT
HETATM    1  C   UNL     1     -11.788  15.333  64.212  1.00  0.00    -0.225 C  
HETATM    2  O   UNL     1     -12.783  14.471  64.757  1.00  0.00    -0.606 OA 
ENDROOT
BRANCH   2   3
HETATM    3  C   UNL     1     -12.330  13.576  65.687  1.00  0.00    -0.476 A  
HETATM    4  C   UNL     1     -11.746  12.418  65.177  1.00  0.00    -0.430 A  
HETATM    5  C   UNL     1     -11.262  11.429  66.040  1.00  0.00    -0.177 A  
HETATM    6  C   UNL     1     -11.349  11.600  67.428  1.00  0.00    -0.367 A  
HETATM    7  C   UNL     1     -11.911  12.778  67.932  1.00  0.00    -0.320 A  
HETATM    8  C   UNL     1     -12.388  13.766  67.066  1.00  0.00    -0.289 A  
BRANCH   6   9
HETATM    9  C   UNL     1     -10.843  10.507  68.316  1.00  0.00    -0.248 C  
HETATM   10  O   UNL     1     -10.633   9.388  67.841  1.00  0.00    -0.237 OA 
BRANCH   9  11
HETATM   11  C   UNL     1     -10.681  10.757  69.797  1.00  0.00    -0.241 C  
BRANCH  11  12
HETATM   12  C   UNL     1     -11.672  10.028  70.669  1.00  0.00    -0.337 C  
HETATM   13  O   UNL     1     -12.815  10.435  70.864  1.00  0.00    -0.357 OA 
BRANCH  12  14
HETATM   14  C   UNL     1     -11.237   8.773  71.338  1.00  0.00    -0.362 A  
HETATM   15  C   UNL     1      -9.937   8.727  71.840  1.00  0.00    -0.401 A  
HETATM   16  C   UNL     1      -9.441   7.557  72.416  1.00  0.00    -0.202 A  
HETATM   17  C   UNL     1     -10.229   6.399  72.517  1.00  0.00    -0.201 A  
HETATM   18  C   UNL     1     -12.061   7.653  71.472  1.00  0.00    -0.338 A  
HETATM   19  C   UNL     1     -11.560   6.482  72.060  1.00  0.00    -0.354 A  
BRANCH  17  20
HETATM   20  C   UNL     1      -9.667   5.077  73.070  1.00  0.00    -0.167 C  
HETATM   21  C   UNL     1      -8.146   5.133  73.347  1.00  0.00    -0.111 C  
HETATM   22  C   UNL     1     -10.365   4.709  74.394  1.00  0.00    -0.318 C  
HETATM   23  C   UNL     1      -9.896   3.942  72.048  1.00  0.00    -0.245 C  
ENDBRANCH  17  20
ENDBRANCH  12  14
ENDBRANCH  11  12
ENDBRANCH   9  11
ENDBRANCH   6   9
ENDBRANCH   2   3
TORSDOF 6
ENDMDL
MODEL       87
REMARK 921   NORMALIZED FREE ENERGY PREDICTED BY IDOCK:   -5.07 KCAL/MOL
REMARK 922        TOTAL FREE ENERGY PREDICTED BY IDOCK:   -7.86 KCAL/MOL
REMARK 923 INTER-LIGAND FREE ENERGY PREDICTED BY IDOCK:   -6.47 KCAL/MOL
REMARK 924 INTRA-LIGAND FREE ENERGY PREDICTED BY IDOCK:   -1.39 KCAL/MOL
REMARK 927      BINDING AFFINITY PREDICTED BY RF-SCORE:    0.00 PKD
ROOT
HETATM    1  C   UNL     1      -5.784   9.735  68.812  1.00  0.00    -0.035 C  
HETATM    2  O   UNL     1      -6.652   8.632  68.566  1.00  0.00    -0.057 OA 
ENDROOT
BRANCH   2   3
HETATM    3  C   UNL     1      -7.673   8.485  69.463  1.00  0.00    -0.091 A  
HETATM    4  C   UNL     1      -8.816   7.850  68.981  1.00  0.00    -0.145 A  
HETATM    5  C   UNL     1      -9.926   7.661  69.811  1.00  0.00    -0.184 A  
HETATM    6  C   UNL     1      -9.895   8.098  71.141  1.00  0.00    -0.207 A  
HETATM    7  C   UNL     1      -8.733   8.710  71.627  1.00  0.00    -0.270 A  
HETATM    8  C   UNL     1      -7.624   8.891  70.795  1.00  0.00    -0.110 A  
BRANCH   6   9
HETATM    9  C   UNL     1     -11.112   7.899  71.988  1.00  0.00    -0.278 C  
HETATM   10  O   UNL     1     -10.985   7.506  73.150  1.00  0.00    -0.376 OA 
BRANCH   9  11
HETATM   11  C   UNL     1     -12.485   8.092  71.387  1.00  0.00    -0.313 C  
BRANCH  11  12
HETATM   12  C   UNL     1     -13.161   9.385  71.768  1.00  0.00    -0.411 C  
HETATM   13  O   UNL     1     -14.014   9.457  72.651  1.00  0.00    -0.395 OA 
BRANCH  12  14
HETATM   14  C   UNL     1     -12.793  10.622  71.028  1.00  0.00    -0.496 A  
HETATM   15  C   UNL     1     -12.279  10.473  69.741  1.00  0.00    -0.252 A  
HETATM   16  C   UNL     1     -11.848  11.585  69.018  1.00  0.00    -0.408 A  
HETATM   17  C   UNL     1     -11.922  12.881  69.554  1.00  0.00    -0.346 A  
HETATM   18  C   UNL     1     -12.927  11.903  71.567  1.00  0.00    -0.427 A  
HETATM   19  C   UNL     1     -12.500  13.018  70.832  1.00  0.00    -0.396 A  
BRANCH  17  20
HETATM   20  C   UNL     1     -11.369  14.106  68.803  1.00  0.00    -0.308 C  
HETATM   21  C   UNL     1     -11.848  14.184  67.334  1.00  0.00    -0.447 C  
HETATM   22  C   UNL     1     -11.808  15.408  69.502  1.00  0.00    -0.370 C  
HETATM   23  C   UNL     1      -9.826  14.048  68.771  1.00  0.00    -0.141 C  
ENDBRANCH  17  20
ENDBRANCH  12  14
ENDBRANCH  11  12
ENDBRANCH   9  11
ENDBRANCH   6   9
ENDBRANCH   2   3
TORSDOF 6
ENDMDL
MODEL       88
REMARK 921   NORMALIZED FREE ENERGY PREDICTED BY IDOCK:   -5.06 KCAL/MOL
REMARK 922        TOTAL FREE ENERGY PREDICTED BY IDOCK:   -7.85 KCAL/MOL
REMARK 923 INTER-LIGAND FREE ENERGY PREDICTED BY IDOCK:   -6.89 KCAL/MOL
REMARK 924 INTRA-LIGAND FREE ENERGY PREDICTED BY IDOCK:   -0.95 KCAL/MOL
REMARK 927      BINDING AFFINITY PREDICTED BY RF-SCORE:    0.00 PKD
ROOT
HETATM    1  C   UNL     1      -6.124  15.987  69.096  1.00  0.00    -0.136 C  
HETATM    2  O   UNL     1      -6.941  16.816  68.274  1.00  0.00    -0.152 OA 
ENDROOT
BRANCH   2   3
HETATM    3  C   UNL     1      -7.865  16.152  67.517  1.00  0.00    -0.147 A  
HETATM    4  C   UNL     1      -7.897  14.767  67.678  1.00  0.00    -0.191 A  
HETATM    5  C   UNL     1      -8.794  13.988  66.940  1.00  0.00    -0.212 A  
HETATM    6  C   UNL     1      -9.680  14.594  66.040  1.00  0.00    -0.340 A  
HETATM    7  C   UNL     1      -9.661  15.986  65.904  1.00  0.00    -0.378 A  
HETATM    8  C   UNL     1      -8.767  16.762  66.647  1.00  0.00    -0.281 A  
BRANCH   6   9
HETATM    9  C   UNL     1     -10.606  13.722  65.252  1.00  0.00    -0.353 C  
HETATM   10  O   UNL     1     -10.322  13.432  64.087  1.00  0.00    -0.380 OA 
BRANCH   9  11
HETATM   11  C   UNL     1     -11.919  13.281  65.855  1.00  0.00    -0.466 C  
BRANCH  11  12
HETATM   12  C   UNL     1     -12.029  13.492  67.344  1.00  0.00    -0.357 C  
HETATM   13  O   UNL     1     -12.347  14.569  67.843  1.00  0.00    -0.188 OA 
BRANCH  12  14
HETATM   14  C   UNL     1     -11.719  12.351  68.246  1.00  0.00    -0.398 A  
HETATM   15  C   UNL     1     -11.272  11.168  67.658  1.00  0.00    -0.364 A  
HETATM   16  C   UNL     1     -11.031  10.038  68.438  1.00  0.00    -0.266 A  
HETATM   17  C   UNL     1     -11.221  10.053  69.830  1.00  0.00    -0.307 A  
HETATM   18  C   UNL     1     -11.868  12.411  69.633  1.00  0.00    -0.380 A  
HETATM   19  C   UNL     1     -11.615  11.273  70.413  1.00  0.00    -0.319 A  
BRANCH  17  20
HETATM   20  C   UNL     1     -11.043   8.788  70.690  1.00  0.00    -0.285 C  
HETATM   21  C   UNL     1     -10.804   7.511  69.850  1.00  0.00    -0.250 C  
HETATM   22  C   UNL     1      -9.839   8.950  71.639  1.00  0.00    -0.387 C  
HETATM   23  C   UNL     1     -12.316   8.543  71.530  1.00  0.00    -0.354 C  
ENDBRANCH  17  20
ENDBRANCH  12  14
ENDBRANCH  11  12
ENDBRANCH   9  11
ENDBRANCH   6   9
ENDBRANCH   2   3
TORSDOF 6
ENDMDL
MODEL       89
REMARK 921   NORMALIZED FREE ENERGY PREDICTED BY IDOCK:   -5.06 KCAL/MOL
REMARK 922        TOTAL FREE ENERGY PREDICTED BY IDOCK:   -7.84 KCAL/MOL
REMARK 923 INTER-LIGAND FREE ENERGY PREDICTED BY IDOCK:   -6.48 KCAL/MOL
REMARK 924 INTRA-LIGAND FREE ENERGY PREDICTED BY IDOCK:   -1.35 KCAL/MOL
REMARK 927      BINDING AFFINITY PREDICTED BY RF-SCORE:    0.00 PKD
ROOT
HETATM    1  C   UNL     1     -14.033  13.883  72.320  1.00  0.00    -0.565 C  
HETATM    2  O   UNL     1     -13.187  12.749  72.151  1.00  0.00    -0.475 OA 
ENDROOT
BRANCH   2   3
HETATM    3  C   UNL     1     -12.553  12.673  70.942  1.00  0.00    -0.249 A  
HETATM    4  C   UNL     1     -12.122  11.402  70.564  1.00  0.00    -0.487 A  
HETATM    5  C   UNL     1     -11.449  11.213  69.352  1.00  0.00    -0.368 A  
HETATM    6  C   UNL     1     -11.213  12.299  68.499  1.00  0.00    -0.316 A  
HETATM    7  C   UNL     1     -11.673  13.567  68.873  1.00  0.00    -0.379 A  
HETATM    8  C   UNL     1     -12.350  13.750  70.082  1.00  0.00    -0.390 A  
BRANCH   6   9
HETATM    9  C   UNL     1     -10.467  12.058  67.225  1.00  0.00    -0.218 C  
HETATM   10  O   UNL     1      -9.549  12.818  66.907  1.00  0.00    -0.221 OA 
BRANCH   9  11
HETATM   11  C   UNL     1     -10.903  10.948  66.297  1.00  0.00    -0.191 C  
BRANCH  11  12
HETATM   12  C   UNL     1      -9.869   9.874  66.074  1.00  0.00    -0.264 C  
HETATM   13  O   UNL     1      -9.182   9.809  65.056  1.00  0.00    -0.215 OA 
BRANCH  12  14
HETATM   14  C   UNL     1      -9.688   8.836  67.124  1.00  0.00    -0.248 A  
HETATM   15  C   UNL     1     -10.606   7.787  67.158  1.00  0.00    -0.401 A  
HETATM   16  C   UNL     1     -10.537   6.818  68.159  1.00  0.00    -0.279 A  
HETATM   17  C   UNL     1      -9.546   6.861  69.153  1.00  0.00    -0.144 A  
HETATM   18  C   UNL     1      -8.660   8.875  68.069  1.00  0.00    -0.130 A  
HETATM   19  C   UNL     1      -8.591   7.893  69.068  1.00  0.00    -0.135 A  
BRANCH  17  20
HETATM   20  C   UNL     1      -9.512   5.849  70.313  1.00  0.00    -0.191 C  
HETATM   21  C   UNL     1     -10.005   4.441  69.905  1.00  0.00    -0.233 C  
HETATM   22  C   UNL     1      -8.076   5.699  70.852  1.00  0.00    -0.118 C  
HETATM   23  C   UNL     1     -10.430   6.333  71.457  1.00  0.00    -0.266 C  
ENDBRANCH  17  20
ENDBRANCH  12  14
ENDBRANCH  11  12
ENDBRANCH   9  11
ENDBRANCH   6   9
ENDBRANCH   2   3
TORSDOF 6
ENDMDL
MODEL       90
REMARK 921   NORMALIZED FREE ENERGY PREDICTED BY IDOCK:   -5.05 KCAL/MOL
REMARK 922        TOTAL FREE ENERGY PREDICTED BY IDOCK:   -7.83 KCAL/MOL
REMARK 923 INTER-LIGAND FREE ENERGY PREDICTED BY IDOCK:   -6.79 KCAL/MOL
REMARK 924 INTRA-LIGAND FREE ENERGY PREDICTED BY IDOCK:   -1.03 KCAL/MOL
REMARK 927      BINDING AFFINITY PREDICTED BY RF-SCORE:    0.00 PKD
ROOT
HETATM    1  C   UNL     1     -10.306   8.326  68.784  1.00  0.00    -0.205 C  
HETATM    2  O   UNL     1     -10.348   8.959  67.508  1.00  0.00    -0.230 OA 
ENDROOT
BRANCH   2   3
HETATM    3  C   UNL     1     -10.706  10.279  67.527  1.00  0.00    -0.294 A  
HETATM    4  C   UNL     1     -10.230  11.049  66.467  1.00  0.00    -0.280 A  
HETATM    5  C   UNL     1     -10.524  12.415  66.395  1.00  0.00    -0.267 A  
HETATM    6  C   UNL     1     -11.312  13.020  67.383  1.00  0.00    -0.347 A  
HETATM    7  C   UNL     1     -11.809  12.234  68.428  1.00  0.00    -0.358 A  
HETATM    8  C   UNL     1     -11.518  10.869  68.493  1.00  0.00    -0.380 A  
BRANCH   6   9
HETATM    9  C   UNL     1     -11.581  14.488  67.282  1.00  0.00    -0.385 C  
HETATM   10  O   UNL     1     -11.379  15.070  66.214  1.00  0.00    -0.341 OA 
BRANCH   9  11
HETATM   11  C   UNL     1     -12.010  15.260  68.509  1.00  0.00    -0.228 C  
BRANCH  11  12
HETATM   12  C   UNL     1     -10.887  15.619  69.449  1.00  0.00    -0.264 C  
HETATM   13  O   UNL     1     -10.761  15.113  70.563  1.00  0.00    -0.244 OA 
BRANCH  12  14
HETATM   14  C   UNL     1      -9.901  16.645  69.016  1.00  0.00    -0.267 A  
HETATM   15  C   UNL     1      -8.601  16.216  68.749  1.00  0.00    -0.236 A  
HETATM   16  C   UNL     1      -7.610  17.136  68.406  1.00  0.00    -0.231 A  
HETATM   17  C   UNL     1      -7.885  18.510  68.312  1.00  0.00    -0.323 A  
HETATM   18  C   UNL     1     -10.217  17.998  68.879  1.00  0.00    -0.320 A  
HETATM   19  C   UNL     1      -9.217  18.917  68.526  1.00  0.00    -0.404 A  
BRANCH  17  20
HETATM   20  C   UNL     1      -6.782  19.543  68.021  1.00  0.00    -0.279 C  
HETATM   21  C   UNL     1      -5.631  18.976  67.157  1.00  0.00    -0.163 C  
HETATM   22  C   UNL     1      -7.367  20.757  67.273  1.00  0.00    -0.397 C  
HETATM   23  C   UNL     1      -6.153  20.025  69.347  1.00  0.00    -0.351 C  
ENDBRANCH  17  20
ENDBRANCH  12  14
ENDBRANCH  11  12
ENDBRANCH   9  11
ENDBRANCH   6   9
ENDBRANCH   2   3
TORSDOF 6
ENDMDL
MODEL       91
REMARK 921   NORMALIZED FREE ENERGY PREDICTED BY IDOCK:   -5.02 KCAL/MOL
REMARK 922        TOTAL FREE ENERGY PREDICTED BY IDOCK:   -7.79 KCAL/MOL
REMARK 923 INTER-LIGAND FREE ENERGY PREDICTED BY IDOCK:   -6.32 KCAL/MOL
REMARK 924 INTRA-LIGAND FREE ENERGY PREDICTED BY IDOCK:   -1.47 KCAL/MOL
REMARK 927      BINDING AFFINITY PREDICTED BY RF-SCORE:    0.00 PKD
ROOT
HETATM    1  C   UNL     1     -12.515  12.275  63.217  1.00  0.00    -0.375 C  
HETATM    2  O   UNL     1     -12.600  13.687  63.384  1.00  0.00    -0.799 OA 
ENDROOT
BRANCH   2   3
HETATM    3  C   UNL     1     -12.137  14.159  64.582  1.00  0.00    -0.452 A  
HETATM    4  C   UNL     1     -11.175  15.165  64.505  1.00  0.00    -0.283 A  
HETATM    5  C   UNL     1     -10.623  15.708  65.670  1.00  0.00    -0.393 A  
HETATM    6  C   UNL     1     -11.042  15.255  66.927  1.00  0.00    -0.288 A  
HETATM    7  C   UNL     1     -12.028  14.264  66.997  1.00  0.00    -0.463 A  
HETATM    8  C   UNL     1     -12.581  13.728  65.830  1.00  0.00    -0.494 A  
BRANCH   6   9
HETATM    9  C   UNL     1     -10.408  15.844  68.147  1.00  0.00    -0.256 C  
HETATM   10  O   UNL     1     -10.647  17.016  68.449  1.00  0.00    -0.341 OA 
BRANCH   9  11
HETATM   11  C   UNL     1      -9.414  15.033  68.945  1.00  0.00    -0.211 C  
BRANCH  11  12
HETATM   12  C   UNL     1      -8.418  14.265  68.113  1.00  0.00    -0.167 C  
HETATM   13  O   UNL     1      -7.439  14.792  67.589  1.00  0.00    -0.150 OA 
BRANCH  12  14
HETATM   14  C   UNL     1      -8.644  12.810  67.903  1.00  0.00    -0.181 A  
HETATM   15  C   UNL     1      -9.629  12.193  68.673  1.00  0.00    -0.068 A  
HETATM   16  C   UNL     1      -9.844  10.818  68.577  1.00  0.00    -0.182 A  
HETATM   17  C   UNL     1      -9.090  10.017  67.705  1.00  0.00    -0.142 A  
HETATM   18  C   UNL     1      -7.913  12.047  66.989  1.00  0.00    -0.150 A  
HETATM   19  C   UNL     1      -8.141  10.667  66.891  1.00  0.00    -0.124 A  
BRANCH  17  20
HETATM   20  C   UNL     1      -9.257   8.487  67.654  1.00  0.00    -0.147 C  
HETATM   21  C   UNL     1     -10.528   8.041  66.893  1.00  0.00    -0.387 C  
HETATM   22  C   UNL     1      -8.047   7.838  66.954  1.00  0.00    -0.116 C  
HETATM   23  C   UNL     1      -9.370   7.925  69.087  1.00  0.00    -0.154 C  
ENDBRANCH  17  20
ENDBRANCH  12  14
ENDBRANCH  11  12
ENDBRANCH   9  11
ENDBRANCH   6   9
ENDBRANCH   2   3
TORSDOF 6
ENDMDL
MODEL       92
REMARK 921   NORMALIZED FREE ENERGY PREDICTED BY IDOCK:   -5.02 KCAL/MOL
REMARK 922        TOTAL FREE ENERGY PREDICTED BY IDOCK:   -7.78 KCAL/MOL
REMARK 923 INTER-LIGAND FREE ENERGY PREDICTED BY IDOCK:   -6.85 KCAL/MOL
REMARK 924 INTRA-LIGAND FREE ENERGY PREDICTED BY IDOCK:   -0.93 KCAL/MOL
REMARK 927      BINDING AFFINITY PREDICTED BY RF-SCORE:    0.00 PKD
ROOT
HETATM    1  C   UNL     1      -6.631   4.691  68.853  1.00  0.00    -0.045 C  
HETATM    2  O   UNL     1      -7.959   4.864  68.368  1.00  0.00    -0.085 OA 
ENDROOT
BRANCH   2   3
HETATM    3  C   UNL     1      -8.843   5.389  69.270  1.00  0.00    -0.101 A  
HETATM    4  C   UNL     1     -10.136   5.603  68.795  1.00  0.00    -0.245 A  
HETATM    5  C   UNL     1     -11.116   6.151  69.630  1.00  0.00    -0.489 A  
HETATM    6  C   UNL     1     -10.810   6.478  70.958  1.00  0.00    -0.301 A  
HETATM    7  C   UNL     1      -9.517   6.234  71.435  1.00  0.00    -0.167 A  
HETATM    8  C   UNL     1      -8.543   5.681  70.598  1.00  0.00    -0.130 A  
BRANCH   6   9
HETATM    9  C   UNL     1     -11.879   7.084  71.810  1.00  0.00    -0.312 C  
HETATM   10  O   UNL     1     -12.946   6.485  71.962  1.00  0.00    -0.244 OA 
BRANCH   9  11
HETATM   11  C   UNL     1     -11.680   8.462  72.399  1.00  0.00    -0.452 C  
BRANCH  11  12
HETATM   12  C   UNL     1     -12.732   9.469  72.011  1.00  0.00    -0.396 C  
HETATM   13  O   UNL     1     -13.899   9.397  72.393  1.00  0.00    -0.451 OA 
BRANCH  12  14
HETATM   14  C   UNL     1     -12.344  10.587  71.110  1.00  0.00    -0.510 A  
HETATM   15  C   UNL     1     -11.459  10.300  70.071  1.00  0.00    -0.367 A  
HETATM   16  C   UNL     1     -10.999  11.315  69.233  1.00  0.00    -0.297 A  
HETATM   17  C   UNL     1     -11.412  12.647  69.398  1.00  0.00    -0.330 A  
HETATM   18  C   UNL     1     -12.812  11.894  71.267  1.00  0.00    -0.391 A  
HETATM   19  C   UNL     1     -12.352  12.908  70.415  1.00  0.00    -0.333 A  
BRANCH  17  20
HETATM   20  C   UNL     1     -10.844  13.789  68.536  1.00  0.00    -0.280 C  
HETATM   21  C   UNL     1      -9.475  13.448  67.902  1.00  0.00    -0.216 C  
HETATM   22  C   UNL     1     -11.815  14.128  67.388  1.00  0.00    -0.447 C  
HETATM   23  C   UNL     1     -10.635  15.047  69.407  1.00  0.00    -0.262 C  
ENDBRANCH  17  20
ENDBRANCH  12  14
ENDBRANCH  11  12
ENDBRANCH   9  11
ENDBRANCH   6   9
ENDBRANCH   2   3
TORSDOF 6
ENDMDL
MODEL       93
REMARK 921   NORMALIZED FREE ENERGY PREDICTED BY IDOCK:   -5.00 KCAL/MOL
REMARK 922        TOTAL FREE ENERGY PREDICTED BY IDOCK:   -7.76 KCAL/MOL
REMARK 923 INTER-LIGAND FREE ENERGY PREDICTED BY IDOCK:   -6.65 KCAL/MOL
REMARK 924 INTRA-LIGAND FREE ENERGY PREDICTED BY IDOCK:   -1.11 KCAL/MOL
REMARK 927      BINDING AFFINITY PREDICTED BY RF-SCORE:    0.00 PKD
ROOT
HETATM    1  C   UNL     1     -10.652   8.133  66.909  1.00  0.00    -0.241 C  
HETATM    2  O   UNL     1     -10.054   9.427  66.921  1.00  0.00    -0.211 OA 
ENDROOT
BRANCH   2   3
HETATM    3  C   UNL     1     -10.604  10.312  67.806  1.00  0.00    -0.250 A  
HETATM    4  C   UNL     1     -10.940  11.560  67.284  1.00  0.00    -0.323 A  
HETATM    5  C   UNL     1     -11.496  12.546  68.106  1.00  0.00    -0.368 A  
HETATM    6  C   UNL     1     -11.733  12.284  69.462  1.00  0.00    -0.398 A  
HETATM    7  C   UNL     1     -11.419  11.019  69.972  1.00  0.00    -0.398 A  
HETATM    8  C   UNL     1     -10.869  10.035  69.146  1.00  0.00    -0.253 A  
BRANCH   6   9
HETATM    9  C   UNL     1     -12.304  13.374  70.311  1.00  0.00    -0.284 C  
HETATM   10  O   UNL     1     -12.756  13.101  71.426  1.00  0.00    -0.357 OA 
BRANCH   9  11
HETATM   11  C   UNL     1     -12.408  14.779  69.764  1.00  0.00    -0.291 C  
BRANCH  11  12
HETATM   12  C   UNL     1     -11.439  15.762  70.369  1.00  0.00    -0.365 C  
HETATM   13  O   UNL     1     -11.545  16.182  71.520  1.00  0.00    -0.450 OA 
BRANCH  12  14
HETATM   14  C   UNL     1     -10.318  16.261  69.528  1.00  0.00    -0.284 A  
HETATM   15  C   UNL     1      -9.168  15.476  69.456  1.00  0.00    -0.265 A  
HETATM   16  C   UNL     1      -8.054  15.917  68.743  1.00  0.00    -0.190 A  
HETATM   17  C   UNL     1      -8.053  17.151  68.073  1.00  0.00    -0.210 A  
HETATM   18  C   UNL     1     -10.366  17.469  68.829  1.00  0.00    -0.358 A  
HETATM   19  C   UNL     1      -9.245  17.904  68.107  1.00  0.00    -0.278 A  
BRANCH  17  20
HETATM   20  C   UNL     1      -6.801  17.689  67.356  1.00  0.00    -0.183 C  
HETATM   21  C   UNL     1      -5.685  16.629  67.207  1.00  0.00    -0.188 C  
HETATM   22  C   UNL     1      -7.163  18.183  65.942  1.00  0.00    -0.275 C  
HETATM   23  C   UNL     1      -6.202  18.863  68.161  1.00  0.00    -0.231 C  
ENDBRANCH  17  20
ENDBRANCH  12  14
ENDBRANCH  11  12
ENDBRANCH   9  11
ENDBRANCH   6   9
ENDBRANCH   2   3
TORSDOF 6
ENDMDL
MODEL       94
REMARK 921   NORMALIZED FREE ENERGY PREDICTED BY IDOCK:   -4.99 KCAL/MOL
REMARK 922        TOTAL FREE ENERGY PREDICTED BY IDOCK:   -7.75 KCAL/MOL
REMARK 923 INTER-LIGAND FREE ENERGY PREDICTED BY IDOCK:   -6.24 KCAL/MOL
REMARK 924 INTRA-LIGAND FREE ENERGY PREDICTED BY IDOCK:   -1.51 KCAL/MOL
REMARK 927      BINDING AFFINITY PREDICTED BY RF-SCORE:    0.00 PKD
ROOT
HETATM    1  C   UNL     1     -11.893  14.652  67.543  1.00  0.00    -0.347 C  
HETATM    2  O   UNL     1     -12.479  13.878  66.500  1.00  0.00    -0.424 OA 
ENDROOT
BRANCH   2   3
HETATM    3  C   UNL     1     -11.626  13.015  65.869  1.00  0.00    -0.363 A  
HETATM    4  C   UNL     1     -12.115  12.427  64.703  1.00  0.00    -0.487 A  
HETATM    5  C   UNL     1     -11.331  11.516  63.986  1.00  0.00    -0.380 A  
HETATM    6  C   UNL     1     -10.040  11.197  64.426  1.00  0.00    -0.377 A  
HETATM    7  C   UNL     1      -9.546  11.814  65.582  1.00  0.00    -0.240 A  
HETATM    8  C   UNL     1     -10.331  12.727  66.291  1.00  0.00    -0.271 A  
BRANCH   6   9
HETATM    9  C   UNL     1      -9.244  10.200  63.645  1.00  0.00    -0.282 C  
HETATM   10  O   UNL     1      -9.621   9.874  62.517  1.00  0.00    -0.235 OA 
BRANCH   9  11
HETATM   11  C   UNL     1      -8.042   9.536  64.276  1.00  0.00    -0.142 C  
BRANCH  11  12
HETATM   12  C   UNL     1      -8.350   8.273  65.038  1.00  0.00    -0.148 C  
HETATM   13  O   UNL     1      -8.160   7.150  64.574  1.00  0.00    -0.128 OA 
BRANCH  12  14
HETATM   14  C   UNL     1      -8.929   8.392  66.403  1.00  0.00    -0.207 A  
HETATM   15  C   UNL     1      -8.151   9.014  67.380  1.00  0.00    -0.108 A  
HETATM   16  C   UNL     1      -8.603   9.097  68.697  1.00  0.00    -0.128 A  
HETATM   17  C   UNL     1      -9.846   8.569  69.080  1.00  0.00    -0.186 A  
HETATM   18  C   UNL     1     -10.192   7.904  66.744  1.00  0.00    -0.358 A  
HETATM   19  C   UNL     1     -10.644   7.998  68.068  1.00  0.00    -0.190 A  
BRANCH  17  20
HETATM   20  C   UNL     1     -10.317   8.576  70.546  1.00  0.00    -0.226 C  
HETATM   21  C   UNL     1     -11.129   7.316  70.928  1.00  0.00    -0.284 C  
HETATM   22  C   UNL     1      -9.107   8.654  71.498  1.00  0.00    -0.308 C  
HETATM   23  C   UNL     1     -11.233   9.794  70.796  1.00  0.00    -0.419 C  
ENDBRANCH  17  20
ENDBRANCH  12  14
ENDBRANCH  11  12
ENDBRANCH   9  11
ENDBRANCH   6   9
ENDBRANCH   2   3
TORSDOF 6
ENDMDL
MODEL       95
REMARK 921   NORMALIZED FREE ENERGY PREDICTED BY IDOCK:   -4.99 KCAL/MOL
REMARK 922        TOTAL FREE ENERGY PREDICTED BY IDOCK:   -7.74 KCAL/MOL
REMARK 923 INTER-LIGAND FREE ENERGY PREDICTED BY IDOCK:   -6.34 KCAL/MOL
REMARK 924 INTRA-LIGAND FREE ENERGY PREDICTED BY IDOCK:   -1.40 KCAL/MOL
REMARK 927      BINDING AFFINITY PREDICTED BY RF-SCORE:    0.00 PKD
ROOT
HETATM    1  C   UNL     1     -11.428  11.508  69.233  1.00  0.00    -0.305 C  
HETATM    2  O   UNL     1     -11.913  12.653  69.928  1.00  0.00    -0.321 OA 
ENDROOT
BRANCH   2   3
HETATM    3  C   UNL     1     -11.377  13.845  69.527  1.00  0.00    -0.237 A  
HETATM    4  C   UNL     1     -12.280  14.899  69.391  1.00  0.00    -0.240 A  
HETATM    5  C   UNL     1     -11.840  16.159  68.972  1.00  0.00    -0.181 A  
HETATM    6  C   UNL     1     -10.484  16.378  68.696  1.00  0.00    -0.293 A  
HETATM    7  C   UNL     1      -9.580  15.323  68.861  1.00  0.00    -0.220 A  
HETATM    8  C   UNL     1     -10.023  14.067  69.286  1.00  0.00     0.173 A  
BRANCH   6   9
HETATM    9  C   UNL     1     -10.060  17.733  68.226  1.00  0.00    -0.371 C  
HETATM   10  O   UNL     1     -10.309  18.722  68.920  1.00  0.00    -0.289 OA 
BRANCH   9  11
HETATM   11  C   UNL     1      -9.414  17.890  66.869  1.00  0.00    -0.279 C  
BRANCH  11  12
HETATM   12  C   UNL     1     -10.317  17.578  65.703  1.00  0.00    -0.134 C  
HETATM   13  O   UNL     1     -10.937  18.443  65.088  1.00  0.00    -0.604 OA 
BRANCH  12  14
HETATM   14  C   UNL     1     -10.479  16.157  65.293  1.00  0.00    -0.356 A  
HETATM   15  C   UNL     1     -11.630  15.819  64.583  1.00  0.00    -0.218 A  
HETATM   16  C   UNL     1     -11.879  14.493  64.229  1.00  0.00    -0.368 A  
HETATM   17  C   UNL     1     -10.984  13.464  64.565  1.00  0.00    -0.404 A  
HETATM   18  C   UNL     1      -9.546  15.163  65.596  1.00  0.00    -0.295 A  
HETATM   19  C   UNL     1      -9.797  13.833  65.230  1.00  0.00    -0.155 A  
BRANCH  17  20
HETATM   20  C   UNL     1     -11.289  11.986  64.258  1.00  0.00    -0.433 C  
HETATM   21  C   UNL     1     -12.765  11.740  63.867  1.00  0.00    -0.318 C  
HETATM   22  C   UNL     1     -10.412  11.489  63.092  1.00  0.00    -0.350 C  
HETATM   23  C   UNL     1     -11.003  11.123  65.506  1.00  0.00    -0.143 C  
ENDBRANCH  17  20
ENDBRANCH  12  14
ENDBRANCH  11  12
ENDBRANCH   9  11
ENDBRANCH   6   9
ENDBRANCH   2   3
TORSDOF 6
ENDMDL
MODEL       96
REMARK 921   NORMALIZED FREE ENERGY PREDICTED BY IDOCK:   -4.95 KCAL/MOL
REMARK 922        TOTAL FREE ENERGY PREDICTED BY IDOCK:   -7.69 KCAL/MOL
REMARK 923 INTER-LIGAND FREE ENERGY PREDICTED BY IDOCK:   -6.93 KCAL/MOL
REMARK 924 INTRA-LIGAND FREE ENERGY PREDICTED BY IDOCK:   -0.75 KCAL/MOL
REMARK 927      BINDING AFFINITY PREDICTED BY RF-SCORE:    0.00 PKD
ROOT
HETATM    1  C   UNL     1      -9.668   5.324  66.113  1.00  0.00    -0.161 C  
HETATM    2  O   UNL     1      -8.921   6.273  66.869  1.00  0.00    -0.115 OA 
ENDROOT
BRANCH   2   3
HETATM    3  C   UNL     1      -9.305   7.576  66.707  1.00  0.00    -0.165 A  
HETATM    4  C   UNL     1     -10.059   8.118  67.747  1.00  0.00    -0.260 A  
HETATM    5  C   UNL     1     -10.516   9.438  67.677  1.00  0.00    -0.328 A  
HETATM    6  C   UNL     1     -10.210  10.233  66.565  1.00  0.00    -0.289 A  
HETATM    7  C   UNL     1      -9.430   9.690  65.538  1.00  0.00    -0.330 A  
HETATM    8  C   UNL     1      -8.970   8.373  65.615  1.00  0.00    -0.183 A  
BRANCH   6   9
HETATM    9  C   UNL     1     -10.740  11.631  66.518  1.00  0.00    -0.272 C  
HETATM   10  O   UNL     1     -11.940  11.832  66.721  1.00  0.00    -0.584 OA 
BRANCH   9  11
HETATM   11  C   UNL     1      -9.825  12.770  66.133  1.00  0.00    -0.269 C  
BRANCH  11  12
HETATM   12  C   UNL     1      -9.334  13.600  67.292  1.00  0.00    -0.233 C  
HETATM   13  O   UNL     1      -8.834  13.108  68.302  1.00  0.00    -0.188 OA 
BRANCH  12  14
HETATM   14  C   UNL     1      -9.479  15.079  67.215  1.00  0.00    -0.212 A  
HETATM   15  C   UNL     1      -8.586  15.773  66.400  1.00  0.00    -0.346 A  
HETATM   16  C   UNL     1      -8.622  17.166  66.337  1.00  0.00    -0.300 A  
HETATM   17  C   UNL     1      -9.553  17.910  67.079  1.00  0.00    -0.286 A  
HETATM   18  C   UNL     1     -10.450  15.789  67.925  1.00  0.00    -0.270 A  
HETATM   19  C   UNL     1     -10.486  17.189  67.851  1.00  0.00    -0.369 A  
BRANCH  17  20
HETATM   20  C   UNL     1      -9.545  19.449  67.086  1.00  0.00    -0.412 C  
HETATM   21  C   UNL     1     -10.211  20.066  65.833  1.00  0.00    -0.527 C  
HETATM   22  C   UNL     1     -10.298  19.984  68.321  1.00  0.00    -0.494 C  
HETATM   23  C   UNL     1      -8.090  19.965  67.122  1.00  0.00    -0.341 C  
ENDBRANCH  17  20
ENDBRANCH  12  14
ENDBRANCH  11  12
ENDBRANCH   9  11
ENDBRANCH   6   9
ENDBRANCH   2   3
TORSDOF 6
ENDMDL
MODEL       97
REMARK 921   NORMALIZED FREE ENERGY PREDICTED BY IDOCK:   -4.94 KCAL/MOL
REMARK 922        TOTAL FREE ENERGY PREDICTED BY IDOCK:   -7.68 KCAL/MOL
REMARK 923 INTER-LIGAND FREE ENERGY PREDICTED BY IDOCK:   -6.60 KCAL/MOL
REMARK 924 INTRA-LIGAND FREE ENERGY PREDICTED BY IDOCK:   -1.08 KCAL/MOL
REMARK 927      BINDING AFFINITY PREDICTED BY RF-SCORE:    0.00 PKD
ROOT
HETATM    1  C   UNL     1      -9.238   7.580  67.987  1.00  0.00    -0.137 C  
HETATM    2  O   UNL     1      -9.568   8.930  67.673  1.00  0.00    -0.142 OA 
ENDROOT
BRANCH   2   3
HETATM    3  C   UNL     1     -10.348   9.567  68.598  1.00  0.00    -0.205 A  
HETATM    4  C   UNL     1     -11.163  10.585  68.104  1.00  0.00    -0.357 A  
HETATM    5  C   UNL     1     -11.990  11.312  68.966  1.00  0.00    -0.393 A  
HETATM    6  C   UNL     1     -12.019  11.015  70.335  1.00  0.00    -0.459 A  
HETATM    7  C   UNL     1     -11.219   9.973  70.819  1.00  0.00    -0.428 A  
HETATM    8  C   UNL     1     -10.398   9.245  69.952  1.00  0.00    -0.241 A  
BRANCH   6   9
HETATM    9  C   UNL     1     -12.898  11.832  71.226  1.00  0.00    -0.308 C  
HETATM   10  O   UNL     1     -13.354  11.329  72.256  1.00  0.00    -0.394 OA 
BRANCH   9  11
HETATM   11  C   UNL     1     -13.295  13.231  70.814  1.00  0.00     0.262 C  
BRANCH  11  12
HETATM   12  C   UNL     1     -12.240  14.280  71.056  1.00  0.00    -0.356 C  
HETATM   13  O   UNL     1     -11.789  14.529  72.172  1.00  0.00    -0.213 OA 
BRANCH  12  14
HETATM   14  C   UNL     1     -11.738  15.062  69.893  1.00  0.00    -0.343 A  
HETATM   15  C   UNL     1     -12.049  14.590  68.618  1.00  0.00    -0.253 A  
HETATM   16  C   UNL     1     -11.552  15.234  67.485  1.00  0.00    -0.223 A  
HETATM   17  C   UNL     1     -10.736  16.372  67.588  1.00  0.00    -0.312 A  
HETATM   18  C   UNL     1     -10.972  16.221  70.025  1.00  0.00    -0.356 A  
HETATM   19  C   UNL     1     -10.482  16.869  68.882  1.00  0.00    -0.346 A  
BRANCH  17  20
HETATM   20  C   UNL     1     -10.109  17.040  66.349  1.00  0.00    -0.325 C  
HETATM   21  C   UNL     1     -10.398  18.557  66.266  1.00  0.00    -0.459 C  
HETATM   22  C   UNL     1      -8.579  16.860  66.360  1.00  0.00    -0.328 C  
HETATM   23  C   UNL     1     -10.682  16.401  65.065  1.00  0.00    -0.279 C  
ENDBRANCH  17  20
ENDBRANCH  12  14
ENDBRANCH  11  12
ENDBRANCH   9  11
ENDBRANCH   6   9
ENDBRANCH   2   3
TORSDOF 6
ENDMDL
MODEL       98
REMARK 921   NORMALIZED FREE ENERGY PREDICTED BY IDOCK:   -4.94 KCAL/MOL
REMARK 922        TOTAL FREE ENERGY PREDICTED BY IDOCK:   -7.68 KCAL/MOL
REMARK 923 INTER-LIGAND FREE ENERGY PREDICTED BY IDOCK:   -6.33 KCAL/MOL
REMARK 924 INTRA-LIGAND FREE ENERGY PREDICTED BY IDOCK:   -1.34 KCAL/MOL
REMARK 927      BINDING AFFINITY PREDICTED BY RF-SCORE:    0.00 PKD
ROOT
HETATM    1  C   UNL     1      -9.318  17.742  68.903  1.00  0.00    -0.155 C  
HETATM    2  O   UNL     1      -8.127  16.967  69.003  1.00  0.00    -0.226 OA 
ENDROOT
BRANCH   2   3
HETATM    3  C   UNL     1      -8.205  15.710  68.471  1.00  0.00    -0.153 A  
HETATM    4  C   UNL     1      -8.940  15.598  67.291  1.00  0.00    -0.214 A  
HETATM    5  C   UNL     1      -9.097  14.354  66.670  1.00  0.00    -0.265 A  
HETATM    6  C   UNL     1      -8.505  13.210  67.221  1.00  0.00    -0.199 A  
HETATM    7  C   UNL     1      -7.746  13.336  68.390  1.00  0.00    -0.138 A  
HETATM    8  C   UNL     1      -7.587  14.581  69.004  1.00  0.00    -0.124 A  
BRANCH   6   9
HETATM    9  C   UNL     1      -8.718  11.896  66.539  1.00  0.00    -0.158 C  
HETATM   10  O   UNL     1      -7.743  11.204  66.237  1.00  0.00    -0.154 OA 
BRANCH   9  11
HETATM   11  C   UNL     1     -10.114  11.471  66.144  1.00  0.00    -0.266 C  
BRANCH  11  12
HETATM   12  C   UNL     1     -10.880  10.752  67.225  1.00  0.00    -0.288 C  
HETATM   13  O   UNL     1     -11.059   9.536  67.220  1.00  0.00    -0.115 OA 
BRANCH  12  14
HETATM   14  C   UNL     1     -11.463  11.554  68.334  1.00  0.00    -0.364 A  
HETATM   15  C   UNL     1     -11.776  12.887  68.069  1.00  0.00    -0.401 A  
HETATM   16  C   UNL     1     -12.259  13.715  69.082  1.00  0.00    -0.265 A  
HETATM   17  C   UNL     1     -12.452  13.239  70.389  1.00  0.00    -0.295 A  
HETATM   18  C   UNL     1     -11.693  11.039  69.611  1.00  0.00    -0.401 A  
HETATM   19  C   UNL     1     -12.187  11.875  70.624  1.00  0.00    -0.424 A  
BRANCH  17  20
HETATM   20  C   UNL     1     -12.900  14.164  71.535  1.00  0.00    -0.430 C  
HETATM   21  C   UNL     1     -11.715  14.772  72.323  1.00  0.00    -0.213 C  
HETATM   22  C   UNL     1     -13.738  15.334  70.984  1.00  0.00    -0.452 C  
HETATM   23  C   UNL     1     -13.752  13.367  72.547  1.00  0.00    -0.636 C  
ENDBRANCH  17  20
ENDBRANCH  12  14
ENDBRANCH  11  12
ENDBRANCH   9  11
ENDBRANCH   6   9
ENDBRANCH   2   3
TORSDOF 6
ENDMDL
MODEL       99
REMARK 921   NORMALIZED FREE ENERGY PREDICTED BY IDOCK:   -4.93 KCAL/MOL
REMARK 922        TOTAL FREE ENERGY PREDICTED BY IDOCK:   -7.67 KCAL/MOL
REMARK 923 INTER-LIGAND FREE ENERGY PREDICTED BY IDOCK:   -6.49 KCAL/MOL
REMARK 924 INTRA-LIGAND FREE ENERGY PREDICTED BY IDOCK:   -1.17 KCAL/MOL
REMARK 927      BINDING AFFINITY PREDICTED BY RF-SCORE:    0.00 PKD
ROOT
HETATM    1  C   UNL     1      -7.652  15.486  69.392  1.00  0.00    -0.225 C  
HETATM    2  O   UNL     1      -7.648  15.539  67.968  1.00  0.00    -0.117 OA 
ENDROOT
BRANCH   2   3
HETATM    3  C   UNL     1      -8.743  14.986  67.364  1.00  0.00    -0.194 A  
HETATM    4  C   UNL     1      -9.087  15.525  66.125  1.00  0.00    -0.359 A  
HETATM    5  C   UNL     1     -10.199  15.043  65.426  1.00  0.00    -0.411 A  
HETATM    6  C   UNL     1     -10.972  14.004  65.960  1.00  0.00    -0.298 A  
HETATM    7  C   UNL     1     -10.605  13.450  67.192  1.00  0.00    -0.259 A  
HETATM    8  C   UNL     1      -9.489  13.931  67.883  1.00  0.00    -0.212 A  
BRANCH   6   9
HETATM    9  C   UNL     1     -12.168  13.536  65.193  1.00  0.00    -0.428 C  
HETATM   10  O   UNL     1     -13.211  14.192  65.236  1.00  0.00    -0.760 OA 
BRANCH   9  11
HETATM   11  C   UNL     1     -12.117  12.221  64.450  1.00  0.00    -0.481 C  
BRANCH  11  12
HETATM   12  C   UNL     1     -10.734  11.786  64.037  1.00  0.00    -0.378 C  
HETATM   13  O   UNL     1     -10.107  12.328  63.129  1.00  0.00    -0.375 OA 
BRANCH  12  14
HETATM   14  C   UNL     1     -10.112  10.637  64.747  1.00  0.00    -0.412 A  
HETATM   15  C   UNL     1      -9.051   9.987  64.116  1.00  0.00    -0.295 A  
HETATM   16  C   UNL     1      -8.468   8.860  64.694  1.00  0.00    -0.185 A  
HETATM   17  C   UNL     1      -8.918   8.348  65.922  1.00  0.00    -0.223 A  
HETATM   18  C   UNL     1     -10.547  10.182  65.994  1.00  0.00    -0.071 A  
HETATM   19  C   UNL     1      -9.950   9.052  66.573  1.00  0.00    -0.355 A  
BRANCH  17  20
HETATM   20  C   UNL     1      -8.342   7.055  66.526  1.00  0.00    -0.121 C  
HETATM   21  C   UNL     1      -9.404   5.945  66.710  1.00  0.00    -0.144 C  
HETATM   22  C   UNL     1      -7.232   6.487  65.619  1.00  0.00    -0.073 C  
HETATM   23  C   UNL     1      -7.751   7.347  67.922  1.00  0.00    -0.116 C  
ENDBRANCH  17  20
ENDBRANCH  12  14
ENDBRANCH  11  12
ENDBRANCH   9  11
ENDBRANCH   6   9
ENDBRANCH   2   3
TORSDOF 6
ENDMDL
MODEL      100
REMARK 921   NORMALIZED FREE ENERGY PREDICTED BY IDOCK:   -4.92 KCAL/MOL
REMARK 922        TOTAL FREE ENERGY PREDICTED BY IDOCK:   -7.64 KCAL/MOL
REMARK 923 INTER-LIGAND FREE ENERGY PREDICTED BY IDOCK:   -6.88 KCAL/MOL
REMARK 924 INTRA-LIGAND FREE ENERGY PREDICTED BY IDOCK:   -0.76 KCAL/MOL
REMARK 927      BINDING AFFINITY PREDICTED BY RF-SCORE:    0.00 PKD
ROOT
HETATM    1  C   UNL     1      -9.352  18.125  68.257  1.00  0.00    -0.303 C  
HETATM    2  O   UNL     1      -9.971  18.088  66.974  1.00  0.00    -0.301 OA 
ENDROOT
BRANCH   2   3
HETATM    3  C   UNL     1     -10.465  16.868  66.603  1.00  0.00    -0.257 A  
HETATM    4  C   UNL     1     -10.934  16.065  67.642  1.00  0.00    -0.284 A  
HETATM    5  C   UNL     1     -11.447  14.791  67.376  1.00  0.00    -0.376 A  
HETATM    6  C   UNL     1     -11.506  14.314  66.060  1.00  0.00    -0.347 A  
HETATM    7  C   UNL     1     -11.059  15.137  65.020  1.00  0.00    -0.428 A  
HETATM    8  C   UNL     1     -10.552  16.412  65.290  1.00  0.00    -0.320 A  
BRANCH   6   9
HETATM    9  C   UNL     1     -12.038  12.937  65.822  1.00  0.00    -0.457 C  
HETATM   10  O   UNL     1     -12.963  12.774  65.023  1.00  0.00    -0.811 OA 
BRANCH   9  11
HETATM   11  C   UNL     1     -11.503  11.774  66.625  1.00  0.00    -0.337 C  
BRANCH  11  12
HETATM   12  C   UNL     1     -10.222  11.182  66.096  1.00  0.00    -0.244 C  
HETATM   13  O   UNL     1      -9.383  11.841  65.485  1.00  0.00    -0.208 OA 
BRANCH  12  14
HETATM   14  C   UNL     1      -9.973   9.730  66.307  1.00  0.00    -0.331 A  
HETATM   15  C   UNL     1      -9.001   9.121  65.513  1.00  0.00    -0.252 A  
HETATM   16  C   UNL     1      -8.767   7.750  65.610  1.00  0.00    -0.132 A  
HETATM   17  C   UNL     1      -9.488   6.944  66.505  1.00  0.00    -0.199 A  
HETATM   18  C   UNL     1     -10.670   8.963  67.243  1.00  0.00    -0.219 A  
HETATM   19  C   UNL     1     -10.423   7.586  67.341  1.00  0.00    -0.367 A  
BRANCH  17  20
HETATM   20  C   UNL     1      -9.301   5.416  66.559  1.00  0.00    -0.150 C  
HETATM   21  C   UNL     1     -10.373   4.645  65.753  1.00  0.00    -0.295 C  
HETATM   22  C   UNL     1      -7.923   5.025  65.989  1.00  0.00    -0.107 C  
HETATM   23  C   UNL     1      -9.398   4.928  68.021  1.00  0.00    -0.160 C  
ENDBRANCH  17  20
ENDBRANCH  12  14
ENDBRANCH  11  12
ENDBRANCH   9  11
ENDBRANCH   6   9
ENDBRANCH   2   3
TORSDOF 6
ENDMDL
MODEL      101
REMARK 921   NORMALIZED FREE ENERGY PREDICTED BY IDOCK:   -4.91 KCAL/MOL
REMARK 922        TOTAL FREE ENERGY PREDICTED BY IDOCK:   -7.64 KCAL/MOL
REMARK 923 INTER-LIGAND FREE ENERGY PREDICTED BY IDOCK:   -6.49 KCAL/MOL
REMARK 924 INTRA-LIGAND FREE ENERGY PREDICTED BY IDOCK:   -1.15 KCAL/MOL
REMARK 927      BINDING AFFINITY PREDICTED BY RF-SCORE:    0.00 PKD
ROOT
HETATM    1  C   UNL     1     -11.971   6.900  71.971  1.00  0.00    -0.306 C  
HETATM    2  O   UNL     1     -10.992   5.894  71.729  1.00  0.00    -0.255 OA 
ENDROOT
BRANCH   2   3
HETATM    3  C   UNL     1     -10.668   5.704  70.413  1.00  0.00    -0.282 A  
HETATM    4  C   UNL     1     -11.370   6.488  69.499  1.00  0.00    -0.419 A  
HETATM    5  C   UNL     1     -11.129   6.363  68.126  1.00  0.00    -0.358 A  
HETATM    6  C   UNL     1     -10.169   5.457  67.658  1.00  0.00    -0.236 A  
HETATM    7  C   UNL     1      -9.448   4.694  68.584  1.00  0.00    -0.213 A  
HETATM    8  C   UNL     1      -9.689   4.826  69.955  1.00  0.00    -0.274 A  
BRANCH   6   9
HETATM    9  C   UNL     1      -9.960   5.337  66.182  1.00  0.00    -0.165 C  
HETATM   10  O   UNL     1     -10.718   4.626  65.518  1.00  0.00    -0.275 OA 
BRANCH   9  11
HETATM   11  C   UNL     1      -8.772   6.009  65.533  1.00  0.00    -0.120 C  
BRANCH  11  12
HETATM   12  C   UNL     1      -8.320   7.277  66.211  1.00  0.00    -0.129 C  
HETATM   13  O   UNL     1      -7.459   7.295  67.089  1.00  0.00    -0.100 OA 
BRANCH  12  14
HETATM   14  C   UNL     1      -8.960   8.560  65.813  1.00  0.00    -0.229 A  
HETATM   15  C   UNL     1      -9.727   9.222  66.772  1.00  0.00    -0.260 A  
HETATM   16  C   UNL     1     -10.412  10.392  66.445  1.00  0.00    -0.246 A  
HETATM   17  C   UNL     1     -10.348  10.943  65.154  1.00  0.00    -0.344 A  
HETATM   18  C   UNL     1      -8.837   9.112  64.536  1.00  0.00    -0.165 A  
HETATM   19  C   UNL     1      -9.521  10.293  64.216  1.00  0.00    -0.365 A  
BRANCH  17  20
HETATM   20  C   UNL     1     -11.169  12.183  64.757  1.00  0.00    -0.373 C  
HETATM   21  C   UNL     1     -12.119  11.926  63.564  1.00  0.00    -0.575 C  
HETATM   22  C   UNL     1     -12.032  12.658  65.943  1.00  0.00    -0.497 C  
HETATM   23  C   UNL     1     -10.219  13.326  64.337  1.00  0.00    -0.300 C  
ENDBRANCH  17  20
ENDBRANCH  12  14
ENDBRANCH  11  12
ENDBRANCH   9  11
ENDBRANCH   6   9
ENDBRANCH   2   3
TORSDOF 6
ENDMDL
MODEL      102
REMARK 921   NORMALIZED FREE ENERGY PREDICTED BY IDOCK:   -4.85 KCAL/MOL
REMARK 922        TOTAL FREE ENERGY PREDICTED BY IDOCK:   -7.56 KCAL/MOL
REMARK 923 INTER-LIGAND FREE ENERGY PREDICTED BY IDOCK:   -6.51 KCAL/MOL
REMARK 924 INTRA-LIGAND FREE ENERGY PREDICTED BY IDOCK:   -1.04 KCAL/MOL
REMARK 927      BINDING AFFINITY PREDICTED BY RF-SCORE:    0.00 PKD
ROOT
HETATM    1  C   UNL     1     -11.117  12.743  65.320  1.00  0.00    -0.287 C  
HETATM    2  O   UNL     1     -11.793  13.097  66.523  1.00  0.00    -0.366 OA 
ENDROOT
BRANCH   2   3
HETATM    3  C   UNL     1     -11.589  12.249  67.575  1.00  0.00    -0.353 A  
HETATM    4  C   UNL     1     -10.961  11.042  67.266  1.00  0.00    -0.356 A  
HETATM    5  C   UNL     1     -10.717  10.094  68.266  1.00  0.00    -0.277 A  
HETATM    6  C   UNL     1     -11.090  10.354  69.591  1.00  0.00    -0.328 A  
HETATM    7  C   UNL     1     -11.694  11.579  69.898  1.00  0.00    -0.420 A  
HETATM    8  C   UNL     1     -11.930  12.525  68.897  1.00  0.00    -0.282 A  
BRANCH   6   9
HETATM    9  C   UNL     1     -10.833   9.303  70.625  1.00  0.00    -0.278 C  
HETATM   10  O   UNL     1      -9.743   9.271  71.199  1.00  0.00    -0.283 OA 
BRANCH   9  11
HETATM   11  C   UNL     1     -11.873   8.239  70.889  1.00  0.00    -0.232 C  
BRANCH  11  12
HETATM   12  C   UNL     1     -11.332   6.833  70.950  1.00  0.00    -0.315 C  
HETATM   13  O   UNL     1     -11.205   6.212  72.003  1.00  0.00    -0.258 OA 
BRANCH  12  14
HETATM   14  C   UNL     1     -10.915   6.179  69.681  1.00  0.00    -0.459 A  
HETATM   15  C   UNL     1     -10.143   5.022  69.776  1.00  0.00    -0.337 A  
HETATM   16  C   UNL     1      -9.659   4.398  68.626  1.00  0.00    -0.216 A  
HETATM   17  C   UNL     1      -9.936   4.904  67.346  1.00  0.00    -0.209 A  
HETATM   18  C   UNL     1     -11.250   6.676  68.419  1.00  0.00    -0.215 A  
HETATM   19  C   UNL     1     -10.768   6.039  67.267  1.00  0.00    -0.400 A  
BRANCH  17  20
HETATM   20  C   UNL     1      -9.336   4.276  66.074  1.00  0.00    -0.163 C  
HETATM   21  C   UNL     1     -10.359   4.143  64.922  1.00  0.00    -0.210 C  
HETATM   22  C   UNL     1      -8.163   5.131  65.556  1.00  0.00    -0.121 C  
HETATM   23  C   UNL     1      -8.822   2.853  66.386  1.00  0.00    -0.149 C  
ENDBRANCH  17  20
ENDBRANCH  12  14
ENDBRANCH  11  12
ENDBRANCH   9  11
ENDBRANCH   6   9
ENDBRANCH   2   3
TORSDOF 6
ENDMDL
MODEL      103
REMARK 921   NORMALIZED FREE ENERGY PREDICTED BY IDOCK:   -4.85 KCAL/MOL
REMARK 922        TOTAL FREE ENERGY PREDICTED BY IDOCK:   -7.55 KCAL/MOL
REMARK 923 INTER-LIGAND FREE ENERGY PREDICTED BY IDOCK:   -6.56 KCAL/MOL
REMARK 924 INTRA-LIGAND FREE ENERGY PREDICTED BY IDOCK:   -0.99 KCAL/MOL
REMARK 927      BINDING AFFINITY PREDICTED BY RF-SCORE:    0.00 PKD
ROOT
HETATM    1  C   UNL     1      -5.678  13.353  67.478  1.00  0.00     0.010 C  
HETATM    2  O   UNL     1      -6.267  14.577  67.046  1.00  0.00    -0.055 OA 
ENDROOT
BRANCH   2   3
HETATM    3  C   UNL     1      -7.537  14.800  67.500  1.00  0.00    -0.193 A  
HETATM    4  C   UNL     1      -7.662  15.003  68.874  1.00  0.00    -0.152 A  
HETATM    5  C   UNL     1      -8.919  15.226  69.446  1.00  0.00    -0.225 A  
HETATM    6  C   UNL     1     -10.065  15.260  68.641  1.00  0.00    -0.222 A  
HETATM    7  C   UNL     1      -9.928  15.083  67.259  1.00  0.00    -0.233 A  
HETATM    8  C   UNL     1      -8.669  14.867  66.691  1.00  0.00    -0.262 A  
BRANCH   6   9
HETATM    9  C   UNL     1     -11.392  15.476  69.295  1.00  0.00    -0.325 C  
HETATM   10  O   UNL     1     -12.281  16.074  68.683  1.00  0.00    -0.080 OA 
BRANCH   9  11
HETATM   11  C   UNL     1     -11.604  15.043  70.728  1.00  0.00    -0.364 C  
BRANCH  11  12
HETATM   12  C   UNL     1     -12.817  14.176  70.949  1.00  0.00    -0.334 C  
HETATM   13  O   UNL     1     -13.938  14.636  71.159  1.00  0.00    -0.367 OA 
BRANCH  12  14
HETATM   14  C   UNL     1     -12.644  12.698  70.934  1.00  0.00    -0.338 A  
HETATM   15  C   UNL     1     -13.371  11.955  71.863  1.00  0.00    -0.405 A  
HETATM   16  C   UNL     1     -13.203  10.573  71.950  1.00  0.00    -0.526 A  
HETATM   17  C   UNL     1     -12.311   9.888  71.109  1.00  0.00    -0.466 A  
HETATM   18  C   UNL     1     -11.788  12.038  70.049  1.00  0.00    -0.392 A  
HETATM   19  C   UNL     1     -11.630  10.648  70.136  1.00  0.00    -0.414 A  
BRANCH  17  20
HETATM   20  C   UNL     1     -12.052   8.377  71.253  1.00  0.00    -0.315 C  
HETATM   21  C   UNL     1     -11.313   8.011  72.562  1.00  0.00    -0.469 C  
HETATM   22  C   UNL     1     -13.384   7.601  71.241  1.00  0.00    -0.276 C  
HETATM   23  C   UNL     1     -11.170   7.884  70.085  1.00  0.00    -0.157 C  
ENDBRANCH  17  20
ENDBRANCH  12  14
ENDBRANCH  11  12
ENDBRANCH   9  11
ENDBRANCH   6   9
ENDBRANCH   2   3
TORSDOF 6
ENDMDL
MODEL      104
REMARK 921   NORMALIZED FREE ENERGY PREDICTED BY IDOCK:   -4.84 KCAL/MOL
REMARK 922        TOTAL FREE ENERGY PREDICTED BY IDOCK:   -7.53 KCAL/MOL
REMARK 923 INTER-LIGAND FREE ENERGY PREDICTED BY IDOCK:   -6.79 KCAL/MOL
REMARK 924 INTRA-LIGAND FREE ENERGY PREDICTED BY IDOCK:   -0.75 KCAL/MOL
REMARK 927      BINDING AFFINITY PREDICTED BY RF-SCORE:    0.00 PKD
ROOT
HETATM    1  C   UNL     1     -10.685   5.819  73.453  1.00  0.00    -0.273 C  
HETATM    2  O   UNL     1     -11.717   6.079  72.505  1.00  0.00    -0.292 OA 
ENDROOT
BRANCH   2   3
HETATM    3  C   UNL     1     -11.437   7.064  71.600  1.00  0.00    -0.266 A  
HETATM    4  C   UNL     1     -11.471   8.367  72.095  1.00  0.00    -0.442 A  
HETATM    5  C   UNL     1     -11.215   9.453  71.250  1.00  0.00    -0.437 A  
HETATM    6  C   UNL     1     -10.910   9.240  69.899  1.00  0.00    -0.252 A  
HETATM    7  C   UNL     1     -10.851   7.928  69.417  1.00  0.00    -0.114 A  
HETATM    8  C   UNL     1     -11.101   6.846  70.266  1.00  0.00    -0.342 A  
BRANCH   6   9
HETATM    9  C   UNL     1     -10.668  10.429  69.025  1.00  0.00    -0.228 C  
HETATM   10  O   UNL     1      -9.536  10.635  68.581  1.00  0.00    -0.164 OA 
BRANCH   9  11
HETATM   11  C   UNL     1     -11.785  11.414  68.769  1.00  0.00    -0.404 C  
BRANCH  11  12
HETATM   12  C   UNL     1     -11.632  12.225  67.507  1.00  0.00    -0.353 C  
HETATM   13  O   UNL     1     -12.120  11.886  66.432  1.00  0.00    -0.552 OA 
BRANCH  12  14
HETATM   14  C   UNL     1     -10.836  13.480  67.565  1.00  0.00    -0.276 A  
HETATM   15  C   UNL     1     -11.004  14.299  68.682  1.00  0.00    -0.268 A  
HETATM   16  C   UNL     1     -10.342  15.523  68.767  1.00  0.00    -0.217 A  
HETATM   17  C   UNL     1      -9.486  15.967  67.746  1.00  0.00    -0.217 A  
HETATM   18  C   UNL     1      -9.951  13.872  66.558  1.00  0.00    -0.288 A  
HETATM   19  C   UNL     1      -9.282  15.101  66.654  1.00  0.00    -0.298 A  
BRANCH  17  20
HETATM   20  C   UNL     1      -8.820  17.355  67.787  1.00  0.00    -0.232 C  
HETATM   21  C   UNL     1      -8.096  17.720  66.470  1.00  0.00    -0.305 C  
HETATM   22  C   UNL     1      -9.873  18.448  68.056  1.00  0.00    -0.359 C  
HETATM   23  C   UNL     1      -7.758  17.392  68.909  1.00  0.00    -0.209 C  
ENDBRANCH  17  20
ENDBRANCH  12  14
ENDBRANCH  11  12
ENDBRANCH   9  11
ENDBRANCH   6   9
ENDBRANCH   2   3
TORSDOF 6
ENDMDL
MODEL      105
REMARK 921   NORMALIZED FREE ENERGY PREDICTED BY IDOCK:   -4.82 KCAL/MOL
REMARK 922        TOTAL FREE ENERGY PREDICTED BY IDOCK:   -7.52 KCAL/MOL
REMARK 923 INTER-LIGAND FREE ENERGY PREDICTED BY IDOCK:   -5.92 KCAL/MOL
REMARK 924 INTRA-LIGAND FREE ENERGY PREDICTED BY IDOCK:   -1.59 KCAL/MOL
REMARK 927      BINDING AFFINITY PREDICTED BY RF-SCORE:    0.00 PKD
ROOT
HETATM    1  C   UNL     1     -12.780  12.148  63.495  1.00  0.00    -0.431 C  
HETATM    2  O   UNL     1     -12.447  12.184  64.880  1.00  0.00    -0.467 OA 
ENDROOT
BRANCH   2   3
HETATM    3  C   UNL     1     -11.513  13.120  65.228  1.00  0.00    -0.301 A  
HETATM    4  C   UNL     1     -10.751  12.824  66.358  1.00  0.00    -0.282 A  
HETATM    5  C   UNL     1      -9.777  13.720  66.811  1.00  0.00    -0.277 A  
HETATM    6  C   UNL     1      -9.549  14.920  66.125  1.00  0.00    -0.340 A  
HETATM    7  C   UNL     1     -10.298  15.198  64.977  1.00  0.00    -0.377 A  
HETATM    8  C   UNL     1     -11.266  14.297  64.524  1.00  0.00    -0.331 A  
BRANCH   6   9
HETATM    9  C   UNL     1      -8.515  15.862  66.658  1.00  0.00    -0.287 C  
HETATM   10  O   UNL     1      -7.458  15.412  67.105  1.00  0.00    -0.205 OA 
BRANCH   9  11
HETATM   11  C   UNL     1      -8.812  17.342  66.727  1.00  0.00    -0.269 C  
BRANCH  11  12
HETATM   12  C   UNL     1      -9.306  17.821  68.068  1.00  0.00    -0.276 C  
HETATM   13  O   UNL     1      -9.061  18.943  68.508  1.00  0.00    -0.330 OA 
BRANCH  12  14
HETATM   14  C   UNL     1     -10.109  16.887  68.902  1.00  0.00    -0.297 A  
HETATM   15  C   UNL     1     -11.447  16.702  68.556  1.00  0.00    -0.043 A  
HETATM   16  C   UNL     1     -12.275  15.895  69.336  1.00  0.00    -0.080 A  
HETATM   17  C   UNL     1     -11.793  15.242  70.482  1.00  0.00    -0.363 A  
HETATM   18  C   UNL     1      -9.589  16.209  70.007  1.00  0.00     0.429 A  
HETATM   19  C   UNL     1     -10.425  15.393  70.783  1.00  0.00     0.038 A  
BRANCH  17  20
HETATM   20  C   UNL     1     -12.717  14.421  71.400  1.00  0.00    -0.413 C  
HETATM   21  C   UNL     1     -14.217  14.731  71.186  1.00  0.00    -0.298 C  
HETATM   22  C   UNL     1     -12.516  12.912  71.152  1.00  0.00    -0.344 C  
HETATM   23  C   UNL     1     -12.399  14.735  72.878  1.00  0.00    -0.383 C  
ENDBRANCH  17  20
ENDBRANCH  12  14
ENDBRANCH  11  12
ENDBRANCH   9  11
ENDBRANCH   6   9
ENDBRANCH   2   3
TORSDOF 6
ENDMDL
MODEL      106
REMARK 921   NORMALIZED FREE ENERGY PREDICTED BY IDOCK:   -4.82 KCAL/MOL
REMARK 922        TOTAL FREE ENERGY PREDICTED BY IDOCK:   -7.51 KCAL/MOL
REMARK 923 INTER-LIGAND FREE ENERGY PREDICTED BY IDOCK:   -6.20 KCAL/MOL
REMARK 924 INTRA-LIGAND FREE ENERGY PREDICTED BY IDOCK:   -1.31 KCAL/MOL
REMARK 927      BINDING AFFINITY PREDICTED BY RF-SCORE:    0.00 PKD
ROOT
HETATM    1  C   UNL     1     -10.469   4.748  72.352  1.00  0.00    -0.195 C  
HETATM    2  O   UNL     1     -11.581   5.479  72.862  1.00  0.00    -0.297 OA 
ENDROOT
BRANCH   2   3
HETATM    3  C   UNL     1     -11.755   6.723  72.321  1.00  0.00    -0.263 A  
HETATM    4  C   UNL     1     -10.675   7.594  72.449  1.00  0.00    -0.333 A  
HETATM    5  C   UNL     1     -10.752   8.897  71.944  1.00  0.00    -0.426 A  
HETATM    6  C   UNL     1     -11.913   9.334  71.293  1.00  0.00    -0.414 A  
HETATM    7  C   UNL     1     -12.982   8.444  71.145  1.00  0.00    -0.065 A  
HETATM    8  C   UNL     1     -12.899   7.142  71.645  1.00  0.00    -0.420 A  
BRANCH   6   9
HETATM    9  C   UNL     1     -11.963  10.742  70.791  1.00  0.00    -0.362 C  
HETATM   10  O   UNL     1     -12.880  11.483  71.153  1.00  0.00    -0.371 OA 
BRANCH   9  11
HETATM   11  C   UNL     1     -10.947  11.216  69.777  1.00  0.00    -0.216 C  
BRANCH  11  12
HETATM   12  C   UNL     1     -11.238  10.805  68.356  1.00  0.00    -0.284 C  
HETATM   13  O   UNL     1     -12.071  11.374  67.654  1.00  0.00    -0.630 OA 
BRANCH  12  14
HETATM   14  C   UNL     1     -10.498   9.646  67.789  1.00  0.00    -0.309 A  
HETATM   15  C   UNL     1      -9.851   9.830  66.567  1.00  0.00    -0.286 A  
HETATM   16  C   UNL     1      -9.199   8.767  65.945  1.00  0.00    -0.282 A  
HETATM   17  C   UNL     1      -9.164   7.488  66.524  1.00  0.00    -0.217 A  
HETATM   18  C   UNL     1     -10.436   8.398  68.413  1.00  0.00    -0.208 A  
HETATM   19  C   UNL     1      -9.771   7.335  67.786  1.00  0.00    -0.167 A  
BRANCH  17  20
HETATM   20  C   UNL     1      -8.523   6.285  65.806  1.00  0.00    -0.148 C  
HETATM   21  C   UNL     1      -9.508   5.113  65.589  1.00  0.00    -0.129 C  
HETATM   22  C   UNL     1      -7.994   6.708  64.421  1.00  0.00    -0.097 C  
HETATM   23  C   UNL     1      -7.350   5.738  66.648  1.00  0.00    -0.082 C  
ENDBRANCH  17  20
ENDBRANCH  12  14
ENDBRANCH  11  12
ENDBRANCH   9  11
ENDBRANCH   6   9
ENDBRANCH   2   3
TORSDOF 6
ENDMDL
MODEL      107
REMARK 921   NORMALIZED FREE ENERGY PREDICTED BY IDOCK:   -4.80 KCAL/MOL
REMARK 922        TOTAL FREE ENERGY PREDICTED BY IDOCK:   -7.48 KCAL/MOL
REMARK 923 INTER-LIGAND FREE ENERGY PREDICTED BY IDOCK:   -5.65 KCAL/MOL
REMARK 924 INTRA-LIGAND FREE ENERGY PREDICTED BY IDOCK:   -1.83 KCAL/MOL
REMARK 927      BINDING AFFINITY PREDICTED BY RF-SCORE:    0.00 PKD
ROOT
HETATM    1  C   UNL     1     -13.043   9.758  72.030  1.00  0.00    -0.452 C  
HETATM    2  O   UNL     1     -11.733   9.758  71.469  1.00  0.00    -0.379 OA 
ENDROOT
BRANCH   2   3
HETATM    3  C   UNL     1     -11.184   8.521  71.276  1.00  0.00    -0.265 A  
HETATM    4  C   UNL     1      -9.791   8.468  71.289  1.00  0.00    -0.279 A  
HETATM    5  C   UNL     1      -9.126   7.254  71.086  1.00  0.00    -0.152 A  
HETATM    6  C   UNL     1      -9.855   6.075  70.880  1.00  0.00    -0.222 A  
HETATM    7  C   UNL     1     -11.254   6.132  70.897  1.00  0.00    -0.365 A  
HETATM    8  C   UNL     1     -11.914   7.346  71.105  1.00  0.00    -0.351 A  
BRANCH   6   9
HETATM    9  C   UNL     1      -9.106   4.803  70.642  1.00  0.00    -0.128 C  
HETATM   10  O   UNL     1      -8.041   4.607  71.233  1.00  0.00    -0.091 OA 
BRANCH   9  11
HETATM   11  C   UNL     1      -9.608   3.815  69.615  1.00  0.00    -0.242 C  
BRANCH  11  12
HETATM   12  C   UNL     1      -9.267   4.162  68.189  1.00  0.00    -0.147 C  
HETATM   13  O   UNL     1      -8.837   3.337  67.385  1.00  0.00    -0.111 OA 
BRANCH  12  14
HETATM   14  C   UNL     1      -9.440   5.571  67.742  1.00  0.00    -0.125 A  
HETATM   15  C   UNL     1      -8.288   6.340  67.577  1.00  0.00    -0.113 A  
HETATM   16  C   UNL     1      -8.382   7.687  67.229  1.00  0.00    -0.115 A  
HETATM   17  C   UNL     1      -9.625   8.308  67.027  1.00  0.00    -0.249 A  
HETATM   18  C   UNL     1     -10.688   6.147  67.497  1.00  0.00    -0.393 A  
HETATM   19  C   UNL     1     -10.775   7.500  67.139  1.00  0.00    -0.379 A  
BRANCH  17  20
HETATM   20  C   UNL     1      -9.745   9.814  66.729  1.00  0.00    -0.248 C  
HETATM   21  C   UNL     1     -10.995  10.462  67.370  1.00  0.00    -0.335 C  
HETATM   22  C   UNL     1      -8.509  10.566  67.261  1.00  0.00    -0.122 C  
HETATM   23  C   UNL     1      -9.853  10.038  65.205  1.00  0.00    -0.388 C  
ENDBRANCH  17  20
ENDBRANCH  12  14
ENDBRANCH  11  12
ENDBRANCH   9  11
ENDBRANCH   6   9
ENDBRANCH   2   3
TORSDOF 6
ENDMDL
MODEL      108
REMARK 921   NORMALIZED FREE ENERGY PREDICTED BY IDOCK:   -4.77 KCAL/MOL
REMARK 922        TOTAL FREE ENERGY PREDICTED BY IDOCK:   -7.45 KCAL/MOL
REMARK 923 INTER-LIGAND FREE ENERGY PREDICTED BY IDOCK:   -6.39 KCAL/MOL
REMARK 924 INTRA-LIGAND FREE ENERGY PREDICTED BY IDOCK:   -1.06 KCAL/MOL
REMARK 927      BINDING AFFINITY PREDICTED BY RF-SCORE:    0.00 PKD
ROOT
HETATM    1  C   UNL     1     -10.385  14.329  65.839  1.00  0.00    -0.314 C  
HETATM    2  O   UNL     1     -11.100  13.097  65.883  1.00  0.00    -0.277 OA 
ENDROOT
BRANCH   2   3
HETATM    3  C   UNL     1     -11.351  12.617  67.139  1.00  0.00    -0.319 A  
HETATM    4  C   UNL     1     -11.282  11.232  67.282  1.00  0.00    -0.364 A  
HETATM    5  C   UNL     1     -11.537  10.634  68.521  1.00  0.00    -0.279 A  
HETATM    6  C   UNL     1     -11.851  11.423  69.635  1.00  0.00    -0.431 A  
HETATM    7  C   UNL     1     -11.891  12.815  69.489  1.00  0.00    -0.379 A  
HETATM    8  C   UNL     1     -11.630  13.408  68.251  1.00  0.00    -0.379 A  
BRANCH   6   9
HETATM    9  C   UNL     1     -12.141  10.742  70.935  1.00  0.00    -0.370 C  
HETATM   10  O   UNL     1     -13.100  11.116  71.614  1.00  0.00    -0.449 OA 
BRANCH   9  11
HETATM   11  C   UNL     1     -11.207   9.670  71.447  1.00  0.00    -0.426 C  
BRANCH  11  12
HETATM   12  C   UNL     1     -11.676   8.259  71.199  1.00  0.00    -0.280 C  
HETATM   13  O   UNL     1     -12.756   7.833  71.605  1.00  0.00    -0.318 OA 
BRANCH  12  14
HETATM   14  C   UNL     1     -10.782   7.337  70.448  1.00  0.00    -0.253 A  
HETATM   15  C   UNL     1      -9.720   7.902  69.743  1.00  0.00    -0.176 A  
HETATM   16  C   UNL     1      -8.886   7.104  68.961  1.00  0.00    -0.131 A  
HETATM   17  C   UNL     1      -9.079   5.717  68.863  1.00  0.00    -0.125 A  
HETATM   18  C   UNL     1     -10.967   5.953  70.411  1.00  0.00    -0.376 A  
HETATM   19  C   UNL     1     -10.120   5.155  69.629  1.00  0.00    -0.332 A  
BRANCH  17  20
HETATM   20  C   UNL     1      -8.220   4.838  67.935  1.00  0.00    -0.096 C  
HETATM   21  C   UNL     1      -6.832   4.504  68.529  1.00  0.00    -0.051 C  
HETATM   22  C   UNL     1      -8.935   3.503  67.648  1.00  0.00    -0.168 C  
HETATM   23  C   UNL     1      -7.973   5.573  66.599  1.00  0.00    -0.101 C  
ENDBRANCH  17  20
ENDBRANCH  12  14
ENDBRANCH  11  12
ENDBRANCH   9  11
ENDBRANCH   6   9
ENDBRANCH   2   3
TORSDOF 6
ENDMDL
MODEL      109
REMARK 921   NORMALIZED FREE ENERGY PREDICTED BY IDOCK:   -4.75 KCAL/MOL
REMARK 922        TOTAL FREE ENERGY PREDICTED BY IDOCK:   -7.42 KCAL/MOL
REMARK 923 INTER-LIGAND FREE ENERGY PREDICTED BY IDOCK:   -6.04 KCAL/MOL
REMARK 924 INTRA-LIGAND FREE ENERGY PREDICTED BY IDOCK:   -1.38 KCAL/MOL
REMARK 927      BINDING AFFINITY PREDICTED BY RF-SCORE:    0.00 PKD
ROOT
HETATM    1  C   UNL     1     -10.561  17.407  68.697  1.00  0.00    -0.318 C  
HETATM    2  O   UNL     1     -10.603  16.177  67.978  1.00  0.00    -0.282 OA 
ENDROOT
BRANCH   2   3
HETATM    3  C   UNL     1     -11.130  15.120  68.667  1.00  0.00    -0.271 A  
HETATM    4  C   UNL     1     -11.390  15.348  70.018  1.00  0.00    -0.322 A  
HETATM    5  C   UNL     1     -11.915  14.329  70.820  1.00  0.00    -0.390 A  
HETATM    6  C   UNL     1     -12.197  13.072  70.271  1.00  0.00    -0.368 A  
HETATM    7  C   UNL     1     -11.959  12.859  68.908  1.00  0.00    -0.291 A  
HETATM    8  C   UNL     1     -11.439  13.882  68.109  1.00  0.00    -0.346 A  
BRANCH   6   9
HETATM    9  C   UNL     1     -12.734  12.003  71.169  1.00  0.00    -0.266 C  
HETATM   10  O   UNL     1     -13.066  12.289  72.321  1.00  0.00    -0.396 OA 
BRANCH   9  11
HETATM   11  C   UNL     1     -12.778  10.570  70.689  1.00  0.00    -0.441 C  
BRANCH  11  12
HETATM   12  C   UNL     1     -11.460   9.843  70.758  1.00  0.00    -0.354 C  
HETATM   13  O   UNL     1     -11.034   9.327  71.789  1.00  0.00    -0.369 OA 
BRANCH  12  14
HETATM   14  C   UNL     1     -10.629   9.766  69.526  1.00  0.00    -0.253 A  
HETATM   15  C   UNL     1      -9.273  10.071  69.643  1.00  0.00    -0.236 A  
HETATM   16  C   UNL     1      -8.452  10.086  68.516  1.00  0.00    -0.115 A  
HETATM   17  C   UNL     1      -8.955   9.791  67.238  1.00  0.00    -0.146 A  
HETATM   18  C   UNL     1     -11.146   9.417  68.276  1.00  0.00     0.005 A  
HETATM   19  C   UNL     1     -10.313   9.427  67.148  1.00  0.00    -0.326 A  
BRANCH  17  20
HETATM   20  C   UNL     1      -8.079   9.891  65.975  1.00  0.00    -0.120 C  
HETATM   21  C   UNL     1      -7.433   8.543  65.577  1.00  0.00    -0.085 C  
HETATM   22  C   UNL     1      -8.920  10.373  64.777  1.00  0.00    -0.228 C  
HETATM   23  C   UNL     1      -6.926  10.890  66.216  1.00  0.00    -0.120 C  
ENDBRANCH  17  20
ENDBRANCH  12  14
ENDBRANCH  11  12
ENDBRANCH   9  11
ENDBRANCH   6   9
ENDBRANCH   2   3
TORSDOF 6
ENDMDL
MODEL      110
REMARK 921   NORMALIZED FREE ENERGY PREDICTED BY IDOCK:   -4.75 KCAL/MOL
REMARK 922        TOTAL FREE ENERGY PREDICTED BY IDOCK:   -7.42 KCAL/MOL
REMARK 923 INTER-LIGAND FREE ENERGY PREDICTED BY IDOCK:   -6.25 KCAL/MOL
REMARK 924 INTRA-LIGAND FREE ENERGY PREDICTED BY IDOCK:   -1.18 KCAL/MOL
REMARK 927      BINDING AFFINITY PREDICTED BY RF-SCORE:    0.00 PKD
ROOT
HETATM    1  C   UNL     1      -7.114  18.649  65.746  1.00  0.00    -0.226 C  
HETATM    2  O   UNL     1      -8.065  18.843  66.790  1.00  0.00    -0.251 OA 
ENDROOT
BRANCH   2   3
HETATM    3  C   UNL     1      -8.947  17.814  66.969  1.00  0.00    -0.252 A  
HETATM    4  C   UNL     1      -8.775  16.716  66.128  1.00  0.00    -0.322 A  
HETATM    5  C   UNL     1      -9.632  15.614  66.216  1.00  0.00    -0.337 A  
HETATM    6  C   UNL     1     -10.666  15.598  67.161  1.00  0.00    -0.314 A  
HETATM    7  C   UNL     1     -10.816  16.693  68.020  1.00  0.00    -0.337 A  
HETATM    8  C   UNL     1      -9.953  17.789  67.932  1.00  0.00    -0.322 A  
BRANCH   6   9
HETATM    9  C   UNL     1     -11.576  14.412  67.205  1.00  0.00    -0.386 C  
HETATM   10  O   UNL     1     -12.424  14.264  66.321  1.00  0.00    -0.445 OA 
BRANCH   9  11
HETATM   11  C   UNL     1     -11.511  13.458  68.375  1.00  0.00    -0.351 C  
BRANCH  11  12
HETATM   12  C   UNL     1     -11.461  12.000  67.995  1.00  0.00    -0.328 C  
HETATM   13  O   UNL     1     -12.303  11.184  68.366  1.00  0.00    -0.556 OA 
BRANCH  12  14
HETATM   14  C   UNL     1     -10.332  11.527  67.150  1.00  0.00    -0.248 A  
HETATM   15  C   UNL     1     -10.634  11.073  65.866  1.00  0.00    -0.270 A  
HETATM   16  C   UNL     1      -9.633  10.551  65.047  1.00  0.00    -0.331 A  
HETATM   17  C   UNL     1      -8.299  10.470  65.479  1.00  0.00    -0.170 A  
HETATM   18  C   UNL     1      -9.006  11.507  67.588  1.00  0.00    -0.160 A  
HETATM   19  C   UNL     1      -8.003  10.988  66.756  1.00  0.00    -0.152 A  
BRANCH  17  20
HETATM   20  C   UNL     1      -7.203   9.815  64.620  1.00  0.00    -0.131 C  
HETATM   21  C   UNL     1      -7.369  10.094  63.108  1.00  0.00    -0.141 C  
HETATM   22  C   UNL     1      -5.812  10.335  65.036  1.00  0.00    -0.133 C  
HETATM   23  C   UNL     1      -7.241   8.282  64.801  1.00  0.00    -0.082 C  
ENDBRANCH  17  20
ENDBRANCH  12  14
ENDBRANCH  11  12
ENDBRANCH   9  11
ENDBRANCH   6   9
ENDBRANCH   2   3
TORSDOF 6
ENDMDL
MODEL      111
REMARK 921   NORMALIZED FREE ENERGY PREDICTED BY IDOCK:   -4.75 KCAL/MOL
REMARK 922        TOTAL FREE ENERGY PREDICTED BY IDOCK:   -7.42 KCAL/MOL
REMARK 923 INTER-LIGAND FREE ENERGY PREDICTED BY IDOCK:   -6.21 KCAL/MOL
REMARK 924 INTRA-LIGAND FREE ENERGY PREDICTED BY IDOCK:   -1.21 KCAL/MOL
REMARK 927      BINDING AFFINITY PREDICTED BY RF-SCORE:    0.00 PKD
ROOT
HETATM    1  C   UNL     1     -12.096  15.538  64.025  1.00  0.00     0.074 C  
HETATM    2  O   UNL     1     -12.632  14.235  63.807  1.00  0.00    -0.821 OA 
ENDROOT
BRANCH   2   3
HETATM    3  C   UNL     1     -11.872  13.207  64.293  1.00  0.00    -0.406 A  
HETATM    4  C   UNL     1     -12.090  12.875  65.630  1.00  0.00    -0.511 A  
HETATM    5  C   UNL     1     -11.356  11.848  66.233  1.00  0.00    -0.394 A  
HETATM    6  C   UNL     1     -10.403  11.134  65.495  1.00  0.00    -0.326 A  
HETATM    7  C   UNL     1     -10.210  11.455  64.147  1.00  0.00    -0.376 A  
HETATM    8  C   UNL     1     -10.950  12.478  63.547  1.00  0.00    -0.472 A  
BRANCH   6   9
HETATM    9  C   UNL     1      -9.622  10.061  66.185  1.00  0.00    -0.210 C  
HETATM   10  O   UNL     1     -10.067   8.911  66.215  1.00  0.00    -0.293 OA 
BRANCH   9  11
HETATM   11  C   UNL     1      -8.346  10.410  66.916  1.00  0.00    -0.124 C  
BRANCH  11  12
HETATM   12  C   UNL     1      -8.546  11.182  68.195  1.00  0.00    -0.140 C  
HETATM   13  O   UNL     1      -8.656  10.640  69.292  1.00  0.00    -0.151 OA 
BRANCH  12  14
HETATM   14  C   UNL     1      -8.632  12.666  68.120  1.00  0.00    -0.188 A  
HETATM   15  C   UNL     1      -7.602  13.339  67.465  1.00  0.00    -0.169 A  
HETATM   16  C   UNL     1      -7.584  14.733  67.419  1.00  0.00    -0.228 A  
HETATM   17  C   UNL     1      -8.597  15.499  68.019  1.00  0.00    -0.155 A  
HETATM   18  C   UNL     1      -9.680  13.399  68.681  1.00  0.00    -0.084 A  
HETATM   19  C   UNL     1      -9.660  14.801  68.625  1.00  0.00    -0.218 A  
BRANCH  17  20
HETATM   20  C   UNL     1      -8.543  17.037  68.052  1.00  0.00    -0.217 C  
HETATM   21  C   UNL     1      -8.566  17.676  66.644  1.00  0.00    -0.282 C  
HETATM   22  C   UNL     1      -9.746  17.599  68.835  1.00  0.00    -0.258 C  
HETATM   23  C   UNL     1      -7.237  17.501  68.735  1.00  0.00    -0.257 C  
ENDBRANCH  17  20
ENDBRANCH  12  14
ENDBRANCH  11  12
ENDBRANCH   9  11
ENDBRANCH   6   9
ENDBRANCH   2   3
TORSDOF 6
ENDMDL
MODEL      112
REMARK 921   NORMALIZED FREE ENERGY PREDICTED BY IDOCK:   -4.73 KCAL/MOL
REMARK 922        TOTAL FREE ENERGY PREDICTED BY IDOCK:   -7.40 KCAL/MOL
REMARK 923 INTER-LIGAND FREE ENERGY PREDICTED BY IDOCK:   -6.12 KCAL/MOL
REMARK 924 INTRA-LIGAND FREE ENERGY PREDICTED BY IDOCK:   -1.28 KCAL/MOL
REMARK 927      BINDING AFFINITY PREDICTED BY RF-SCORE:    0.00 PKD
ROOT
HETATM    1  C   UNL     1      -5.867  10.611  70.752  1.00  0.00    -0.084 C  
HETATM    2  O   UNL     1      -6.628   9.766  71.612  1.00  0.00    -0.306 OA 
ENDROOT
BRANCH   2   3
HETATM    3  C   UNL     1      -7.562   8.990  70.985  1.00  0.00    -0.115 A  
HETATM    4  C   UNL     1      -7.061   8.038  70.097  1.00  0.00    -0.049 A  
HETATM    5  C   UNL     1      -7.930   7.201  69.390  1.00  0.00    -0.125 A  
HETATM    6  C   UNL     1      -9.315   7.302  69.577  1.00  0.00    -0.152 A  
HETATM    7  C   UNL     1      -9.809   8.240  70.490  1.00  0.00    -0.197 A  
HETATM    8  C   UNL     1      -8.936   9.071  71.199  1.00  0.00    -0.303 A  
BRANCH   6   9
HETATM    9  C   UNL     1     -10.211   6.405  68.782  1.00  0.00    -0.177 C  
HETATM   10  O   UNL     1     -10.347   5.228  69.123  1.00  0.00    -0.220 OA 
BRANCH   9  11
HETATM   11  C   UNL     1     -10.866   6.922  67.523  1.00  0.00    -0.363 C  
BRANCH  11  12
HETATM   12  C   UNL     1      -9.958   7.722  66.624  1.00  0.00    -0.228 C  
HETATM   13  O   UNL     1      -8.998   7.229  66.035  1.00  0.00    -0.165 OA 
BRANCH  12  14
HETATM   14  C   UNL     1     -10.226   9.176  66.460  1.00  0.00    -0.322 A  
HETATM   15  C   UNL     1     -10.789   9.853  67.542  1.00  0.00    -0.307 A  
HETATM   16  C   UNL     1     -11.130  11.201  67.432  1.00  0.00    -0.370 A  
HETATM   17  C   UNL     1     -10.914  11.918  66.244  1.00  0.00    -0.345 A  
HETATM   18  C   UNL     1      -9.951   9.876  65.283  1.00  0.00    -0.320 A  
HETATM   19  C   UNL     1     -10.289  11.233  65.182  1.00  0.00    -0.353 A  
BRANCH  17  20
HETATM   20  C   UNL     1     -11.367  13.381  66.081  1.00  0.00    -0.324 C  
HETATM   21  C   UNL     1     -12.645  13.528  65.223  1.00  0.00    -0.517 C  
HETATM   22  C   UNL     1     -11.659  14.008  67.459  1.00  0.00    -0.397 C  
HETATM   23  C   UNL     1     -10.258  14.197  65.382  1.00  0.00    -0.380 C  
ENDBRANCH  17  20
ENDBRANCH  12  14
ENDBRANCH  11  12
ENDBRANCH   9  11
ENDBRANCH   6   9
ENDBRANCH   2   3
TORSDOF 6
ENDMDL
MODEL      113
REMARK 921   NORMALIZED FREE ENERGY PREDICTED BY IDOCK:   -4.73 KCAL/MOL
REMARK 922        TOTAL FREE ENERGY PREDICTED BY IDOCK:   -7.40 KCAL/MOL
REMARK 923 INTER-LIGAND FREE ENERGY PREDICTED BY IDOCK:   -6.54 KCAL/MOL
REMARK 924 INTRA-LIGAND FREE ENERGY PREDICTED BY IDOCK:   -0.85 KCAL/MOL
REMARK 927      BINDING AFFINITY PREDICTED BY RF-SCORE:    0.00 PKD
ROOT
HETATM    1  C   UNL     1      -7.420   9.475  62.974  1.00  0.00    -0.108 C  
HETATM    2  O   UNL     1      -8.571   9.097  63.724  1.00  0.00    -0.202 OA 
ENDROOT
BRANCH   2   3
HETATM    3  C   UNL     1      -9.416  10.122  64.046  1.00  0.00    -0.282 A  
HETATM    4  C   UNL     1      -9.580  11.102  63.068  1.00  0.00    -0.389 A  
HETATM    5  C   UNL     1     -10.411  12.203  63.300  1.00  0.00    -0.352 A  
HETATM    6  C   UNL     1     -11.098  12.326  64.515  1.00  0.00    -0.368 A  
HETATM    7  C   UNL     1     -10.950  11.324  65.481  1.00  0.00    -0.199 A  
HETATM    8  C   UNL     1     -10.123  10.222  65.243  1.00  0.00    -0.359 A  
BRANCH   6   9
HETATM    9  C   UNL     1     -11.956  13.531  64.732  1.00  0.00    -0.390 C  
HETATM   10  O   UNL     1     -12.022  14.395  63.855  1.00  0.00    -0.339 OA 
BRANCH   9  11
HETATM   11  C   UNL     1     -12.660  13.725  66.055  1.00  0.00    -0.458 C  
BRANCH  11  12
HETATM   12  C   UNL     1     -11.755  13.679  67.261  1.00  0.00    -0.380 C  
HETATM   13  O   UNL     1     -11.938  12.912  68.204  1.00  0.00    -0.336 OA 
BRANCH  12  14
HETATM   14  C   UNL     1     -10.603  14.618  67.318  1.00  0.00    -0.284 A  
HETATM   15  C   UNL     1     -10.887  15.983  67.363  1.00  0.00    -0.277 A  
HETATM   16  C   UNL     1      -9.855  16.921  67.347  1.00  0.00    -0.261 A  
HETATM   17  C   UNL     1      -8.507  16.528  67.292  1.00  0.00    -0.201 A  
HETATM   18  C   UNL     1      -9.272  14.196  67.315  1.00  0.00    -0.222 A  
HETATM   19  C   UNL     1      -8.238  15.144  67.308  1.00  0.00    -0.234 A  
BRANCH  17  20
HETATM   20  C   UNL     1      -7.363  17.552  67.185  1.00  0.00    -0.214 C  
HETATM   21  C   UNL     1      -7.104  18.023  65.734  1.00  0.00    -0.242 C  
HETATM   22  C   UNL     1      -7.683  18.803  68.027  1.00  0.00    -0.286 C  
HETATM   23  C   UNL     1      -6.048  16.924  67.696  1.00  0.00    -0.161 C  
ENDBRANCH  17  20
ENDBRANCH  12  14
ENDBRANCH  11  12
ENDBRANCH   9  11
ENDBRANCH   6   9
ENDBRANCH   2   3
TORSDOF 6
ENDMDL
MODEL      114
REMARK 921   NORMALIZED FREE ENERGY PREDICTED BY IDOCK:   -4.71 KCAL/MOL
REMARK 922        TOTAL FREE ENERGY PREDICTED BY IDOCK:   -7.37 KCAL/MOL
REMARK 923 INTER-LIGAND FREE ENERGY PREDICTED BY IDOCK:   -6.58 KCAL/MOL
REMARK 924 INTRA-LIGAND FREE ENERGY PREDICTED BY IDOCK:   -0.79 KCAL/MOL
REMARK 927      BINDING AFFINITY PREDICTED BY RF-SCORE:    0.00 PKD
ROOT
HETATM    1  C   UNL     1     -12.365  15.542  64.085  1.00  0.00     0.066 C  
HETATM    2  O   UNL     1     -12.471  14.240  63.517  1.00  0.00    -0.798 OA 
ENDROOT
BRANCH   2   3
HETATM    3  C   UNL     1     -11.954  13.230  64.280  1.00  0.00    -0.421 A  
HETATM    4  C   UNL     1     -12.234  13.298  65.644  1.00  0.00    -0.514 A  
HETATM    5  C   UNL     1     -11.740  12.323  66.518  1.00  0.00    -0.420 A  
HETATM    6  C   UNL     1     -10.970  11.261  66.028  1.00  0.00    -0.237 A  
HETATM    7  C   UNL     1     -10.716  11.185  64.654  1.00  0.00    -0.350 A  
HETATM    8  C   UNL     1     -11.216  12.157  63.784  1.00  0.00    -0.509 A  
BRANCH   6   9
HETATM    9  C   UNL     1     -10.440  10.255  67.000  1.00  0.00    -0.244 C  
HETATM   10  O   UNL     1      -9.969   9.195  66.580  1.00  0.00    -0.248 OA 
BRANCH   9  11
HETATM   11  C   UNL     1     -10.570  10.502  68.485  1.00  0.00    -0.234 C  
BRANCH  11  12
HETATM   12  C   UNL     1      -9.421   9.985  69.312  1.00  0.00    -0.217 C  
HETATM   13  O   UNL     1      -8.330  10.549  69.365  1.00  0.00    -0.157 OA 
BRANCH  12  14
HETATM   14  C   UNL     1      -9.612   8.726  70.080  1.00  0.00    -0.187 A  
HETATM   15  C   UNL     1      -9.972   8.839  71.423  1.00  0.00    -0.354 A  
HETATM   16  C   UNL     1     -10.099   7.701  72.219  1.00  0.00    -0.260 A  
HETATM   17  C   UNL     1      -9.877   6.415  71.701  1.00  0.00    -0.184 A  
HETATM   18  C   UNL     1      -9.435   7.457  69.524  1.00  0.00    -0.155 A  
HETATM   19  C   UNL     1      -9.572   6.316  70.329  1.00  0.00    -0.182 A  
BRANCH  17  20
HETATM   20  C   UNL     1      -9.927   5.158  72.590  1.00  0.00    -0.203 C  
HETATM   21  C   UNL     1      -8.815   5.131  73.665  1.00  0.00    -0.115 C  
HETATM   22  C   UNL     1     -11.281   5.073  73.322  1.00  0.00    -0.411 C  
HETATM   23  C   UNL     1      -9.744   3.895  71.721  1.00  0.00    -0.243 C  
ENDBRANCH  17  20
ENDBRANCH  12  14
ENDBRANCH  11  12
ENDBRANCH   9  11
ENDBRANCH   6   9
ENDBRANCH   2   3
TORSDOF 6
ENDMDL
MODEL      115
REMARK 921   NORMALIZED FREE ENERGY PREDICTED BY IDOCK:   -4.70 KCAL/MOL
REMARK 922        TOTAL FREE ENERGY PREDICTED BY IDOCK:   -7.35 KCAL/MOL
REMARK 923 INTER-LIGAND FREE ENERGY PREDICTED BY IDOCK:   -5.73 KCAL/MOL
REMARK 924 INTRA-LIGAND FREE ENERGY PREDICTED BY IDOCK:   -1.63 KCAL/MOL
REMARK 927      BINDING AFFINITY PREDICTED BY RF-SCORE:    0.00 PKD
ROOT
HETATM    1  C   UNL     1      -6.761  15.049  69.638  1.00  0.00    -0.177 C  
HETATM    2  O   UNL     1      -6.010  14.269  68.712  1.00  0.00    -0.080 OA 
ENDROOT
BRANCH   2   3
HETATM    3  C   UNL     1      -6.348  12.945  68.661  1.00  0.00    -0.075 A  
HETATM    4  C   UNL     1      -6.706  12.460  67.403  1.00  0.00    -0.152 A  
HETATM    5  C   UNL     1      -7.084  11.123  67.241  1.00  0.00    -0.109 A  
HETATM    6  C   UNL     1      -7.095  10.254  68.339  1.00  0.00    -0.078 A  
HETATM    7  C   UNL     1      -6.708  10.741  69.592  1.00  0.00    -0.122 A  
HETATM    8  C   UNL     1      -6.325  12.076  69.749  1.00  0.00    -0.110 A  
BRANCH   6   9
HETATM    9  C   UNL     1      -7.531   8.839  68.126  1.00  0.00    -0.092 C  
HETATM   10  O   UNL     1      -6.839   8.089  67.434  1.00  0.00    -0.067 OA 
BRANCH   9  11
HETATM   11  C   UNL     1      -8.854   8.368  68.683  1.00  0.00    -0.136 C  
BRANCH  11  12
HETATM   12  C   UNL     1      -9.983   8.345  67.684  1.00  0.00    -0.190 C  
HETATM   13  O   UNL     1     -10.650   7.338  67.453  1.00  0.00    -0.251 OA 
BRANCH  12  14
HETATM   14  C   UNL     1     -10.289   9.591  66.933  1.00  0.00    -0.307 A  
HETATM   15  C   UNL     1     -10.947  10.612  67.619  1.00  0.00    -0.370 A  
HETATM   16  C   UNL     1     -11.326  11.779  66.956  1.00  0.00    -0.387 A  
HETATM   17  C   UNL     1     -11.056  11.968  65.591  1.00  0.00    -0.361 A  
HETATM   18  C   UNL     1      -9.961   9.773  65.587  1.00  0.00    -0.352 A  
HETATM   19  C   UNL     1     -10.339  10.952  64.929  1.00  0.00    -0.371 A  
BRANCH  17  20
HETATM   20  C   UNL     1     -11.547  13.213  64.829  1.00  0.00    -0.368 C  
HETATM   21  C   UNL     1     -12.772  13.886  65.491  1.00  0.00    -0.536 C  
HETATM   22  C   UNL     1     -10.427  14.268  64.747  1.00  0.00    -0.421 C  
HETATM   23  C   UNL     1     -11.970  12.816  63.397  1.00  0.00    -0.613 C  
ENDBRANCH  17  20
ENDBRANCH  12  14
ENDBRANCH  11  12
ENDBRANCH   9  11
ENDBRANCH   6   9
ENDBRANCH   2   3
TORSDOF 6
ENDMDL
MODEL      116
REMARK 921   NORMALIZED FREE ENERGY PREDICTED BY IDOCK:   -4.69 KCAL/MOL
REMARK 922        TOTAL FREE ENERGY PREDICTED BY IDOCK:   -7.34 KCAL/MOL
REMARK 923 INTER-LIGAND FREE ENERGY PREDICTED BY IDOCK:   -6.73 KCAL/MOL
REMARK 924 INTRA-LIGAND FREE ENERGY PREDICTED BY IDOCK:   -0.61 KCAL/MOL
REMARK 927      BINDING AFFINITY PREDICTED BY RF-SCORE:    0.00 PKD
ROOT
HETATM    1  C   UNL     1     -12.123  15.210  64.206  1.00  0.00    -0.261 C  
HETATM    2  O   UNL     1     -12.341  13.882  63.737  1.00  0.00    -0.669 OA 
ENDROOT
BRANCH   2   3
HETATM    3  C   UNL     1     -11.751  12.899  64.482  1.00  0.00    -0.365 A  
HETATM    4  C   UNL     1     -10.978  11.983  63.771  1.00  0.00    -0.492 A  
HETATM    5  C   UNL     1     -10.342  10.928  64.434  1.00  0.00    -0.430 A  
HETATM    6  C   UNL     1     -10.465  10.789  65.822  1.00  0.00    -0.256 A  
HETATM    7  C   UNL     1     -11.221  11.729  66.532  1.00  0.00    -0.380 A  
HETATM    8  C   UNL     1     -11.850  12.785  65.867  1.00  0.00    -0.490 A  
BRANCH   6   9
HETATM    9  C   UNL     1      -9.790   9.633  66.488  1.00  0.00    -0.235 C  
HETATM   10  O   UNL     1      -8.859   9.062  65.915  1.00  0.00    -0.153 OA 
BRANCH   9  11
HETATM   11  C   UNL     1     -10.310   9.118  67.810  1.00  0.00    -0.302 C  
BRANCH  11  12
HETATM   12  C   UNL     1     -10.431   7.618  67.897  1.00  0.00    -0.207 C  
HETATM   13  O   UNL     1     -10.797   6.922  66.951  1.00  0.00    -0.351 OA 
BRANCH  12  14
HETATM   14  C   UNL     1     -10.113   6.955  69.190  1.00  0.00    -0.180 A  
HETATM   15  C   UNL     1     -11.114   6.187  69.783  1.00  0.00    -0.486 A  
HETATM   16  C   UNL     1     -10.907   5.595  71.029  1.00  0.00    -0.289 A  
HETATM   17  C   UNL     1      -9.693   5.745  71.719  1.00  0.00    -0.185 A  
HETATM   18  C   UNL     1      -8.877   7.078  69.828  1.00  0.00    -0.142 A  
HETATM   19  C   UNL     1      -8.672   6.474  71.077  1.00  0.00    -0.138 A  
BRANCH  17  20
HETATM   20  C   UNL     1      -9.483   5.172  73.133  1.00  0.00    -0.145 C  
HETATM   21  C   UNL     1     -10.808   4.804  73.841  1.00  0.00    -0.360 C  
HETATM   22  C   UNL     1      -8.622   3.895  73.071  1.00  0.00    -0.095 C  
HETATM   23  C   UNL     1      -8.773   6.216  74.021  1.00  0.00    -0.121 C  
ENDBRANCH  17  20
ENDBRANCH  12  14
ENDBRANCH  11  12
ENDBRANCH   9  11
ENDBRANCH   6   9
ENDBRANCH   2   3
TORSDOF 6
ENDMDL
MODEL      117
REMARK 921   NORMALIZED FREE ENERGY PREDICTED BY IDOCK:   -4.68 KCAL/MOL
REMARK 922        TOTAL FREE ENERGY PREDICTED BY IDOCK:   -7.32 KCAL/MOL
REMARK 923 INTER-LIGAND FREE ENERGY PREDICTED BY IDOCK:   -6.07 KCAL/MOL
REMARK 924 INTRA-LIGAND FREE ENERGY PREDICTED BY IDOCK:   -1.25 KCAL/MOL
REMARK 927      BINDING AFFINITY PREDICTED BY RF-SCORE:    0.00 PKD
ROOT
HETATM    1  C   UNL     1     -13.295  11.652  71.947  1.00  0.00    -0.298 C  
HETATM    2  O   UNL     1     -13.531  13.057  71.976  1.00  0.00    -0.481 OA 
ENDROOT
BRANCH   2   3
HETATM    3  C   UNL     1     -12.748  13.794  71.132  1.00  0.00    -0.362 A  
HETATM    4  C   UNL     1     -12.455  15.090  71.557  1.00  0.00    -0.400 A  
HETATM    5  C   UNL     1     -11.673  15.936  70.763  1.00  0.00    -0.433 A  
HETATM    6  C   UNL     1     -11.166  15.485  69.538  1.00  0.00    -0.300 A  
HETATM    7  C   UNL     1     -11.441  14.174  69.131  1.00  0.00    -0.338 A  
HETATM    8  C   UNL     1     -12.218  13.330  69.930  1.00  0.00    -0.313 A  
BRANCH   6   9
HETATM    9  C   UNL     1     -10.356  16.430  68.708  1.00  0.00    -0.275 C  
HETATM   10  O   UNL     1     -10.812  17.543  68.437  1.00  0.00    -0.314 OA 
BRANCH   9  11
HETATM   11  C   UNL     1      -9.031  15.982  68.135  1.00  0.00    -0.183 C  
BRANCH  11  12
HETATM   12  C   UNL     1      -9.108  15.426  66.736  1.00  0.00    -0.259 C  
HETATM   13  O   UNL     1      -9.221  16.138  65.740  1.00  0.00    -0.400 OA 
BRANCH  12  14
HETATM   14  C   UNL     1      -9.065  13.950  66.557  1.00  0.00    -0.165 A  
HETATM   15  C   UNL     1     -10.125  13.352  65.876  1.00  0.00    -0.300 A  
HETATM   16  C   UNL     1     -10.183  11.966  65.734  1.00  0.00    -0.276 A  
HETATM   17  C   UNL     1      -9.183  11.133  66.261  1.00  0.00    -0.211 A  
HETATM   18  C   UNL     1      -8.030  13.150  67.046  1.00  0.00     0.001 A  
HETATM   19  C   UNL     1      -8.090  11.758  66.893  1.00  0.00    -0.160 A  
BRANCH  17  20
HETATM   20  C   UNL     1      -9.280   9.598  66.188  1.00  0.00    -0.222 C  
HETATM   21  C   UNL     1     -10.500   9.030  66.951  1.00  0.00    -0.293 C  
HETATM   22  C   UNL     1      -9.395   9.136  64.722  1.00  0.00     0.021 C  
HETATM   23  C   UNL     1      -8.021   8.963  66.818  1.00  0.00    -0.107 C  
ENDBRANCH  17  20
ENDBRANCH  12  14
ENDBRANCH  11  12
ENDBRANCH   9  11
ENDBRANCH   6   9
ENDBRANCH   2   3
TORSDOF 6
ENDMDL
MODEL      118
REMARK 921   NORMALIZED FREE ENERGY PREDICTED BY IDOCK:   -4.64 KCAL/MOL
REMARK 922        TOTAL FREE ENERGY PREDICTED BY IDOCK:   -7.26 KCAL/MOL
REMARK 923 INTER-LIGAND FREE ENERGY PREDICTED BY IDOCK:   -6.79 KCAL/MOL
REMARK 924 INTRA-LIGAND FREE ENERGY PREDICTED BY IDOCK:   -0.48 KCAL/MOL
REMARK 927      BINDING AFFINITY PREDICTED BY RF-SCORE:    0.00 PKD
ROOT
HETATM    1  C   UNL     1      -5.858  11.907  70.078  1.00  0.00    -0.150 C  
HETATM    2  O   UNL     1      -5.507  13.284  69.981  1.00  0.00    -0.092 OA 
ENDROOT
BRANCH   2   3
HETATM    3  C   UNL     1      -6.353  14.046  69.223  1.00  0.00    -0.110 A  
HETATM    4  C   UNL     1      -7.081  15.013  69.916  1.00  0.00    -0.121 A  
HETATM    5  C   UNL     1      -7.987  15.837  69.240  1.00  0.00    -0.239 A  
HETATM    6  C   UNL     1      -8.161  15.708  67.856  1.00  0.00    -0.155 A  
HETATM    7  C   UNL     1      -7.406  14.755  67.163  1.00  0.00    -0.020 A  
HETATM    8  C   UNL     1      -6.498  13.937  67.842  1.00  0.00    -0.168 A  
BRANCH   6   9
HETATM    9  C   UNL     1      -9.158  16.592  67.175  1.00  0.00    -0.213 C  
HETATM   10  O   UNL     1      -9.374  17.720  67.624  1.00  0.00    -0.247 OA 
BRANCH   9  11
HETATM   11  C   UNL     1      -9.955  16.065  66.005  1.00  0.00    -0.365 C  
BRANCH  11  12
HETATM   12  C   UNL     1     -10.985  15.024  66.363  1.00  0.00    -0.336 C  
HETATM   13  O   UNL     1     -11.478  14.260  65.536  1.00  0.00    -0.316 OA 
BRANCH  12  14
HETATM   14  C   UNL     1     -11.438  14.934  67.777  1.00  0.00    -0.353 A  
HETATM   15  C   UNL     1     -11.661  13.661  68.302  1.00  0.00    -0.374 A  
HETATM   16  C   UNL     1     -12.153  13.507  69.598  1.00  0.00    -0.365 A  
HETATM   17  C   UNL     1     -12.432  14.616  70.413  1.00  0.00    -0.410 A  
HETATM   18  C   UNL     1     -11.657  16.054  68.583  1.00  0.00    -0.343 A  
HETATM   19  C   UNL     1     -12.144  15.891  69.888  1.00  0.00    -0.245 A  
BRANCH  17  20
HETATM   20  C   UNL     1     -13.058  14.462  71.812  1.00  0.00    -0.428 C  
HETATM   21  C   UNL     1     -14.389  15.233  71.969  1.00  0.00    -0.689 C  
HETATM   22  C   UNL     1     -13.345  12.977  72.110  1.00  0.00    -0.622 C  
HETATM   23  C   UNL     1     -12.090  15.012  72.882  1.00  0.00    -0.428 C  
ENDBRANCH  17  20
ENDBRANCH  12  14
ENDBRANCH  11  12
ENDBRANCH   9  11
ENDBRANCH   6   9
ENDBRANCH   2   3
TORSDOF 6
ENDMDL
MODEL      119
REMARK 921   NORMALIZED FREE ENERGY PREDICTED BY IDOCK:   -4.61 KCAL/MOL
REMARK 922        TOTAL FREE ENERGY PREDICTED BY IDOCK:   -7.22 KCAL/MOL
REMARK 923 INTER-LIGAND FREE ENERGY PREDICTED BY IDOCK:   -6.43 KCAL/MOL
REMARK 924 INTRA-LIGAND FREE ENERGY PREDICTED BY IDOCK:   -0.79 KCAL/MOL
REMARK 927      BINDING AFFINITY PREDICTED BY RF-SCORE:    0.00 PKD
ROOT
HETATM    1  C   UNL     1      -7.638   1.507  70.762  1.00  0.00    -0.032 C  
HETATM    2  O   UNL     1      -8.253   2.226  71.827  1.00  0.00    -0.054 OA 
ENDROOT
BRANCH   2   3
HETATM    3  C   UNL     1      -9.020   3.291  71.442  1.00  0.00    -0.095 A  
HETATM    4  C   UNL     1      -9.132   3.490  70.067  1.00  0.00    -0.197 A  
HETATM    5  C   UNL     1      -9.881   4.559  69.564  1.00  0.00    -0.277 A  
HETATM    6  C   UNL     1     -10.538   5.434  70.439  1.00  0.00    -0.322 A  
HETATM    7  C   UNL     1     -10.444   5.211  71.818  1.00  0.00    -0.268 A  
HETATM    8  C   UNL     1      -9.699   4.138  72.315  1.00  0.00    -0.214 A  
BRANCH   6   9
HETATM    9  C   UNL     1     -11.308   6.579  69.861  1.00  0.00    -0.406 C  
HETATM   10  O   UNL     1     -12.300   7.005  70.457  1.00  0.00    -0.267 OA 
BRANCH   9  11
HETATM   11  C   UNL     1     -10.919   7.142  68.514  1.00  0.00    -0.080 C  
BRANCH  11  12
HETATM   12  C   UNL     1     -10.055   8.376  68.574  1.00  0.00    -0.197 C  
HETATM   13  O   UNL     1      -9.151   8.519  69.394  1.00  0.00    -0.148 OA 
BRANCH  12  14
HETATM   14  C   UNL     1     -10.323   9.476  67.608  1.00  0.00    -0.299 A  
HETATM   15  C   UNL     1     -11.048  10.574  68.069  1.00  0.00    -0.361 A  
HETATM   16  C   UNL     1     -11.395  11.608  67.199  1.00  0.00    -0.373 A  
HETATM   17  C   UNL     1     -11.024  11.582  65.845  1.00  0.00    -0.301 A  
HETATM   18  C   UNL     1      -9.896   9.447  66.279  1.00  0.00    -0.351 A  
HETATM   19  C   UNL     1     -10.241  10.494  65.412  1.00  0.00    -0.340 A  
BRANCH  17  20
HETATM   20  C   UNL     1     -11.476  12.672  64.856  1.00  0.00    -0.361 C  
HETATM   21  C   UNL     1     -11.887  12.107  63.476  1.00  0.00    -0.597 C  
HETATM   22  C   UNL     1     -12.686  13.441  65.421  1.00  0.00    -0.484 C  
HETATM   23  C   UNL     1     -10.319  13.666  64.609  1.00  0.00    -0.407 C  
ENDBRANCH  17  20
ENDBRANCH  12  14
ENDBRANCH  11  12
ENDBRANCH   9  11
ENDBRANCH   6   9
ENDBRANCH   2   3
TORSDOF 6
ENDMDL
MODEL      120
REMARK 921   NORMALIZED FREE ENERGY PREDICTED BY IDOCK:   -4.58 KCAL/MOL
REMARK 922        TOTAL FREE ENERGY PREDICTED BY IDOCK:   -7.19 KCAL/MOL
REMARK 923 INTER-LIGAND FREE ENERGY PREDICTED BY IDOCK:   -5.73 KCAL/MOL
REMARK 924 INTRA-LIGAND FREE ENERGY PREDICTED BY IDOCK:   -1.46 KCAL/MOL
REMARK 927      BINDING AFFINITY PREDICTED BY RF-SCORE:    0.00 PKD
ROOT
HETATM    1  C   UNL     1     -12.110  12.873  65.258  1.00  0.00    -0.453 C  
HETATM    2  O   UNL     1     -11.789  12.183  66.462  1.00  0.00    -0.569 OA 
ENDROOT
BRANCH   2   3
HETATM    3  C   UNL     1     -10.978  11.092  66.307  1.00  0.00    -0.163 A  
HETATM    4  C   UNL     1     -11.004  10.167  67.350  1.00  0.00    -0.295 A  
HETATM    5  C   UNL     1     -10.201   9.022  67.301  1.00  0.00    -0.323 A  
HETATM    6  C   UNL     1      -9.373   8.787  66.196  1.00  0.00    -0.297 A  
HETATM    7  C   UNL     1      -9.374   9.706  65.141  1.00  0.00    -0.322 A  
HETATM    8  C   UNL     1     -10.182  10.846  65.192  1.00  0.00    -0.360 A  
BRANCH   6   9
HETATM    9  C   UNL     1      -8.512   7.564  66.195  1.00  0.00    -0.144 C  
HETATM   10  O   UNL     1      -8.998   6.481  65.861  1.00  0.00    -0.151 OA 
BRANCH   9  11
HETATM   11  C   UNL     1      -7.087   7.647  66.690  1.00  0.00    -0.079 C  
BRANCH  11  12
HETATM   12  C   UNL     1      -6.851   7.015  68.038  1.00  0.00    -0.074 C  
HETATM   13  O   UNL     1      -5.857   6.338  68.294  1.00  0.00    -0.011 OA 
BRANCH  12  14
HETATM   14  C   UNL     1      -7.878   7.204  69.097  1.00  0.00    -0.118 A  
HETATM   15  C   UNL     1      -8.814   6.185  69.276  1.00  0.00    -0.124 A  
HETATM   16  C   UNL     1      -9.846   6.328  70.204  1.00  0.00    -0.201 A  
HETATM   17  C   UNL     1      -9.974   7.487  70.986  1.00  0.00    -0.189 A  
HETATM   18  C   UNL     1      -7.950   8.346  69.898  1.00  0.00    -0.107 A  
HETATM   19  C   UNL     1      -8.985   8.480  70.834  1.00  0.00    -0.206 A  
BRANCH  17  20
HETATM   20  C   UNL     1     -11.158   7.693  71.949  1.00  0.00    -0.290 C  
HETATM   21  C   UNL     1     -12.362   6.774  71.636  1.00  0.00    -0.409 C  
HETATM   22  C   UNL     1     -10.724   7.411  73.401  1.00  0.00    -0.407 C  
HETATM   23  C   UNL     1     -11.665   9.149  71.849  1.00  0.00    -0.436 C  
ENDBRANCH  17  20
ENDBRANCH  12  14
ENDBRANCH  11  12
ENDBRANCH   9  11
ENDBRANCH   6   9
ENDBRANCH   2   3
TORSDOF 6
ENDMDL
MODEL      121
REMARK 921   NORMALIZED FREE ENERGY PREDICTED BY IDOCK:   -4.57 KCAL/MOL
REMARK 922        TOTAL FREE ENERGY PREDICTED BY IDOCK:   -7.18 KCAL/MOL
REMARK 923 INTER-LIGAND FREE ENERGY PREDICTED BY IDOCK:   -5.31 KCAL/MOL
REMARK 924 INTRA-LIGAND FREE ENERGY PREDICTED BY IDOCK:   -1.87 KCAL/MOL
REMARK 927      BINDING AFFINITY PREDICTED BY RF-SCORE:    0.00 PKD
ROOT
HETATM    1  C   UNL     1     -13.421   7.446  71.640  1.00  0.00    -0.366 C  
HETATM    2  O   UNL     1     -12.223   6.812  72.077  1.00  0.00    -0.321 OA 
ENDROOT
BRANCH   2   3
HETATM    3  C   UNL     1     -11.459   6.266  71.083  1.00  0.00    -0.299 A  
HETATM    4  C   UNL     1     -11.743   6.707  69.791  1.00  0.00    -0.279 A  
HETATM    5  C   UNL     1     -11.033   6.202  68.697  1.00  0.00    -0.415 A  
HETATM    6  C   UNL     1     -10.018   5.256  68.891  1.00  0.00    -0.250 A  
HETATM    7  C   UNL     1      -9.720   4.839  70.193  1.00  0.00    -0.288 A  
HETATM    8  C   UNL     1     -10.429   5.350  71.284  1.00  0.00    -0.296 A  
BRANCH   6   9
HETATM    9  C   UNL     1      -9.299   4.722  67.692  1.00  0.00    -0.138 C  
HETATM   10  O   UNL     1      -9.895   3.980  66.909  1.00  0.00    -0.217 OA 
BRANCH   9  11
HETATM   11  C   UNL     1      -7.830   5.021  67.501  1.00  0.00    -0.095 C  
BRANCH  11  12
HETATM   12  C   UNL     1      -7.540   6.186  66.589  1.00  0.00    -0.095 C  
HETATM   13  O   UNL     1      -6.737   6.122  65.660  1.00  0.00    -0.046 OA 
BRANCH  12  14
HETATM   14  C   UNL     1      -8.242   7.473  66.838  1.00  0.00    -0.124 A  
HETATM   15  C   UNL     1      -7.980   8.127  68.041  1.00  0.00    -0.127 A  
HETATM   16  C   UNL     1      -8.657   9.302  68.370  1.00  0.00    -0.124 A  
HETATM   17  C   UNL     1      -9.610   9.865  67.506  1.00  0.00    -0.183 A  
HETATM   18  C   UNL     1      -9.147   8.037  65.936  1.00  0.00    -0.159 A  
HETATM   19  C   UNL     1      -9.818   9.223  66.268  1.00  0.00    -0.361 A  
BRANCH  17  20
HETATM   20  C   UNL     1     -10.427  11.111  67.895  1.00  0.00    -0.220 C  
HETATM   21  C   UNL     1     -11.363  11.600  66.765  1.00  0.00    -0.354 C  
HETATM   22  C   UNL     1     -11.304  10.814  69.127  1.00  0.00    -0.348 C  
HETATM   23  C   UNL     1      -9.473  12.279  68.226  1.00  0.00    -0.209 C  
ENDBRANCH  17  20
ENDBRANCH  12  14
ENDBRANCH  11  12
ENDBRANCH   9  11
ENDBRANCH   6   9
ENDBRANCH   2   3
TORSDOF 6
ENDMDL
MODEL      122
REMARK 921   NORMALIZED FREE ENERGY PREDICTED BY IDOCK:   -4.56 KCAL/MOL
REMARK 922        TOTAL FREE ENERGY PREDICTED BY IDOCK:   -7.16 KCAL/MOL
REMARK 923 INTER-LIGAND FREE ENERGY PREDICTED BY IDOCK:   -5.89 KCAL/MOL
REMARK 924 INTRA-LIGAND FREE ENERGY PREDICTED BY IDOCK:   -1.27 KCAL/MOL
REMARK 927      BINDING AFFINITY PREDICTED BY RF-SCORE:    0.00 PKD
ROOT
HETATM    1  C   UNL     1     -12.532  13.929  65.401  1.00  0.00    -0.501 C  
HETATM    2  O   UNL     1     -12.655  12.511  65.462  1.00  0.00    -0.642 OA 
ENDROOT
BRANCH   2   3
HETATM    3  C   UNL     1     -11.592  11.860  66.024  1.00  0.00    -0.227 A  
HETATM    4  C   UNL     1     -10.628  11.392  65.131  1.00  0.00    -0.352 A  
HETATM    5  C   UNL     1      -9.507  10.699  65.598  1.00  0.00    -0.257 A  
HETATM    6  C   UNL     1      -9.333  10.479  66.970  1.00  0.00    -0.176 A  
HETATM    7  C   UNL     1     -10.290  10.976  67.862  1.00  0.00    -0.213 A  
HETATM    8  C   UNL     1     -11.407  11.673  67.392  1.00  0.00    -0.367 A  
BRANCH   6   9
HETATM    9  C   UNL     1      -8.133   9.712  67.425  1.00  0.00    -0.110 C  
HETATM   10  O   UNL     1      -7.459  10.141  68.365  1.00  0.00    -0.083 OA 
BRANCH   9  11
HETATM   11  C   UNL     1      -7.704   8.471  66.675  1.00  0.00    -0.090 C  
BRANCH  11  12
HETATM   12  C   UNL     1      -8.643   7.300  66.810  1.00  0.00    -0.127 C  
HETATM   13  O   UNL     1      -8.908   6.546  65.876  1.00  0.00    -0.154 OA 
BRANCH  12  14
HETATM   14  C   UNL     1      -9.292   7.060  68.127  1.00  0.00    -0.125 A  
HETATM   15  C   UNL     1     -10.683   6.955  68.150  1.00  0.00    -0.260 A  
HETATM   16  C   UNL     1     -11.360   6.801  69.359  1.00  0.00    -0.255 A  
HETATM   17  C   UNL     1     -10.673   6.739  70.582  1.00  0.00    -0.273 A  
HETATM   18  C   UNL     1      -8.578   6.950  69.322  1.00  0.00    -0.132 A  
HETATM   19  C   UNL     1      -9.265   6.786  70.534  1.00  0.00    -0.156 A  
BRANCH  17  20
HETATM   20  C   UNL     1     -11.413   6.657  71.930  1.00  0.00    -0.332 C  
HETATM   21  C   UNL     1     -12.949   6.777  71.787  1.00  0.00    -0.274 C  
HETATM   22  C   UNL     1     -11.117   5.313  72.624  1.00  0.00    -0.319 C  
HETATM   23  C   UNL     1     -10.955   7.810  72.849  1.00  0.00    -0.467 C  
ENDBRANCH  17  20
ENDBRANCH  12  14
ENDBRANCH  11  12
ENDBRANCH   9  11
ENDBRANCH   6   9
ENDBRANCH   2   3
TORSDOF 6
ENDMDL
MODEL      123
REMARK 921   NORMALIZED FREE ENERGY PREDICTED BY IDOCK:   -4.55 KCAL/MOL
REMARK 922        TOTAL FREE ENERGY PREDICTED BY IDOCK:   -7.15 KCAL/MOL
REMARK 923 INTER-LIGAND FREE ENERGY PREDICTED BY IDOCK:   -6.00 KCAL/MOL
REMARK 924 INTRA-LIGAND FREE ENERGY PREDICTED BY IDOCK:   -1.15 KCAL/MOL
REMARK 927      BINDING AFFINITY PREDICTED BY RF-SCORE:    0.00 PKD
ROOT
HETATM    1  C   UNL     1     -10.640  19.298  65.997  1.00  0.00    -0.461 C  
HETATM    2  O   UNL     1      -9.555  18.430  66.313  1.00  0.00    -0.375 OA 
ENDROOT
BRANCH   2   3
HETATM    3  C   UNL     1      -9.749  17.116  65.988  1.00  0.00    -0.189 A  
HETATM    4  C   UNL     1     -10.769  16.864  65.072  1.00  0.00    -0.057 A  
HETATM    5  C   UNL     1     -11.063  15.553  64.682  1.00  0.00    -0.373 A  
HETATM    6  C   UNL     1     -10.325  14.480  65.199  1.00  0.00    -0.438 A  
HETATM    7  C   UNL     1      -9.284  14.744  66.097  1.00  0.00    -0.237 A  
HETATM    8  C   UNL     1      -8.990  16.056  66.480  1.00  0.00    -0.327 A  
BRANCH   6   9
HETATM    9  C   UNL     1     -10.687  13.092  64.775  1.00  0.00    -0.364 C  
HETATM   10  O   UNL     1     -10.118  12.586  63.806  1.00  0.00    -0.388 OA 
BRANCH   9  11
HETATM   11  C   UNL     1     -11.808  12.360  65.477  1.00  0.00    -0.469 C  
BRANCH  11  12
HETATM   12  C   UNL     1     -11.514  11.984  66.907  1.00  0.00    -0.337 C  
HETATM   13  O   UNL     1     -12.120  12.465  67.862  1.00  0.00    -0.428 OA 
BRANCH  12  14
HETATM   14  C   UNL     1     -10.428  11.003  67.172  1.00  0.00    -0.274 A  
HETATM   15  C   UNL     1     -10.408   9.840  66.402  1.00  0.00    -0.247 A  
HETATM   16  C   UNL     1      -9.461   8.846  66.645  1.00  0.00    -0.261 A  
HETATM   17  C   UNL     1      -8.499   8.983  67.659  1.00  0.00    -0.117 A  
HETATM   18  C   UNL     1      -9.451  11.189  68.153  1.00  0.00    -0.180 A  
HETATM   19  C   UNL     1      -8.496  10.190  68.387  1.00  0.00    -0.118 A  
BRANCH  17  20
HETATM   20  C   UNL     1      -7.504   7.857  67.996  1.00  0.00    -0.108 C  
HETATM   21  C   UNL     1      -7.911   6.489  67.398  1.00  0.00    -0.112 C  
HETATM   22  C   UNL     1      -6.102   8.200  67.455  1.00  0.00    -0.051 C  
HETATM   23  C   UNL     1      -7.421   7.672  69.527  1.00  0.00    -0.092 C  
ENDBRANCH  17  20
ENDBRANCH  12  14
ENDBRANCH  11  12
ENDBRANCH   9  11
ENDBRANCH   6   9
ENDBRANCH   2   3
TORSDOF 6
ENDMDL
MODEL      124
REMARK 921   NORMALIZED FREE ENERGY PREDICTED BY IDOCK:   -4.47 KCAL/MOL
REMARK 922        TOTAL FREE ENERGY PREDICTED BY IDOCK:   -7.05 KCAL/MOL
REMARK 923 INTER-LIGAND FREE ENERGY PREDICTED BY IDOCK:   -5.84 KCAL/MOL
REMARK 924 INTRA-LIGAND FREE ENERGY PREDICTED BY IDOCK:   -1.20 KCAL/MOL
REMARK 927      BINDING AFFINITY PREDICTED BY RF-SCORE:    0.00 PKD
ROOT
HETATM    1  C   UNL     1     -11.545  13.426  68.082  1.00  0.00    -0.341 C  
HETATM    2  O   UNL     1     -12.213  12.175  68.224  1.00  0.00    -0.356 OA 
ENDROOT
BRANCH   2   3
HETATM    3  C   UNL     1     -11.564  11.257  69.003  1.00  0.00    -0.319 A  
HETATM    4  C   UNL     1     -12.282  10.778  70.098  1.00  0.00    -0.425 A  
HETATM    5  C   UNL     1     -11.708   9.846  70.970  1.00  0.00    -0.466 A  
HETATM    6  C   UNL     1     -10.408   9.375  70.742  1.00  0.00    -0.366 A  
HETATM    7  C   UNL     1      -9.705   9.839  69.625  1.00  0.00    -0.242 A  
HETATM    8  C   UNL     1     -10.285  10.765  68.754  1.00  0.00    -0.207 A  
BRANCH   6   9
HETATM    9  C   UNL     1      -9.822   8.398  71.712  1.00  0.00    -0.243 C  
HETATM   10  O   UNL     1      -8.798   8.698  72.331  1.00  0.00    -0.321 OA 
BRANCH   9  11
HETATM   11  C   UNL     1     -10.433   7.024  71.857  1.00  0.00    -0.223 C  
BRANCH  11  12
HETATM   12  C   UNL     1     -11.233   6.562  70.666  1.00  0.00    -0.329 C  
HETATM   13  O   UNL     1     -12.462   6.543  70.653  1.00  0.00    -0.211 OA 
BRANCH  12  14
HETATM   14  C   UNL     1     -10.499   6.091  69.460  1.00  0.00    -0.330 A  
HETATM   15  C   UNL     1     -10.997   6.470  68.214  1.00  0.00    -0.362 A  
HETATM   16  C   UNL     1     -10.399   6.006  67.043  1.00  0.00    -0.296 A  
HETATM   17  C   UNL     1      -9.282   5.155  67.077  1.00  0.00    -0.117 A  
HETATM   18  C   UNL     1      -9.358   5.288  69.525  1.00  0.00    -0.176 A  
HETATM   19  C   UNL     1      -8.757   4.831  68.344  1.00  0.00    -0.112 A  
BRANCH  17  20
HETATM   20  C   UNL     1      -8.668   4.565  65.794  1.00  0.00    -0.121 C  
HETATM   21  C   UNL     1      -8.601   5.582  64.630  1.00  0.00    -0.067 C  
HETATM   22  C   UNL     1      -7.232   4.075  66.063  1.00  0.00    -0.068 C  
HETATM   23  C   UNL     1      -9.522   3.376  65.304  1.00  0.00    -0.145 C  
ENDBRANCH  17  20
ENDBRANCH  12  14
ENDBRANCH  11  12
ENDBRANCH   9  11
ENDBRANCH   6   9
ENDBRANCH   2   3
TORSDOF 6
ENDMDL
MODEL      125
REMARK 921   NORMALIZED FREE ENERGY PREDICTED BY IDOCK:   -4.45 KCAL/MOL
REMARK 922        TOTAL FREE ENERGY PREDICTED BY IDOCK:   -7.01 KCAL/MOL
REMARK 923 INTER-LIGAND FREE ENERGY PREDICTED BY IDOCK:   -5.73 KCAL/MOL
REMARK 924 INTRA-LIGAND FREE ENERGY PREDICTED BY IDOCK:   -1.28 KCAL/MOL
REMARK 927      BINDING AFFINITY PREDICTED BY RF-SCORE:    0.00 PKD
ROOT
HETATM    1  C   UNL     1      -7.851   9.016  64.224  1.00  0.00    -0.130 C  
HETATM    2  O   UNL     1      -7.736   8.479  65.539  1.00  0.00    -0.087 OA 
ENDROOT
BRANCH   2   3
HETATM    3  C   UNL     1      -8.613   8.992  66.454  1.00  0.00    -0.125 A  
HETATM    4  C   UNL     1      -9.777   9.551  65.929  1.00  0.00    -0.352 A  
HETATM    5  C   UNL     1     -10.735  10.119  66.776  1.00  0.00    -0.191 A  
HETATM    6  C   UNL     1     -10.540  10.119  68.163  1.00  0.00    -0.262 A  
HETATM    7  C   UNL     1      -9.381   9.532  68.684  1.00  0.00    -0.142 A  
HETATM    8  C   UNL     1      -8.429   8.961  67.835  1.00  0.00    -0.125 A  
BRANCH   6   9
HETATM    9  C   UNL     1     -11.576  10.759  69.031  1.00  0.00    -0.299 C  
HETATM   10  O   UNL     1     -12.496  11.395  68.510  1.00  0.00    -0.388 OA 
BRANCH   9  11
HETATM   11  C   UNL     1     -11.439  10.699  70.535  1.00  0.00    -0.407 C  
BRANCH  11  12
HETATM   12  C   UNL     1     -12.263   9.625  71.199  1.00  0.00    -0.350 C  
HETATM   13  O   UNL     1     -13.470   9.738  71.400  1.00  0.00    -0.373 OA 
BRANCH  12  14
HETATM   14  C   UNL     1     -11.577   8.383  71.648  1.00  0.00    -0.348 A  
HETATM   15  C   UNL     1     -10.284   8.508  72.154  1.00  0.00    -0.403 A  
HETATM   16  C   UNL     1      -9.558   7.378  72.527  1.00  0.00    -0.199 A  
HETATM   17  C   UNL     1     -10.101   6.087  72.414  1.00  0.00    -0.199 A  
HETATM   18  C   UNL     1     -12.163   7.117  71.573  1.00  0.00    -0.396 A  
HETATM   19  C   UNL     1     -11.430   5.985  71.958  1.00  0.00    -0.343 A  
BRANCH  17  20
HETATM   20  C   UNL     1      -9.279   4.826  72.739  1.00  0.00    -0.143 C  
HETATM   21  C   UNL     1      -9.303   4.457  74.241  1.00  0.00    -0.121 C  
HETATM   22  C   UNL     1      -9.822   3.615  71.956  1.00  0.00    -0.244 C  
HETATM   23  C   UNL     1      -7.800   5.052  72.355  1.00  0.00    -0.100 C  
ENDBRANCH  17  20
ENDBRANCH  12  14
ENDBRANCH  11  12
ENDBRANCH   9  11
ENDBRANCH   6   9
ENDBRANCH   2   3
TORSDOF 6
ENDMDL
MODEL      126
REMARK 921   NORMALIZED FREE ENERGY PREDICTED BY IDOCK:   -4.44 KCAL/MOL
REMARK 922        TOTAL FREE ENERGY PREDICTED BY IDOCK:   -7.01 KCAL/MOL
REMARK 923 INTER-LIGAND FREE ENERGY PREDICTED BY IDOCK:   -5.25 KCAL/MOL
REMARK 924 INTRA-LIGAND FREE ENERGY PREDICTED BY IDOCK:   -1.75 KCAL/MOL
REMARK 927      BINDING AFFINITY PREDICTED BY RF-SCORE:    0.00 PKD
ROOT
HETATM    1  C   UNL     1     -10.362  11.758  65.205  1.00  0.00    -0.279 C  
HETATM    2  O   UNL     1     -10.310  11.032  66.430  1.00  0.00    -0.235 OA 
ENDROOT
BRANCH   2   3
HETATM    3  C   UNL     1      -9.966   9.714  66.308  1.00  0.00    -0.264 A  
HETATM    4  C   UNL     1     -10.753   8.814  67.026  1.00  0.00    -0.186 A  
HETATM    5  C   UNL     1     -10.479   7.443  66.985  1.00  0.00    -0.404 A  
HETATM    6  C   UNL     1      -9.417   6.958  66.210  1.00  0.00    -0.122 A  
HETATM    7  C   UNL     1      -8.649   7.864  65.470  1.00  0.00    -0.139 A  
HETATM    8  C   UNL     1      -8.930   9.233  65.510  1.00  0.00    -0.251 A  
BRANCH   6   9
HETATM    9  C   UNL     1      -9.143   5.488  66.214  1.00  0.00    -0.146 C  
HETATM   10  O   UNL     1     -10.039   4.703  65.896  1.00  0.00    -0.216 OA 
BRANCH   9  11
HETATM   11  C   UNL     1      -7.805   4.974  66.693  1.00  0.00    -0.100 C  
BRANCH  11  12
HETATM   12  C   UNL     1      -7.779   4.539  68.137  1.00  0.00    -0.080 C  
HETATM   13  O   UNL     1      -7.157   3.553  68.526  1.00  0.00    -0.049 OA 
BRANCH  12  14
HETATM   14  C   UNL     1      -8.559   5.328  69.128  1.00  0.00    -0.102 A  
HETATM   15  C   UNL     1      -9.798   4.823  69.523  1.00  0.00    -0.292 A  
HETATM   16  C   UNL     1     -10.611   5.546  70.395  1.00  0.00    -0.350 A  
HETATM   17  C   UNL     1     -10.213   6.792  70.906  1.00  0.00    -0.215 A  
HETATM   18  C   UNL     1      -8.114   6.540  69.660  1.00  0.00    -0.125 A  
HETATM   19  C   UNL     1      -8.934   7.259  70.543  1.00  0.00    -0.154 A  
BRANCH  17  20
HETATM   20  C   UNL     1     -11.138   7.640  71.798  1.00  0.00    -0.281 C  
HETATM   21  C   UNL     1     -10.891   7.421  73.309  1.00  0.00    -0.417 C  
HETATM   22  C   UNL     1     -10.935   9.140  71.509  1.00  0.00    -0.434 C  
HETATM   23  C   UNL     1     -12.612   7.269  71.524  1.00  0.00    -0.415 C  
ENDBRANCH  17  20
ENDBRANCH  12  14
ENDBRANCH  11  12
ENDBRANCH   9  11
ENDBRANCH   6   9
ENDBRANCH   2   3
TORSDOF 6
ENDMDL
MODEL      127
REMARK 921   NORMALIZED FREE ENERGY PREDICTED BY IDOCK:   -4.44 KCAL/MOL
REMARK 922        TOTAL FREE ENERGY PREDICTED BY IDOCK:   -7.00 KCAL/MOL
REMARK 923 INTER-LIGAND FREE ENERGY PREDICTED BY IDOCK:   -5.48 KCAL/MOL
REMARK 924 INTRA-LIGAND FREE ENERGY PREDICTED BY IDOCK:   -1.52 KCAL/MOL
REMARK 927      BINDING AFFINITY PREDICTED BY RF-SCORE:    0.00 PKD
ROOT
HETATM    1  C   UNL     1     -14.034   8.739  72.016  1.00  0.00    -0.451 C  
HETATM    2  O   UNL     1     -13.211   9.859  72.326  1.00  0.00    -0.431 OA 
ENDROOT
BRANCH   2   3
HETATM    3  C   UNL     1     -12.349  10.238  71.334  1.00  0.00    -0.401 A  
HETATM    4  C   UNL     1     -12.679  11.415  70.663  1.00  0.00    -0.282 A  
HETATM    5  C   UNL     1     -11.874  11.885  69.620  1.00  0.00    -0.406 A  
HETATM    6  C   UNL     1     -10.720  11.185  69.248  1.00  0.00    -0.241 A  
HETATM    7  C   UNL     1     -10.380  10.019  69.944  1.00  0.00    -0.315 A  
HETATM    8  C   UNL     1     -11.184   9.556  70.989  1.00  0.00    -0.432 A  
BRANCH   6   9
HETATM    9  C   UNL     1      -9.901  11.708  68.111  1.00  0.00    -0.191 C  
HETATM   10  O   UNL     1      -8.929  12.431  68.345  1.00  0.00    -0.187 OA 
BRANCH   9  11
HETATM   11  C   UNL     1     -10.322  11.425  66.687  1.00  0.00    -0.272 C  
BRANCH  11  12
HETATM   12  C   UNL     1      -9.510  10.362  65.992  1.00  0.00    -0.185 C  
HETATM   13  O   UNL     1      -9.085  10.490  64.846  1.00  0.00    -0.182 OA 
BRANCH  12  14
HETATM   14  C   UNL     1      -9.230   9.095  66.720  1.00  0.00    -0.195 A  
HETATM   15  C   UNL     1      -7.921   8.873  67.145  1.00  0.00    -0.096 A  
HETATM   16  C   UNL     1      -7.574   7.675  67.771  1.00  0.00    -0.117 A  
HETATM   17  C   UNL     1      -8.523   6.666  67.999  1.00  0.00    -0.116 A  
HETATM   18  C   UNL     1     -10.206   8.131  66.979  1.00  0.00    -0.378 A  
HETATM   19  C   UNL     1      -9.853   6.932  67.617  1.00  0.00    -0.164 A  
BRANCH  17  20
HETATM   20  C   UNL     1      -8.136   5.306  68.608  1.00  0.00    -0.090 C  
HETATM   21  C   UNL     1      -7.465   5.432  69.997  1.00  0.00    -0.069 C  
HETATM   22  C   UNL     1      -9.384   4.418  68.776  1.00  0.00    -0.213 C  
HETATM   23  C   UNL     1      -7.127   4.587  67.685  1.00  0.00    -0.065 C  
ENDBRANCH  17  20
ENDBRANCH  12  14
ENDBRANCH  11  12
ENDBRANCH   9  11
ENDBRANCH   6   9
ENDBRANCH   2   3
TORSDOF 6
ENDMDL
MODEL      128
REMARK 921   NORMALIZED FREE ENERGY PREDICTED BY IDOCK:   -4.43 KCAL/MOL
REMARK 922        TOTAL FREE ENERGY PREDICTED BY IDOCK:   -6.99 KCAL/MOL
REMARK 923 INTER-LIGAND FREE ENERGY PREDICTED BY IDOCK:   -6.17 KCAL/MOL
REMARK 924 INTRA-LIGAND FREE ENERGY PREDICTED BY IDOCK:   -0.82 KCAL/MOL
REMARK 927      BINDING AFFINITY PREDICTED BY RF-SCORE:    0.00 PKD
ROOT
HETATM    1  C   UNL     1     -10.811  14.532  68.910  1.00  0.00    -0.253 C  
HETATM    2  O   UNL     1     -12.003  14.445  69.687  1.00  0.00    -0.298 OA 
ENDROOT
BRANCH   2   3
HETATM    3  C   UNL     1     -12.263  13.210  70.213  1.00  0.00    -0.306 A  
HETATM    4  C   UNL     1     -13.024  13.199  71.382  1.00  0.00    -0.386 A  
HETATM    5  C   UNL     1     -13.336  11.990  72.013  1.00  0.00    -0.447 A  
HETATM    6  C   UNL     1     -12.897  10.776  71.469  1.00  0.00    -0.567 A  
HETATM    7  C   UNL     1     -12.158  10.793  70.281  1.00  0.00    -0.433 A  
HETATM    8  C   UNL     1     -11.854  12.003  69.651  1.00  0.00    -0.401 A  
BRANCH   6   9
HETATM    9  C   UNL     1     -13.231   9.508  72.189  1.00  0.00    -0.451 C  
HETATM   10  O   UNL     1     -14.410   9.242  72.434  1.00  0.00    -0.410 OA 
BRANCH   9  11
HETATM   11  C   UNL     1     -12.121   8.612  72.689  1.00  0.00    -0.267 C  
BRANCH  11  12
HETATM   12  C   UNL     1     -11.827   7.425  71.808  1.00  0.00    -0.294 C  
HETATM   13  O   UNL     1     -12.557   7.086  70.878  1.00  0.00    -0.353 OA 
BRANCH  12  14
HETATM   14  C   UNL     1     -10.611   6.616  72.092  1.00  0.00    -0.238 A  
HETATM   15  C   UNL     1      -9.885   6.926  73.241  1.00  0.00    -0.228 A  
HETATM   16  C   UNL     1      -8.697   6.255  73.530  1.00  0.00    -0.126 A  
HETATM   17  C   UNL     1      -8.199   5.250  72.686  1.00  0.00    -0.113 A  
HETATM   18  C   UNL     1     -10.167   5.586  71.260  1.00  0.00    -0.283 A  
HETATM   19  C   UNL     1      -8.976   4.909  71.561  1.00  0.00    -0.160 A  
BRANCH  17  20
HETATM   20  C   UNL     1      -6.845   4.564  72.946  1.00  0.00    -0.058 C  
HETATM   21  C   UNL     1      -6.560   4.337  74.450  1.00  0.00    -0.058 C  
HETATM   22  C   UNL     1      -6.799   3.188  72.253  1.00  0.00    -0.026 C  
HETATM   23  C   UNL     1      -5.699   5.443  72.399  1.00  0.00    -0.018 C  
ENDBRANCH  17  20
ENDBRANCH  12  14
ENDBRANCH  11  12
ENDBRANCH   9  11
ENDBRANCH   6   9
ENDBRANCH   2   3
TORSDOF 6
ENDMDL
MODEL      129
REMARK 921   NORMALIZED FREE ENERGY PREDICTED BY IDOCK:   -4.42 KCAL/MOL
REMARK 922        TOTAL FREE ENERGY PREDICTED BY IDOCK:   -6.97 KCAL/MOL
REMARK 923 INTER-LIGAND FREE ENERGY PREDICTED BY IDOCK:   -6.32 KCAL/MOL
REMARK 924 INTRA-LIGAND FREE ENERGY PREDICTED BY IDOCK:   -0.66 KCAL/MOL
REMARK 927      BINDING AFFINITY PREDICTED BY RF-SCORE:    0.00 PKD
ROOT
HETATM    1  C   UNL     1      -9.524   7.750  73.575  1.00  0.00    -0.284 C  
HETATM    2  O   UNL     1      -8.574   8.488  72.812  1.00  0.00    -0.331 OA 
ENDROOT
BRANCH   2   3
HETATM    3  C   UNL     1      -8.980   8.825  71.550  1.00  0.00    -0.236 A  
HETATM    4  C   UNL     1     -10.329   8.610  71.270  1.00  0.00    -0.308 A  
HETATM    5  C   UNL     1     -10.846   8.906  70.005  1.00  0.00    -0.239 A  
HETATM    6  C   UNL     1     -10.015   9.434  69.008  1.00  0.00    -0.182 A  
HETATM    7  C   UNL     1      -8.669   9.674  69.305  1.00  0.00    -0.159 A  
HETATM    8  C   UNL     1      -8.157   9.382  70.573  1.00  0.00    -0.212 A  
BRANCH   6   9
HETATM    9  C   UNL     1     -10.603   9.713  67.661  1.00  0.00    -0.275 C  
HETATM   10  O   UNL     1     -10.552   8.846  66.786  1.00  0.00    -0.243 OA 
BRANCH   9  11
HETATM   11  C   UNL     1     -11.169  11.081  67.356  1.00  0.00    -0.355 C  
BRANCH  11  12
HETATM   12  C   UNL     1     -10.461  11.822  66.251  1.00  0.00    -0.244 C  
HETATM   13  O   UNL     1     -10.051  11.269  65.232  1.00  0.00    -0.240 OA 
BRANCH  12  14
HETATM   14  C   UNL     1     -10.231  13.283  66.412  1.00  0.00    -0.292 A  
HETATM   15  C   UNL     1      -9.928  13.750  67.690  1.00  0.00    -0.238 A  
HETATM   16  C   UNL     1      -9.770  15.116  67.925  1.00  0.00    -0.208 A  
HETATM   17  C   UNL     1      -9.903  16.058  66.892  1.00  0.00    -0.252 A  
HETATM   18  C   UNL     1     -10.319  14.191  65.355  1.00  0.00    -0.384 A  
HETATM   19  C   UNL     1     -10.151  15.562  65.596  1.00  0.00    -0.406 A  
BRANCH  17  20
HETATM   20  C   UNL     1      -9.819  17.572  67.155  1.00  0.00    -0.297 C  
HETATM   21  C   UNL     1     -10.359  17.978  68.546  1.00  0.00    -0.359 C  
HETATM   22  C   UNL     1      -8.356  18.051  67.068  1.00  0.00    -0.248 C  
HETATM   23  C   UNL     1     -10.660  18.333  66.106  1.00  0.00    -0.326 C  
ENDBRANCH  17  20
ENDBRANCH  12  14
ENDBRANCH  11  12
ENDBRANCH   9  11
ENDBRANCH   6   9
ENDBRANCH   2   3
TORSDOF 6
ENDMDL
MODEL      130
REMARK 921   NORMALIZED FREE ENERGY PREDICTED BY IDOCK:   -4.40 KCAL/MOL
REMARK 922        TOTAL FREE ENERGY PREDICTED BY IDOCK:   -6.94 KCAL/MOL
REMARK 923 INTER-LIGAND FREE ENERGY PREDICTED BY IDOCK:   -6.14 KCAL/MOL
REMARK 924 INTRA-LIGAND FREE ENERGY PREDICTED BY IDOCK:   -0.80 KCAL/MOL
REMARK 927      BINDING AFFINITY PREDICTED BY RF-SCORE:    0.00 PKD
ROOT
HETATM    1  C   UNL     1     -10.720   5.649  68.130  1.00  0.00    -0.153 C  
HETATM    2  O   UNL     1     -10.713   6.480  66.972  1.00  0.00    -0.287 OA 
ENDROOT
BRANCH   2   3
HETATM    3  C   UNL     1     -10.342   7.778  67.192  1.00  0.00    -0.319 A  
HETATM    4  C   UNL     1      -9.765   8.434  66.106  1.00  0.00    -0.223 A  
HETATM    5  C   UNL     1      -9.335   9.760  66.225  1.00  0.00    -0.230 A  
HETATM    6  C   UNL     1      -9.493  10.446  67.436  1.00  0.00    -0.170 A  
HETATM    7  C   UNL     1     -10.099   9.790  68.514  1.00  0.00    -0.185 A  
HETATM    8  C   UNL     1     -10.532   8.467  68.388  1.00  0.00    -0.208 A  
BRANCH   6   9
HETATM    9  C   UNL     1      -8.997  11.855  67.529  1.00  0.00    -0.171 C  
HETATM   10  O   UNL     1      -8.416  12.226  68.552  1.00  0.00    -0.152 OA 
BRANCH   9  11
HETATM   11  C   UNL     1      -9.292  12.831  66.414  1.00  0.00    -0.196 C  
BRANCH  11  12
HETATM   12  C   UNL     1     -10.459  13.749  66.675  1.00  0.00    -0.272 C  
HETATM   13  O   UNL     1     -11.617  13.347  66.762  1.00  0.00    -0.331 OA 
BRANCH  12  14
HETATM   14  C   UNL     1     -10.196  15.207  66.812  1.00  0.00    -0.265 A  
HETATM   15  C   UNL     1     -11.079  15.949  67.596  1.00  0.00    -0.266 A  
HETATM   16  C   UNL     1     -10.932  17.331  67.710  1.00  0.00    -0.163 A  
HETATM   17  C   UNL     1      -9.898  18.016  67.052  1.00  0.00    -0.318 A  
HETATM   18  C   UNL     1      -9.127  15.853  66.187  1.00  0.00    -0.385 A  
HETATM   19  C   UNL     1      -8.981  17.242  66.313  1.00  0.00    -0.250 A  
BRANCH  17  20
HETATM   20  C   UNL     1      -9.778  19.550  67.098  1.00  0.00    -0.447 C  
HETATM   21  C   UNL     1     -10.311  20.161  68.415  1.00  0.00    -0.401 C  
HETATM   22  C   UNL     1      -8.304  19.977  66.953  1.00  0.00    -0.376 C  
HETATM   23  C   UNL     1     -10.598  20.174  65.948  1.00  0.00    -0.374 C  
ENDBRANCH  17  20
ENDBRANCH  12  14
ENDBRANCH  11  12
ENDBRANCH   9  11
ENDBRANCH   6   9
ENDBRANCH   2   3
TORSDOF 6
ENDMDL
MODEL      131
REMARK 921   NORMALIZED FREE ENERGY PREDICTED BY IDOCK:   -4.39 KCAL/MOL
REMARK 922        TOTAL FREE ENERGY PREDICTED BY IDOCK:   -6.93 KCAL/MOL
REMARK 923 INTER-LIGAND FREE ENERGY PREDICTED BY IDOCK:   -6.13 KCAL/MOL
REMARK 924 INTRA-LIGAND FREE ENERGY PREDICTED BY IDOCK:   -0.80 KCAL/MOL
REMARK 927      BINDING AFFINITY PREDICTED BY RF-SCORE:    0.00 PKD
ROOT
HETATM    1  C   UNL     1     -12.808   7.342  71.239  1.00  0.00    -0.321 C  
HETATM    2  O   UNL     1     -11.558   6.866  70.748  1.00  0.00    -0.310 OA 
ENDROOT
BRANCH   2   3
HETATM    3  C   UNL     1     -10.885   7.734  69.934  1.00  0.00    -0.226 A  
HETATM    4  C   UNL     1     -10.969   9.081  70.284  1.00  0.00    -0.274 A  
HETATM    5  C   UNL     1     -10.331  10.056  69.510  1.00  0.00    -0.256 A  
HETATM    6  C   UNL     1      -9.589   9.687  68.381  1.00  0.00    -0.154 A  
HETATM    7  C   UNL     1      -9.487   8.330  68.051  1.00  0.00    -0.153 A  
HETATM    8  C   UNL     1     -10.121   7.359  68.831  1.00  0.00    -0.188 A  
BRANCH   6   9
HETATM    9  C   UNL     1      -8.944  10.763  67.567  1.00  0.00    -0.132 C  
HETATM   10  O   UNL     1      -8.346  10.463  66.531  1.00  0.00    -0.124 OA 
BRANCH   9  11
HETATM   11  C   UNL     1      -8.950  12.189  68.065  1.00  0.00    -0.189 C  
BRANCH  11  12
HETATM   12  C   UNL     1     -10.005  13.067  67.442  1.00  0.00    -0.228 C  
HETATM   13  O   UNL     1     -11.023  12.619  66.918  1.00  0.00    -0.249 OA 
BRANCH  12  14
HETATM   14  C   UNL     1      -9.793  14.540  67.445  1.00  0.00    -0.227 A  
HETATM   15  C   UNL     1     -10.783  15.332  68.027  1.00  0.00    -0.268 A  
HETATM   16  C   UNL     1     -10.682  16.722  68.002  1.00  0.00    -0.355 A  
HETATM   17  C   UNL     1      -9.588  17.367  67.403  1.00  0.00    -0.257 A  
HETATM   18  C   UNL     1      -8.668  15.152  66.889  1.00  0.00    -0.289 A  
HETATM   19  C   UNL     1      -8.569  16.550  66.874  1.00  0.00    -0.237 A  
BRANCH  17  20
HETATM   20  C   UNL     1      -9.507  18.901  67.291  1.00  0.00    -0.336 C  
HETATM   21  C   UNL     1      -8.055  19.434  67.296  1.00  0.00    -0.298 C  
HETATM   22  C   UNL     1     -10.172  19.379  65.985  1.00  0.00    -0.540 C  
HETATM   23  C   UNL     1     -10.230  19.552  68.490  1.00  0.00    -0.517 C  
ENDBRANCH  17  20
ENDBRANCH  12  14
ENDBRANCH  11  12
ENDBRANCH   9  11
ENDBRANCH   6   9
ENDBRANCH   2   3
TORSDOF 6
ENDMDL
MODEL      132
REMARK 921   NORMALIZED FREE ENERGY PREDICTED BY IDOCK:   -4.38 KCAL/MOL
REMARK 922        TOTAL FREE ENERGY PREDICTED BY IDOCK:   -6.92 KCAL/MOL
REMARK 923 INTER-LIGAND FREE ENERGY PREDICTED BY IDOCK:   -5.21 KCAL/MOL
REMARK 924 INTRA-LIGAND FREE ENERGY PREDICTED BY IDOCK:   -1.71 KCAL/MOL
REMARK 927      BINDING AFFINITY PREDICTED BY RF-SCORE:    0.00 PKD
ROOT
HETATM    1  C   UNL     1      -7.428  10.571  68.412  1.00  0.00    -0.092 C  
HETATM    2  O   UNL     1      -6.486  11.291  67.623  1.00  0.00    -0.061 OA 
ENDROOT
BRANCH   2   3
HETATM    3  C   UNL     1      -6.379  12.622  67.917  1.00  0.00    -0.111 A  
HETATM    4  C   UNL     1      -7.444  13.171  68.631  1.00  0.00    -0.092 A  
HETATM    5  C   UNL     1      -7.444  14.527  68.972  1.00  0.00    -0.131 A  
HETATM    6  C   UNL     1      -6.367  15.347  68.610  1.00  0.00    -0.095 A  
HETATM    7  C   UNL     1      -5.289  14.782  67.918  1.00  0.00    -0.092 A  
HETATM    8  C   UNL     1      -5.290  13.425  67.584  1.00  0.00    -0.017 A  
BRANCH   6   9
HETATM    9  C   UNL     1      -6.419  16.797  68.971  1.00  0.00    -0.195 C  
HETATM   10  O   UNL     1      -6.155  17.144  70.125  1.00  0.00    -0.201 OA 
BRANCH   9  11
HETATM   11  C   UNL     1      -6.880  17.811  67.950  1.00  0.00    -0.193 C  
BRANCH  11  12
HETATM   12  C   UNL     1      -8.374  17.996  67.879  1.00  0.00    -0.248 C  
HETATM   13  O   UNL     1      -8.941  19.011  68.278  1.00  0.00    -0.307 OA 
BRANCH  12  14
HETATM   14  C   UNL     1      -9.199  16.892  67.318  1.00  0.00    -0.231 A  
HETATM   15  C   UNL     1     -10.288  16.455  68.072  1.00  0.00    -0.288 A  
HETATM   16  C   UNL     1     -11.060  15.378  67.639  1.00  0.00    -0.316 A  
HETATM   17  C   UNL     1     -10.776  14.707  66.439  1.00  0.00    -0.309 A  
HETATM   18  C   UNL     1      -8.923  16.277  66.095  1.00  0.00    -0.374 A  
HETATM   19  C   UNL     1      -9.709  15.200  65.661  1.00  0.00    -0.351 A  
BRANCH  17  20
HETATM   20  C   UNL     1     -11.566  13.462  65.994  1.00  0.00    -0.375 C  
HETATM   21  C   UNL     1     -10.942  12.752  64.770  1.00  0.00    -0.334 C  
HETATM   22  C   UNL     1     -11.636  12.433  67.141  1.00  0.00    -0.435 C  
HETATM   23  C   UNL     1     -13.002  13.869  65.596  1.00  0.00    -0.361 C  
ENDBRANCH  17  20
ENDBRANCH  12  14
ENDBRANCH  11  12
ENDBRANCH   9  11
ENDBRANCH   6   9
ENDBRANCH   2   3
TORSDOF 6
ENDMDL
MODEL      133
REMARK 921   NORMALIZED FREE ENERGY PREDICTED BY IDOCK:   -4.37 KCAL/MOL
REMARK 922        TOTAL FREE ENERGY PREDICTED BY IDOCK:   -6.90 KCAL/MOL
REMARK 923 INTER-LIGAND FREE ENERGY PREDICTED BY IDOCK:   -5.12 KCAL/MOL
REMARK 924 INTRA-LIGAND FREE ENERGY PREDICTED BY IDOCK:   -1.78 KCAL/MOL
REMARK 927      BINDING AFFINITY PREDICTED BY RF-SCORE:    0.00 PKD
ROOT
HETATM    1  C   UNL     1      -6.510  13.243  68.779  1.00  0.00    -0.099 C  
HETATM    2  O   UNL     1      -5.437  14.087  69.188  1.00  0.00    -0.077 OA 
ENDROOT
BRANCH   2   3
HETATM    3  C   UNL     1      -5.611  15.417  68.922  1.00  0.00    -0.098 A  
HETATM    4  C   UNL     1      -6.166  16.173  69.955  1.00  0.00    -0.154 A  
HETATM    5  C   UNL     1      -6.401  17.541  69.784  1.00  0.00    -0.134 A  
HETATM    6  C   UNL     1      -6.069  18.169  68.576  1.00  0.00    -0.192 A  
HETATM    7  C   UNL     1      -5.487  17.410  67.555  1.00  0.00    -0.136 A  
HETATM    8  C   UNL     1      -5.249  16.044  67.732  1.00  0.00    -0.148 A  
BRANCH   6   9
HETATM    9  C   UNL     1      -6.361  19.629  68.426  1.00  0.00    -0.254 C  
HETATM   10  O   UNL     1      -6.014  20.411  69.314  1.00  0.00    -0.309 OA 
BRANCH   9  11
HETATM   11  C   UNL     1      -7.154  20.118  67.236  1.00  0.00    -0.297 C  
BRANCH  11  12
HETATM   12  C   UNL     1      -8.649  20.092  67.425  1.00  0.00    -0.343 C  
HETATM   13  O   UNL     1      -9.351  21.098  67.339  1.00  0.00    -0.253 OA 
BRANCH  12  14
HETATM   14  C   UNL     1      -9.300  18.794  67.748  1.00  0.00    -0.323 A  
HETATM   15  C   UNL     1      -9.186  17.766  66.813  1.00  0.00    -0.281 A  
HETATM   16  C   UNL     1      -9.830  16.546  67.021  1.00  0.00    -0.259 A  
HETATM   17  C   UNL     1     -10.602  16.311  68.170  1.00  0.00    -0.307 A  
HETATM   18  C   UNL     1     -10.018  18.571  68.925  1.00  0.00    -0.383 A  
HETATM   19  C   UNL     1     -10.657  17.340  69.132  1.00  0.00    -0.209 A  
BRANCH  17  20
HETATM   20  C   UNL     1     -11.389  15.003  68.370  1.00  0.00    -0.323 C  
HETATM   21  C   UNL     1     -12.264  14.629  67.150  1.00  0.00    -0.095 C  
HETATM   22  C   UNL     1     -10.423  13.829  68.624  1.00  0.00    -0.245 C  
HETATM   23  C   UNL     1     -12.340  15.143  69.579  1.00  0.00    -0.206 C  
ENDBRANCH  17  20
ENDBRANCH  12  14
ENDBRANCH  11  12
ENDBRANCH   9  11
ENDBRANCH   6   9
ENDBRANCH   2   3
TORSDOF 6
ENDMDL
MODEL      134
REMARK 921   NORMALIZED FREE ENERGY PREDICTED BY IDOCK:   -4.36 KCAL/MOL
REMARK 922        TOTAL FREE ENERGY PREDICTED BY IDOCK:   -6.89 KCAL/MOL
REMARK 923 INTER-LIGAND FREE ENERGY PREDICTED BY IDOCK:   -5.35 KCAL/MOL
REMARK 924 INTRA-LIGAND FREE ENERGY PREDICTED BY IDOCK:   -1.55 KCAL/MOL
REMARK 927      BINDING AFFINITY PREDICTED BY RF-SCORE:    0.00 PKD
ROOT
HETATM    1  C   UNL     1      -5.241  16.182  69.325  1.00  0.00    -0.111 C  
HETATM    2  O   UNL     1      -6.367  15.809  68.535  1.00  0.00    -0.103 OA 
ENDROOT
BRANCH   2   3
HETATM    3  C   UNL     1      -6.700  14.484  68.588  1.00  0.00    -0.088 A  
HETATM    4  C   UNL     1      -6.216  13.782  69.691  1.00  0.00    -0.121 A  
HETATM    5  C   UNL     1      -6.485  12.417  69.836  1.00  0.00     0.024 A  
HETATM    6  C   UNL     1      -7.255  11.744  68.880  1.00  0.00    -0.107 A  
HETATM    7  C   UNL     1      -7.761  12.461  67.790  1.00  0.00    -0.139 A  
HETATM    8  C   UNL     1      -7.494  13.826  67.652  1.00  0.00    -0.187 A  
BRANCH   6   9
HETATM    9  C   UNL     1      -7.498  10.279  69.060  1.00  0.00    -0.097 C  
HETATM   10  O   UNL     1      -6.860   9.470  68.382  1.00  0.00    -0.061 OA 
BRANCH   9  11
HETATM   11  C   UNL     1      -8.583   9.807  70.000  1.00  0.00    -0.229 C  
BRANCH  11  12
HETATM   12  C   UNL     1      -9.845   9.341  69.320  1.00  0.00    -0.172 C  
HETATM   13  O   UNL     1     -10.393   8.273  69.588  1.00  0.00    -0.209 OA 
BRANCH  12  14
HETATM   14  C   UNL     1     -10.440  10.203  68.264  1.00  0.00    -0.244 A  
HETATM   15  C   UNL     1     -10.087   9.937  66.941  1.00  0.00    -0.285 A  
HETATM   16  C   UNL     1     -10.552  10.750  65.908  1.00  0.00    -0.216 A  
HETATM   17  C   UNL     1     -11.390  11.849  66.160  1.00  0.00    -0.383 A  
HETATM   18  C   UNL     1     -11.313  11.257  68.539  1.00  0.00    -0.341 A  
HETATM   19  C   UNL     1     -11.784  12.066  67.495  1.00  0.00    -0.351 A  
BRANCH  17  20
HETATM   20  C   UNL     1     -11.838  12.805  65.039  1.00  0.00    -0.423 C  
HETATM   21  C   UNL     1     -12.641  12.098  63.923  1.00  0.00    -0.545 C  
HETATM   22  C   UNL     1     -12.730  13.923  65.614  1.00  0.00    -0.534 C  
HETATM   23  C   UNL     1     -10.601  13.443  64.369  1.00  0.00    -0.423 C  
ENDBRANCH  17  20
ENDBRANCH  12  14
ENDBRANCH  11  12
ENDBRANCH   9  11
ENDBRANCH   6   9
ENDBRANCH   2   3
TORSDOF 6
ENDMDL
MODEL      135
REMARK 921   NORMALIZED FREE ENERGY PREDICTED BY IDOCK:   -4.35 KCAL/MOL
REMARK 922        TOTAL FREE ENERGY PREDICTED BY IDOCK:   -6.87 KCAL/MOL
REMARK 923 INTER-LIGAND FREE ENERGY PREDICTED BY IDOCK:   -5.97 KCAL/MOL
REMARK 924 INTRA-LIGAND FREE ENERGY PREDICTED BY IDOCK:   -0.91 KCAL/MOL
REMARK 927      BINDING AFFINITY PREDICTED BY RF-SCORE:    0.00 PKD
ROOT
HETATM    1  C   UNL     1     -13.829  13.762  72.010  1.00  0.00    -0.485 C  
HETATM    2  O   UNL     1     -12.829  12.841  71.584  1.00  0.00    -0.334 OA 
ENDROOT
BRANCH   2   3
HETATM    3  C   UNL     1     -12.403  13.000  70.295  1.00  0.00    -0.241 A  
HETATM    4  C   UNL     1     -11.715  11.919  69.746  1.00  0.00    -0.403 A  
HETATM    5  C   UNL     1     -11.223  11.982  68.439  1.00  0.00    -0.313 A  
HETATM    6  C   UNL     1     -11.427  13.129  67.661  1.00  0.00    -0.366 A  
HETATM    7  C   UNL     1     -12.143  14.200  68.209  1.00  0.00    -0.297 A  
HETATM    8  C   UNL     1     -12.639  14.130  69.515  1.00  0.00    -0.011 A  
BRANCH   6   9
HETATM    9  C   UNL     1     -10.862  13.165  66.277  1.00  0.00    -0.279 C  
HETATM   10  O   UNL     1     -10.099  14.079  65.957  1.00  0.00    -0.295 OA 
BRANCH   9  11
HETATM   11  C   UNL     1     -11.301  12.139  65.258  1.00  0.00    -0.386 C  
BRANCH  11  12
HETATM   12  C   UNL     1     -10.180  11.332  64.655  1.00  0.00    -0.301 C  
HETATM   13  O   UNL     1      -9.595  11.667  63.627  1.00  0.00    -0.263 OA 
BRANCH  12  14
HETATM   14  C   UNL     1      -9.778  10.066  65.325  1.00  0.00    -0.373 A  
HETATM   15  C   UNL     1      -8.725   9.345  64.761  1.00  0.00    -0.227 A  
HETATM   16  C   UNL     1      -8.344   8.115  65.297  1.00  0.00    -0.160 A  
HETATM   17  C   UNL     1      -8.995   7.568  66.414  1.00  0.00    -0.196 A  
HETATM   18  C   UNL     1     -10.410   9.572  66.468  1.00  0.00    -0.263 A  
HETATM   19  C   UNL     1     -10.017   8.338  67.006  1.00  0.00    -0.325 A  
BRANCH  17  20
HETATM   20  C   UNL     1      -8.643   6.173  66.960  1.00  0.00    -0.108 C  
HETATM   21  C   UNL     1      -7.119   5.927  67.059  1.00  0.00    -0.070 C  
HETATM   22  C   UNL     1      -9.234   5.983  68.371  1.00  0.00    -0.114 C  
HETATM   23  C   UNL     1      -9.214   5.085  66.025  1.00  0.00    -0.154 C  
ENDBRANCH  17  20
ENDBRANCH  12  14
ENDBRANCH  11  12
ENDBRANCH   9  11
ENDBRANCH   6   9
ENDBRANCH   2   3
TORSDOF 6
ENDMDL
MODEL      136
REMARK 921   NORMALIZED FREE ENERGY PREDICTED BY IDOCK:   -4.34 KCAL/MOL
REMARK 922        TOTAL FREE ENERGY PREDICTED BY IDOCK:   -6.87 KCAL/MOL
REMARK 923 INTER-LIGAND FREE ENERGY PREDICTED BY IDOCK:   -5.52 KCAL/MOL
REMARK 924 INTRA-LIGAND FREE ENERGY PREDICTED BY IDOCK:   -1.35 KCAL/MOL
REMARK 927      BINDING AFFINITY PREDICTED BY RF-SCORE:    0.00 PKD
ROOT
HETATM    1  C   UNL     1     -12.523  14.511  64.614  1.00  0.00    -0.321 C  
HETATM    2  O   UNL     1     -12.726  13.108  64.758  1.00  0.00    -0.648 OA 
ENDROOT
BRANCH   2   3
HETATM    3  C   UNL     1     -11.827  12.472  65.567  1.00  0.00    -0.439 A  
HETATM    4  C   UNL     1     -11.857  12.840  66.912  1.00  0.00    -0.440 A  
HETATM    5  C   UNL     1     -10.968  12.262  67.825  1.00  0.00    -0.274 A  
HETATM    6  C   UNL     1     -10.048  11.296  67.399  1.00  0.00    -0.214 A  
HETATM    7  C   UNL     1     -10.043  10.911  66.054  1.00  0.00    -0.303 A  
HETATM    8  C   UNL     1     -10.936  11.487  65.146  1.00  0.00    -0.298 A  
BRANCH   6   9
HETATM    9  C   UNL     1      -9.099  10.721  68.403  1.00  0.00    -0.164 C  
HETATM   10  O   UNL     1      -7.904  10.614  68.116  1.00  0.00    -0.105 OA 
BRANCH   9  11
HETATM   11  C   UNL     1      -9.624  10.195  69.718  1.00  0.00    -0.213 C  
BRANCH  11  12
HETATM   12  C   UNL     1     -10.503   8.975  69.601  1.00  0.00    -0.222 C  
HETATM   13  O   UNL     1     -11.561   8.854  70.215  1.00  0.00    -0.178 OA 
BRANCH  12  14
HETATM   14  C   UNL     1     -10.058   7.864  68.719  1.00  0.00    -0.203 A  
HETATM   15  C   UNL     1     -10.873   7.534  67.637  1.00  0.00    -0.197 A  
HETATM   16  C   UNL     1     -10.551   6.457  66.811  1.00  0.00    -0.328 A  
HETATM   17  C   UNL     1      -9.404   5.679  67.034  1.00  0.00    -0.119 A  
HETATM   18  C   UNL     1      -8.882   7.140  68.934  1.00  0.00    -0.130 A  
HETATM   19  C   UNL     1      -8.560   6.064  68.095  1.00  0.00    -0.114 A  
BRANCH  17  20
HETATM   20  C   UNL     1      -9.085   4.436  66.184  1.00  0.00    -0.130 C  
HETATM   21  C   UNL     1     -10.016   4.283  64.958  1.00  0.00    -0.199 C  
HETATM   22  C   UNL     1      -7.636   4.501  65.660  1.00  0.00    -0.082 C  
HETATM   23  C   UNL     1      -9.253   3.161  67.039  1.00  0.00    -0.198 C  
ENDBRANCH  17  20
ENDBRANCH  12  14
ENDBRANCH  11  12
ENDBRANCH   9  11
ENDBRANCH   6   9
ENDBRANCH   2   3
TORSDOF 6
ENDMDL
MODEL      137
REMARK 921   NORMALIZED FREE ENERGY PREDICTED BY IDOCK:   -4.33 KCAL/MOL
REMARK 922        TOTAL FREE ENERGY PREDICTED BY IDOCK:   -6.85 KCAL/MOL
REMARK 923 INTER-LIGAND FREE ENERGY PREDICTED BY IDOCK:   -5.87 KCAL/MOL
REMARK 924 INTRA-LIGAND FREE ENERGY PREDICTED BY IDOCK:   -0.98 KCAL/MOL
REMARK 927      BINDING AFFINITY PREDICTED BY RF-SCORE:    0.00 PKD
ROOT
HETATM    1  C   UNL     1     -13.864   8.979  72.184  1.00  0.00    -0.466 C  
HETATM    2  O   UNL     1     -12.666   9.751  72.201  1.00  0.00    -0.376 OA 
ENDROOT
BRANCH   2   3
HETATM    3  C   UNL     1     -12.053   9.897  70.987  1.00  0.00    -0.358 A  
HETATM    4  C   UNL     1     -11.178   8.873  70.625  1.00  0.00    -0.308 A  
HETATM    5  C   UNL     1     -10.486   8.929  69.411  1.00  0.00    -0.228 A  
HETATM    6  C   UNL     1     -10.674  10.009  68.540  1.00  0.00    -0.264 A  
HETATM    7  C   UNL     1     -11.575  11.019  68.897  1.00  0.00    -0.383 A  
HETATM    8  C   UNL     1     -12.269  10.956  70.109  1.00  0.00    -0.423 A  
BRANCH   6   9
HETATM    9  C   UNL     1      -9.896  10.042  67.263  1.00  0.00    -0.181 C  
HETATM   10  O   UNL     1     -10.462   9.779  66.200  1.00  0.00    -0.179 OA 
BRANCH   9  11
HETATM   11  C   UNL     1      -8.408  10.308  67.296  1.00  0.00    -0.121 C  
BRANCH  11  12
HETATM   12  C   UNL     1      -7.994  11.452  68.186  1.00  0.00    -0.133 C  
HETATM   13  O   UNL     1      -7.424  11.288  69.262  1.00  0.00    -0.109 OA 
BRANCH  12  14
HETATM   14  C   UNL     1      -8.308  12.839  67.748  1.00  0.00    -0.177 A  
HETATM   15  C   UNL     1      -7.573  13.877  68.321  1.00  0.00    -0.130 A  
HETATM   16  C   UNL     1      -7.863  15.205  68.008  1.00  0.00    -0.135 A  
HETATM   17  C   UNL     1      -8.889  15.539  67.110  1.00  0.00    -0.233 A  
HETATM   18  C   UNL     1      -9.300  13.139  66.812  1.00  0.00    -0.244 A  
HETATM   19  C   UNL     1      -9.581  14.476  66.496  1.00  0.00    -0.311 A  
BRANCH  17  20
HETATM   20  C   UNL     1      -9.277  17.002  66.825  1.00  0.00    -0.270 C  
HETATM   21  C   UNL     1      -8.107  17.840  66.258  1.00  0.00    -0.269 C  
HETATM   22  C   UNL     1     -10.428  17.062  65.801  1.00  0.00    -0.261 C  
HETATM   23  C   UNL     1      -9.731  17.688  68.132  1.00  0.00    -0.310 C  
ENDBRANCH  17  20
ENDBRANCH  12  14
ENDBRANCH  11  12
ENDBRANCH   9  11
ENDBRANCH   6   9
ENDBRANCH   2   3
TORSDOF 6
ENDMDL
MODEL      138
REMARK 921   NORMALIZED FREE ENERGY PREDICTED BY IDOCK:   -4.31 KCAL/MOL
REMARK 922        TOTAL FREE ENERGY PREDICTED BY IDOCK:   -6.83 KCAL/MOL
REMARK 923 INTER-LIGAND FREE ENERGY PREDICTED BY IDOCK:   -5.62 KCAL/MOL
REMARK 924 INTRA-LIGAND FREE ENERGY PREDICTED BY IDOCK:   -1.21 KCAL/MOL
REMARK 927      BINDING AFFINITY PREDICTED BY RF-SCORE:    0.00 PKD
ROOT
HETATM    1  C   UNL     1      -9.481  15.494  66.376  1.00  0.00    -0.291 C  
HETATM    2  O   UNL     1      -9.815  16.318  67.489  1.00  0.00    -0.233 OA 
ENDROOT
BRANCH   2   3
HETATM    3  C   UNL     1     -10.564  15.709  68.458  1.00  0.00    -0.256 A  
HETATM    4  C   UNL     1     -11.340  14.630  68.034  1.00  0.00    -0.329 A  
HETATM    5  C   UNL     1     -12.156  13.944  68.939  1.00  0.00    -0.355 A  
HETATM    6  C   UNL     1     -12.191  14.326  70.287  1.00  0.00    -0.407 A  
HETATM    7  C   UNL     1     -11.389  15.392  70.710  1.00  0.00    -0.376 A  
HETATM    8  C   UNL     1     -10.571  16.071  69.803  1.00  0.00    -0.323 A  
BRANCH   6   9
HETATM    9  C   UNL     1     -13.096  13.583  71.217  1.00  0.00    -0.262 C  
HETATM   10  O   UNL     1     -14.229  14.018  71.439  1.00  0.00    -0.234 OA 
BRANCH   9  11
HETATM   11  C   UNL     1     -12.586  12.361  71.945  1.00  0.00    -0.043 C  
BRANCH  11  12
HETATM   12  C   UNL     1     -12.706  11.072  71.172  1.00  0.00    -0.419 C  
HETATM   13  O   UNL     1     -13.776  10.489  71.007  1.00  0.00     0.046 OA 
BRANCH  12  14
HETATM   14  C   UNL     1     -11.471  10.472  70.599  1.00  0.00    -0.418 A  
HETATM   15  C   UNL     1     -10.788   9.539  71.378  1.00  0.00    -0.382 A  
HETATM   16  C   UNL     1      -9.586   8.990  70.933  1.00  0.00    -0.328 A  
HETATM   17  C   UNL     1      -9.030   9.349  69.694  1.00  0.00    -0.181 A  
HETATM   18  C   UNL     1     -10.970  10.810  69.340  1.00  0.00    -0.305 A  
HETATM   19  C   UNL     1      -9.765  10.248  68.894  1.00  0.00    -0.193 A  
BRANCH  17  20
HETATM   20  C   UNL     1      -7.662   8.818  69.230  1.00  0.00    -0.095 C  
HETATM   21  C   UNL     1      -7.724   7.370  68.690  1.00  0.00    -0.120 C  
HETATM   22  C   UNL     1      -7.094   9.707  68.106  1.00  0.00    -0.079 C  
HETATM   23  C   UNL     1      -6.673   8.814  70.416  1.00  0.00    -0.043 C  
ENDBRANCH  17  20
ENDBRANCH  12  14
ENDBRANCH  11  12
ENDBRANCH   9  11
ENDBRANCH   6   9
ENDBRANCH   2   3
TORSDOF 6
ENDMDL
MODEL      139
REMARK 921   NORMALIZED FREE ENERGY PREDICTED BY IDOCK:   -4.30 KCAL/MOL
REMARK 922        TOTAL FREE ENERGY PREDICTED BY IDOCK:   -6.81 KCAL/MOL
REMARK 923 INTER-LIGAND FREE ENERGY PREDICTED BY IDOCK:   -5.69 KCAL/MOL
REMARK 924 INTRA-LIGAND FREE ENERGY PREDICTED BY IDOCK:   -1.12 KCAL/MOL
REMARK 927      BINDING AFFINITY PREDICTED BY RF-SCORE:    0.00 PKD
ROOT
HETATM    1  C   UNL     1      -8.823  18.980  66.405  1.00  0.00    -0.321 C  
HETATM    2  O   UNL     1      -8.368  17.739  65.874  1.00  0.00    -0.524 OA 
ENDROOT
BRANCH   2   3
HETATM    3  C   UNL     1      -9.070  16.640  66.285  1.00  0.00    -0.298 A  
HETATM    4  C   UNL     1     -10.264  16.396  65.607  1.00  0.00    -0.349 A  
HETATM    5  C   UNL     1     -11.068  15.307  65.958  1.00  0.00    -0.278 A  
HETATM    6  C   UNL     1     -10.674  14.440  66.985  1.00  0.00    -0.285 A  
HETATM    7  C   UNL     1      -9.461  14.675  67.642  1.00  0.00    -0.205 A  
HETATM    8  C   UNL     1      -8.658  15.762  67.285  1.00  0.00    -0.209 A  
BRANCH   6   9
HETATM    9  C   UNL     1     -11.575  13.302  67.345  1.00  0.00    -0.353 C  
HETATM   10  O   UNL     1     -12.089  13.266  68.466  1.00  0.00    -0.341 OA 
BRANCH   9  11
HETATM   11  C   UNL     1     -11.775  12.163  66.372  1.00  0.00    -0.394 C  
BRANCH  11  12
HETATM   12  C   UNL     1     -10.527  11.378  66.059  1.00  0.00    -0.255 C  
HETATM   13  O   UNL     1      -9.896  11.514  65.013  1.00  0.00    -0.245 OA 
BRANCH  12  14
HETATM   14  C   UNL     1     -10.051  10.380  67.054  1.00  0.00    -0.264 A  
HETATM   15  C   UNL     1      -9.034  10.772  67.925  1.00  0.00    -0.139 A  
HETATM   16  C   UNL     1      -8.493   9.865  68.835  1.00  0.00    -0.127 A  
HETATM   17  C   UNL     1      -8.952   8.540  68.911  1.00  0.00    -0.146 A  
HETATM   18  C   UNL     1     -10.563   9.084  67.142  1.00  0.00    -0.291 A  
HETATM   19  C   UNL     1     -10.020   8.178  68.066  1.00  0.00    -0.222 A  
BRANCH  17  20
HETATM   20  C   UNL     1      -8.304   7.506  69.849  1.00  0.00    -0.133 C  
HETATM   21  C   UNL     1      -7.534   6.398  69.092  1.00  0.00    -0.095 C  
HETATM   22  C   UNL     1      -7.306   8.195  70.800  1.00  0.00    -0.058 C  
HETATM   23  C   UNL     1      -9.394   6.803  70.688  1.00  0.00    -0.162 C  
ENDBRANCH  17  20
ENDBRANCH  12  14
ENDBRANCH  11  12
ENDBRANCH   9  11
ENDBRANCH   6   9
ENDBRANCH   2   3
TORSDOF 6
ENDMDL
MODEL      140
REMARK 921   NORMALIZED FREE ENERGY PREDICTED BY IDOCK:   -4.27 KCAL/MOL
REMARK 922        TOTAL FREE ENERGY PREDICTED BY IDOCK:   -6.77 KCAL/MOL
REMARK 923 INTER-LIGAND FREE ENERGY PREDICTED BY IDOCK:   -5.95 KCAL/MOL
REMARK 924 INTRA-LIGAND FREE ENERGY PREDICTED BY IDOCK:   -0.82 KCAL/MOL
REMARK 927      BINDING AFFINITY PREDICTED BY RF-SCORE:    0.00 PKD
ROOT
HETATM    1  C   UNL     1     -10.275  18.637  66.948  1.00  0.00    -0.385 C  
HETATM    2  O   UNL     1     -10.549  18.311  68.308  1.00  0.00    -0.335 OA 
ENDROOT
BRANCH   2   3
HETATM    3  C   UNL     1     -10.703  16.977  68.566  1.00  0.00    -0.352 A  
HETATM    4  C   UNL     1     -10.442  16.121  67.497  1.00  0.00    -0.302 A  
HETATM    5  C   UNL     1     -10.583  14.737  67.647  1.00  0.00    -0.262 A  
HETATM    6  C   UNL     1     -10.975  14.197  68.878  1.00  0.00    -0.280 A  
HETATM    7  C   UNL     1     -11.208  15.061  69.954  1.00  0.00    -0.303 A  
HETATM    8  C   UNL     1     -11.061  16.443  69.802  1.00  0.00    -0.305 A  
BRANCH   6   9
HETATM    9  C   UNL     1     -11.138  12.714  68.989  1.00  0.00    -0.238 C  
HETATM   10  O   UNL     1     -12.007  12.253  69.733  1.00  0.00    -0.314 OA 
BRANCH   9  11
HETATM   11  C   UNL     1     -10.182  11.796  68.263  1.00  0.00    -0.209 C  
BRANCH  11  12
HETATM   12  C   UNL     1     -10.793  11.032  67.117  1.00  0.00    -0.282 C  
HETATM   13  O   UNL     1     -11.712  11.477  66.432  1.00  0.00    -0.422 OA 
BRANCH  12  14
HETATM   14  C   UNL     1     -10.273   9.671  66.816  1.00  0.00    -0.308 A  
HETATM   15  C   UNL     1     -10.758   8.612  67.583  1.00  0.00    -0.194 A  
HETATM   16  C   UNL     1     -10.261   7.321  67.402  1.00  0.00    -0.304 A  
HETATM   17  C   UNL     1      -9.271   7.044  66.444  1.00  0.00    -0.186 A  
HETATM   18  C   UNL     1      -9.327   9.417  65.821  1.00  0.00    -0.301 A  
HETATM   19  C   UNL     1      -8.837   8.115  65.638  1.00  0.00    -0.160 A  
BRANCH  17  20
HETATM   20  C   UNL     1      -8.652   5.643  66.295  1.00  0.00    -0.127 C  
HETATM   21  C   UNL     1      -8.668   5.125  64.837  1.00  0.00    -0.140 C  
HETATM   22  C   UNL     1      -7.185   5.651  66.767  1.00  0.00    -0.074 C  
HETATM   23  C   UNL     1      -9.448   4.626  67.143  1.00  0.00    -0.171 C  
ENDBRANCH  17  20
ENDBRANCH  12  14
ENDBRANCH  11  12
ENDBRANCH   9  11
ENDBRANCH   6   9
ENDBRANCH   2   3
TORSDOF 6
ENDMDL
MODEL      141
REMARK 921   NORMALIZED FREE ENERGY PREDICTED BY IDOCK:   -4.27 KCAL/MOL
REMARK 922        TOTAL FREE ENERGY PREDICTED BY IDOCK:   -6.77 KCAL/MOL
REMARK 923 INTER-LIGAND FREE ENERGY PREDICTED BY IDOCK:   -5.97 KCAL/MOL
REMARK 924 INTRA-LIGAND FREE ENERGY PREDICTED BY IDOCK:   -0.80 KCAL/MOL
REMARK 927      BINDING AFFINITY PREDICTED BY RF-SCORE:    0.00 PKD
ROOT
HETATM    1  C   UNL     1      -8.687  17.721  67.307  1.00  0.00    -0.237 C  
HETATM    2  O   UNL     1      -9.992  17.274  66.948  1.00  0.00    -0.273 OA 
ENDROOT
BRANCH   2   3
HETATM    3  C   UNL     1     -10.060  15.985  66.496  1.00  0.00    -0.287 A  
HETATM    4  C   UNL     1     -10.465  15.830  65.172  1.00  0.00    -0.394 A  
HETATM    5  C   UNL     1     -10.584  14.553  64.612  1.00  0.00    -0.298 A  
HETATM    6  C   UNL     1     -10.283  13.417  65.375  1.00  0.00    -0.311 A  
HETATM    7  C   UNL     1      -9.850  13.583  66.695  1.00  0.00    -0.279 A  
HETATM    8  C   UNL     1      -9.728  14.861  67.249  1.00  0.00    -0.228 A  
BRANCH   6   9
HETATM    9  C   UNL     1     -10.446  12.070  64.747  1.00  0.00    -0.294 C  
HETATM   10  O   UNL     1     -10.334  11.953  63.524  1.00  0.00    -0.383 OA 
BRANCH   9  11
HETATM   11  C   UNL     1     -10.838  10.885  65.599  1.00  0.00    -0.112 C  
BRANCH  11  12
HETATM   12  C   UNL     1      -9.692   9.985  65.988  1.00  0.00    -0.240 C  
HETATM   13  O   UNL     1      -8.611   9.990  65.403  1.00  0.00    -0.138 OA 
BRANCH  12  14
HETATM   14  C   UNL     1      -9.889   9.037  67.117  1.00  0.00    -0.262 A  
HETATM   15  C   UNL     1      -9.407   9.418  68.370  1.00  0.00    -0.137 A  
HETATM   16  C   UNL     1      -9.495   8.548  69.456  1.00  0.00    -0.165 A  
HETATM   17  C   UNL     1     -10.072   7.274  69.330  1.00  0.00    -0.183 A  
HETATM   18  C   UNL     1     -10.514   7.797  66.974  1.00  0.00    -0.419 A  
HETATM   19  C   UNL     1     -10.607   6.930  68.073  1.00  0.00    -0.273 A  
BRANCH  17  20
HETATM   20  C   UNL     1     -10.095   6.271  70.498  1.00  0.00    -0.230 C  
HETATM   21  C   UNL     1      -9.998   4.799  70.036  1.00  0.00    -0.314 C  
HETATM   22  C   UNL     1      -8.916   6.535  71.455  1.00  0.00    -0.140 C  
HETATM   23  C   UNL     1     -11.419   6.411  71.281  1.00  0.00    -0.371 C  
ENDBRANCH  17  20
ENDBRANCH  12  14
ENDBRANCH  11  12
ENDBRANCH   9  11
ENDBRANCH   6   9
ENDBRANCH   2   3
TORSDOF 6
ENDMDL
MODEL      142
REMARK 921   NORMALIZED FREE ENERGY PREDICTED BY IDOCK:   -4.26 KCAL/MOL
REMARK 922        TOTAL FREE ENERGY PREDICTED BY IDOCK:   -6.76 KCAL/MOL
REMARK 923 INTER-LIGAND FREE ENERGY PREDICTED BY IDOCK:   -6.11 KCAL/MOL
REMARK 924 INTRA-LIGAND FREE ENERGY PREDICTED BY IDOCK:   -0.66 KCAL/MOL
REMARK 927      BINDING AFFINITY PREDICTED BY RF-SCORE:    0.00 PKD
ROOT
HETATM    1  C   UNL     1      -8.992  20.390  67.823  1.00  0.00    -0.179 C  
HETATM    2  O   UNL     1      -8.894  19.937  66.475  1.00  0.00    -0.343 OA 
ENDROOT
BRANCH   2   3
HETATM    3  C   UNL     1      -9.306  18.651  66.264  1.00  0.00    -0.243 A  
HETATM    4  C   UNL     1      -8.316  17.674  66.363  1.00  0.00    -0.288 A  
HETATM    5  C   UNL     1      -8.625  16.327  66.151  1.00  0.00    -0.342 A  
HETATM    6  C   UNL     1      -9.938  15.943  65.849  1.00  0.00    -0.377 A  
HETATM    7  C   UNL     1     -10.932  16.926  65.779  1.00  0.00     0.068 A  
HETATM    8  C   UNL     1     -10.619  18.271  65.997  1.00  0.00    -0.318 A  
BRANCH   6   9
HETATM    9  C   UNL     1     -10.222  14.495  65.604  1.00  0.00    -0.357 C  
HETATM   10  O   UNL     1     -10.481  14.112  64.461  1.00  0.00    -0.408 OA 
BRANCH   9  11
HETATM   11  C   UNL     1     -10.279  13.533  66.768  1.00  0.00    -0.264 C  
BRANCH  11  12
HETATM   12  C   UNL     1     -11.197  12.354  66.565  1.00  0.00    -0.319 C  
HETATM   13  O   UNL     1     -12.391  12.476  66.297  1.00  0.00    -0.570 OA 
BRANCH  12  14
HETATM   14  C   UNL     1     -10.636  10.985  66.715  1.00  0.00    -0.317 A  
HETATM   15  C   UNL     1     -11.074  10.224  67.798  1.00  0.00    -0.335 A  
HETATM   16  C   UNL     1     -10.537   8.960  68.038  1.00  0.00    -0.226 A  
HETATM   17  C   UNL     1      -9.551   8.411  67.203  1.00  0.00    -0.233 A  
HETATM   18  C   UNL     1      -9.694  10.444  65.837  1.00  0.00    -0.272 A  
HETATM   19  C   UNL     1      -9.163   9.169  66.080  1.00  0.00    -0.271 A  
BRANCH  17  20
HETATM   20  C   UNL     1      -8.887   7.056  67.507  1.00  0.00    -0.119 C  
HETATM   21  C   UNL     1      -9.107   6.586  68.964  1.00  0.00    -0.132 C  
HETATM   22  C   UNL     1      -9.451   5.962  66.578  1.00  0.00    -0.171 C  
HETATM   23  C   UNL     1      -7.361   7.160  67.293  1.00  0.00    -0.091 C  
ENDBRANCH  17  20
ENDBRANCH  12  14
ENDBRANCH  11  12
ENDBRANCH   9  11
ENDBRANCH   6   9
ENDBRANCH   2   3
TORSDOF 6
ENDMDL
MODEL      143
REMARK 921   NORMALIZED FREE ENERGY PREDICTED BY IDOCK:   -4.26 KCAL/MOL
REMARK 922        TOTAL FREE ENERGY PREDICTED BY IDOCK:   -6.76 KCAL/MOL
REMARK 923 INTER-LIGAND FREE ENERGY PREDICTED BY IDOCK:   -5.64 KCAL/MOL
REMARK 924 INTRA-LIGAND FREE ENERGY PREDICTED BY IDOCK:   -1.11 KCAL/MOL
REMARK 927      BINDING AFFINITY PREDICTED BY RF-SCORE:    0.00 PKD
ROOT
HETATM    1  C   UNL     1     -12.439   7.285  71.274  1.00  0.00    -0.366 C  
HETATM    2  O   UNL     1     -11.782   6.291  70.493  1.00  0.00    -0.354 OA 
ENDROOT
BRANCH   2   3
HETATM    3  C   UNL     1     -11.152   6.756  69.372  1.00  0.00    -0.261 A  
HETATM    4  C   UNL     1     -10.596   8.031  69.475  1.00  0.00    -0.216 A  
HETATM    5  C   UNL     1      -9.943   8.609  68.382  1.00  0.00    -0.204 A  
HETATM    6  C   UNL     1      -9.829   7.907  67.175  1.00  0.00    -0.273 A  
HETATM    7  C   UNL     1     -10.365   6.618  67.088  1.00  0.00    -0.319 A  
HETATM    8  C   UNL     1     -11.012   6.041  68.184  1.00  0.00    -0.340 A  
BRANCH   6   9
HETATM    9  C   UNL     1      -9.144   8.572  66.023  1.00  0.00    -0.194 C  
HETATM   10  O   UNL     1      -8.771   7.892  65.064  1.00  0.00    -0.051 OA 
BRANCH   9  11
HETATM   11  C   UNL     1      -8.834  10.050  66.083  1.00  0.00    -0.165 C  
BRANCH  11  12
HETATM   12  C   UNL     1     -10.010  10.950  65.800  1.00  0.00    -0.247 C  
HETATM   13  O   UNL     1     -10.696  10.854  64.785  1.00  0.00    -0.292 OA 
BRANCH  12  14
HETATM   14  C   UNL     1     -10.340  12.015  66.786  1.00  0.00    -0.233 A  
HETATM   15  C   UNL     1     -11.573  12.653  66.656  1.00  0.00    -0.443 A  
HETATM   16  C   UNL     1     -11.917  13.707  67.502  1.00  0.00    -0.393 A  
HETATM   17  C   UNL     1     -11.045  14.153  68.509  1.00  0.00    -0.276 A  
HETATM   18  C   UNL     1      -9.475  12.402  67.811  1.00  0.00    -0.199 A  
HETATM   19  C   UNL     1      -9.830  13.457  68.664  1.00  0.00    -0.116 A  
BRANCH  17  20
HETATM   20  C   UNL     1     -11.375  15.371  69.391  1.00  0.00    -0.315 C  
HETATM   21  C   UNL     1     -10.392  15.550  70.572  1.00  0.00    -0.036 C  
HETATM   22  C   UNL     1     -11.335  16.665  68.555  1.00  0.00    -0.152 C  
HETATM   23  C   UNL     1     -12.785  15.209  70.001  1.00  0.00    -0.200 C  
ENDBRANCH  17  20
ENDBRANCH  12  14
ENDBRANCH  11  12
ENDBRANCH   9  11
ENDBRANCH   6   9
ENDBRANCH   2   3
TORSDOF 6
ENDMDL
MODEL      144
REMARK 921   NORMALIZED FREE ENERGY PREDICTED BY IDOCK:   -4.24 KCAL/MOL
REMARK 922        TOTAL FREE ENERGY PREDICTED BY IDOCK:   -6.73 KCAL/MOL
REMARK 923 INTER-LIGAND FREE ENERGY PREDICTED BY IDOCK:   -5.18 KCAL/MOL
REMARK 924 INTRA-LIGAND FREE ENERGY PREDICTED BY IDOCK:   -1.54 KCAL/MOL
REMARK 927      BINDING AFFINITY PREDICTED BY RF-SCORE:    0.00 PKD
ROOT
HETATM    1  C   UNL     1      -8.774   3.667  68.033  1.00  0.00    -0.105 C  
HETATM    2  O   UNL     1      -9.423   4.304  66.936  1.00  0.00    -0.159 OA 
ENDROOT
BRANCH   2   3
HETATM    3  C   UNL     1      -9.155   5.638  66.798  1.00  0.00    -0.120 A  
HETATM    4  C   UNL     1      -7.828   5.963  66.523  1.00  0.00    -0.101 A  
HETATM    5  C   UNL     1      -7.441   7.300  66.378  1.00  0.00    -0.084 A  
HETATM    6  C   UNL     1      -8.388   8.325  66.495  1.00  0.00    -0.112 A  
HETATM    7  C   UNL     1      -9.724   7.989  66.744  1.00  0.00    -0.305 A  
HETATM    8  C   UNL     1     -10.107   6.652  66.882  1.00  0.00    -0.258 A  
BRANCH   6   9
HETATM    9  C   UNL     1      -7.929   9.742  66.358  1.00  0.00    -0.109 C  
HETATM   10  O   UNL     1      -6.737   9.975  66.142  1.00  0.00    -0.089 OA 
BRANCH   9  11
HETATM   11  C   UNL     1      -8.906  10.874  66.576  1.00  0.00    -0.169 C  
BRANCH  11  12
HETATM   12  C   UNL     1      -8.954  11.400  67.988  1.00  0.00    -0.163 C  
HETATM   13  O   UNL     1      -8.327  12.392  68.353  1.00  0.00    -0.167 OA 
BRANCH  12  14
HETATM   14  C   UNL     1      -9.781  10.671  68.987  1.00  0.00    -0.214 A  
HETATM   15  C   UNL     1      -9.128   9.780  69.838  1.00  0.00    -0.257 A  
HETATM   16  C   UNL     1      -9.852   9.013  70.750  1.00  0.00    -0.304 A  
HETATM   17  C   UNL     1     -11.249   9.114  70.847  1.00  0.00    -0.359 A  
HETATM   18  C   UNL     1     -11.164  10.831  69.097  1.00  0.00    -0.323 A  
HETATM   19  C   UNL     1     -11.886  10.062  70.022  1.00  0.00    -0.196 A  
BRANCH  17  20
HETATM   20  C   UNL     1     -12.068   8.210  71.787  1.00  0.00    -0.357 C  
HETATM   21  C   UNL     1     -11.241   7.659  72.972  1.00  0.00    -0.388 C  
HETATM   22  C   UNL     1     -13.260   8.989  72.376  1.00  0.00    -0.507 C  
HETATM   23  C   UNL     1     -12.602   6.990  71.005  1.00  0.00    -0.338 C  
ENDBRANCH  17  20
ENDBRANCH  12  14
ENDBRANCH  11  12
ENDBRANCH   9  11
ENDBRANCH   6   9
ENDBRANCH   2   3
TORSDOF 6
ENDMDL
MODEL      145
REMARK 921   NORMALIZED FREE ENERGY PREDICTED BY IDOCK:   -4.24 KCAL/MOL
REMARK 922        TOTAL FREE ENERGY PREDICTED BY IDOCK:   -6.73 KCAL/MOL
REMARK 923 INTER-LIGAND FREE ENERGY PREDICTED BY IDOCK:   -5.92 KCAL/MOL
REMARK 924 INTRA-LIGAND FREE ENERGY PREDICTED BY IDOCK:   -0.81 KCAL/MOL
REMARK 927      BINDING AFFINITY PREDICTED BY RF-SCORE:    0.00 PKD
ROOT
HETATM    1  C   UNL     1      -7.858   1.882  70.842  1.00  0.00    -0.038 C  
HETATM    2  O   UNL     1      -8.779   2.228  71.873  1.00  0.00    -0.066 OA 
ENDROOT
BRANCH   2   3
HETATM    3  C   UNL     1      -9.471   3.389  71.666  1.00  0.00    -0.149 A  
HETATM    4  C   UNL     1      -9.475   3.866  70.356  1.00  0.00    -0.252 A  
HETATM    5  C   UNL     1     -10.140   5.054  70.036  1.00  0.00    -0.342 A  
HETATM    6  C   UNL     1     -10.822   5.771  71.029  1.00  0.00    -0.316 A  
HETATM    7  C   UNL     1     -10.837   5.271  72.336  1.00  0.00    -0.283 A  
HETATM    8  C   UNL     1     -10.175   4.080  72.650  1.00  0.00    -0.232 A  
BRANCH   6   9
HETATM    9  C   UNL     1     -11.499   7.049  70.650  1.00  0.00    -0.324 C  
HETATM   10  O   UNL     1     -12.629   7.289  71.083  1.00  0.00    -0.351 OA 
BRANCH   9  11
HETATM   11  C   UNL     1     -10.836   7.991  69.671  1.00  0.00    -0.172 C  
BRANCH  11  12
HETATM   12  C   UNL     1     -10.097   9.140  70.308  1.00  0.00    -0.206 C  
HETATM   13  O   UNL     1      -9.385   9.008  71.301  1.00  0.00    -0.240 OA 
BRANCH  12  14
HETATM   14  C   UNL     1     -10.254  10.497  69.717  1.00  0.00    -0.168 A  
HETATM   15  C   UNL     1     -11.431  11.189  69.998  1.00  0.00    -0.376 A  
HETATM   16  C   UNL     1     -11.674  12.435  69.421  1.00  0.00    -0.384 A  
HETATM   17  C   UNL     1     -10.748  13.033  68.551  1.00  0.00    -0.275 A  
HETATM   18  C   UNL     1      -9.292  11.089  68.897  1.00  0.00    -0.155 A  
HETATM   19  C   UNL     1      -9.538  12.346  68.326  1.00  0.00    -0.211 A  
BRANCH  17  20
HETATM   20  C   UNL     1     -11.043  14.366  67.839  1.00  0.00    -0.288 C  
HETATM   21  C   UNL     1     -11.547  15.469  68.799  1.00  0.00    -0.390 C  
HETATM   22  C   UNL     1      -9.771  14.898  67.149  1.00  0.00    -0.229 C  
HETATM   23  C   UNL     1     -12.142  14.159  66.774  1.00  0.00    -0.474 C  
ENDBRANCH  17  20
ENDBRANCH  12  14
ENDBRANCH  11  12
ENDBRANCH   9  11
ENDBRANCH   6   9
ENDBRANCH   2   3
TORSDOF 6
ENDMDL
MODEL      146
REMARK 921   NORMALIZED FREE ENERGY PREDICTED BY IDOCK:   -4.23 KCAL/MOL
REMARK 922        TOTAL FREE ENERGY PREDICTED BY IDOCK:   -6.72 KCAL/MOL
REMARK 923 INTER-LIGAND FREE ENERGY PREDICTED BY IDOCK:   -5.56 KCAL/MOL
REMARK 924 INTRA-LIGAND FREE ENERGY PREDICTED BY IDOCK:   -1.15 KCAL/MOL
REMARK 927      BINDING AFFINITY PREDICTED BY RF-SCORE:    0.00 PKD
ROOT
HETATM    1  C   UNL     1     -12.039  13.865  65.607  1.00  0.00    -0.421 C  
HETATM    2  O   UNL     1     -12.541  12.545  65.799  1.00  0.00    -0.569 OA 
ENDROOT
BRANCH   2   3
HETATM    3  C   UNL     1     -11.619  11.631  66.228  1.00  0.00    -0.043 A  
HETATM    4  C   UNL     1     -10.964  10.916  65.226  1.00  0.00    -0.033 A  
HETATM    5  C   UNL     1     -10.012   9.945  65.555  1.00  0.00    -0.363 A  
HETATM    6  C   UNL     1      -9.698   9.690  66.896  1.00  0.00    -0.240 A  
HETATM    7  C   UNL     1     -10.340  10.431  67.895  1.00  0.00    -0.227 A  
HETATM    8  C   UNL     1     -11.286  11.404  67.561  1.00  0.00    -0.356 A  
BRANCH   6   9
HETATM    9  C   UNL     1      -8.694   8.625  67.205  1.00  0.00    -0.128 C  
HETATM   10  O   UNL     1      -7.641   8.931  67.771  1.00  0.00    -0.092 OA 
BRANCH   9  11
HETATM   11  C   UNL     1      -8.934   7.207  66.742  1.00  0.00    -0.151 C  
BRANCH  11  12
HETATM   12  C   UNL     1     -10.128   6.534  67.370  1.00  0.00    -0.162 C  
HETATM   13  O   UNL     1     -11.104   6.165  66.721  1.00  0.00    -0.322 OA 
BRANCH  12  14
HETATM   14  C   UNL     1     -10.130   6.328  68.843  1.00  0.00    -0.200 A  
HETATM   15  C   UNL     1      -8.972   5.812  69.423  1.00  0.00    -0.121 A  
HETATM   16  C   UNL     1      -8.930   5.528  70.788  1.00  0.00    -0.157 A  
HETATM   17  C   UNL     1     -10.039   5.756  71.619  1.00  0.00    -0.241 A  
HETATM   18  C   UNL     1     -11.231   6.614  69.653  1.00  0.00    -0.397 A  
HETATM   19  C   UNL     1     -11.180   6.334  71.027  1.00  0.00    -0.372 A  
BRANCH  17  20
HETATM   20  C   UNL     1     -10.036   5.366  73.108  1.00  0.00    -0.189 C  
HETATM   21  C   UNL     1      -8.660   4.856  73.598  1.00  0.00    -0.104 C  
HETATM   22  C   UNL     1     -10.419   6.577  73.981  1.00  0.00    -0.306 C  
HETATM   23  C   UNL     1     -11.051   4.228  73.353  1.00  0.00    -0.371 C  
ENDBRANCH  17  20
ENDBRANCH  12  14
ENDBRANCH  11  12
ENDBRANCH   9  11
ENDBRANCH   6   9
ENDBRANCH   2   3
TORSDOF 6
ENDMDL
MODEL      147
REMARK 921   NORMALIZED FREE ENERGY PREDICTED BY IDOCK:   -4.22 KCAL/MOL
REMARK 922        TOTAL FREE ENERGY PREDICTED BY IDOCK:   -6.70 KCAL/MOL
REMARK 923 INTER-LIGAND FREE ENERGY PREDICTED BY IDOCK:   -5.88 KCAL/MOL
REMARK 924 INTRA-LIGAND FREE ENERGY PREDICTED BY IDOCK:   -0.81 KCAL/MOL
REMARK 927      BINDING AFFINITY PREDICTED BY RF-SCORE:    0.00 PKD
ROOT
HETATM    1  C   UNL     1     -11.177  15.778  64.658  1.00  0.00    -0.363 C  
HETATM    2  O   UNL     1     -10.952  15.619  66.057  1.00  0.00    -0.299 OA 
ENDROOT
BRANCH   2   3
HETATM    3  C   UNL     1     -10.842  14.325  66.484  1.00  0.00    -0.304 A  
HETATM    4  C   UNL     1     -11.847  13.884  67.343  1.00  0.00    -0.437 A  
HETATM    5  C   UNL     1     -11.823  12.581  67.852  1.00  0.00    -0.383 A  
HETATM    6  C   UNL     1     -10.794  11.701  67.492  1.00  0.00    -0.287 A  
HETATM    7  C   UNL     1      -9.804  12.143  66.607  1.00  0.00    -0.224 A  
HETATM    8  C   UNL     1      -9.835  13.443  66.096  1.00  0.00    -0.289 A  
BRANCH   6   9
HETATM    9  C   UNL     1     -10.792  10.325  68.078  1.00  0.00    -0.275 C  
HETATM   10  O   UNL     1     -10.873   9.347  67.331  1.00  0.00    -0.263 OA 
BRANCH   9  11
HETATM   11  C   UNL     1     -10.784  10.147  69.579  1.00  0.00    -0.277 C  
BRANCH  11  12
HETATM   12  C   UNL     1      -9.504   9.579  70.137  1.00  0.00    -0.246 C  
HETATM   13  O   UNL     1      -8.418  10.146  70.027  1.00  0.00    -0.160 OA 
BRANCH  12  14
HETATM   14  C   UNL     1      -9.556   8.266  70.834  1.00  0.00    -0.196 A  
HETATM   15  C   UNL     1     -10.276   7.241  70.223  1.00  0.00    -0.205 A  
HETATM   16  C   UNL     1     -10.425   6.006  70.855  1.00  0.00    -0.293 A  
HETATM   17  C   UNL     1      -9.854   5.753  72.113  1.00  0.00    -0.181 A  
HETATM   18  C   UNL     1      -8.934   8.027  72.061  1.00  0.00    -0.212 A  
HETATM   19  C   UNL     1      -9.080   6.781  72.688  1.00  0.00    -0.143 A  
BRANCH  17  20
HETATM   20  C   UNL     1     -10.085   4.427  72.860  1.00  0.00    -0.214 C  
HETATM   21  C   UNL     1      -9.103   4.215  74.036  1.00  0.00    -0.099 C  
HETATM   22  C   UNL     1     -11.514   4.376  73.434  1.00  0.00    -0.297 C  
HETATM   23  C   UNL     1      -9.889   3.240  71.891  1.00  0.00    -0.238 C  
ENDBRANCH  17  20
ENDBRANCH  12  14
ENDBRANCH  11  12
ENDBRANCH   9  11
ENDBRANCH   6   9
ENDBRANCH   2   3
TORSDOF 6
ENDMDL
MODEL      148
REMARK 921   NORMALIZED FREE ENERGY PREDICTED BY IDOCK:   -4.21 KCAL/MOL
REMARK 922        TOTAL FREE ENERGY PREDICTED BY IDOCK:   -6.69 KCAL/MOL
REMARK 923 INTER-LIGAND FREE ENERGY PREDICTED BY IDOCK:   -5.95 KCAL/MOL
REMARK 924 INTRA-LIGAND FREE ENERGY PREDICTED BY IDOCK:   -0.74 KCAL/MOL
REMARK 927      BINDING AFFINITY PREDICTED BY RF-SCORE:    0.00 PKD
ROOT
HETATM    1  C   UNL     1     -11.134   6.234  69.728  1.00  0.00    -0.406 C  
HETATM    2  O   UNL     1     -10.914   7.410  70.503  1.00  0.00    -0.243 OA 
ENDROOT
BRANCH   2   3
HETATM    3  C   UNL     1     -10.256   8.418  69.853  1.00  0.00    -0.201 A  
HETATM    4  C   UNL     1     -10.889   9.660  69.867  1.00  0.00    -0.287 A  
HETATM    5  C   UNL     1     -10.311  10.757  69.220  1.00  0.00    -0.228 A  
HETATM    6  C   UNL     1      -9.082  10.621  68.561  1.00  0.00    -0.159 A  
HETATM    7  C   UNL     1      -8.440   9.377  68.575  1.00  0.00    -0.119 A  
HETATM    8  C   UNL     1      -9.019   8.285  69.228  1.00  0.00    -0.147 A  
BRANCH   6   9
HETATM    9  C   UNL     1      -8.511  11.812  67.860  1.00  0.00    -0.154 C  
HETATM   10  O   UNL     1      -8.515  11.851  66.628  1.00  0.00    -0.185 OA 
BRANCH   9  11
HETATM   11  C   UNL     1      -7.853  12.913  68.661  1.00  0.00    -0.044 C  
BRANCH  11  12
HETATM   12  C   UNL     1      -7.140  13.951  67.834  1.00  0.00    -0.163 C  
HETATM   13  O   UNL     1      -6.046  13.751  67.309  1.00  0.00    -0.321 OA 
BRANCH  12  14
HETATM   14  C   UNL     1      -7.780  15.283  67.664  1.00  0.00    -0.185 A  
HETATM   15  C   UNL     1      -7.080  16.247  66.938  1.00  0.00    -0.246 A  
HETATM   16  C   UNL     1      -7.590  17.537  66.800  1.00  0.00    -0.261 A  
HETATM   17  C   UNL     1      -8.818  17.906  67.374  1.00  0.00    -0.245 A  
HETATM   18  C   UNL     1      -9.028  15.606  68.202  1.00  0.00    -0.179 A  
HETATM   19  C   UNL     1      -9.539  16.903  68.052  1.00  0.00    -0.247 A  
BRANCH  17  20
HETATM   20  C   UNL     1      -9.349  19.349  67.303  1.00  0.00    -0.386 C  
HETATM   21  C   UNL     1     -10.337  19.576  66.135  1.00  0.00    -0.614 C  
HETATM   22  C   UNL     1     -10.084  19.714  68.608  1.00  0.00    -0.547 C  
HETATM   23  C   UNL     1      -8.174  20.330  67.097  1.00  0.00    -0.385 C  
ENDBRANCH  17  20
ENDBRANCH  12  14
ENDBRANCH  11  12
ENDBRANCH   9  11
ENDBRANCH   6   9
ENDBRANCH   2   3
TORSDOF 6
ENDMDL
MODEL      149
REMARK 921   NORMALIZED FREE ENERGY PREDICTED BY IDOCK:   -4.21 KCAL/MOL
REMARK 922        TOTAL FREE ENERGY PREDICTED BY IDOCK:   -6.69 KCAL/MOL
REMARK 923 INTER-LIGAND FREE ENERGY PREDICTED BY IDOCK:   -5.83 KCAL/MOL
REMARK 924 INTRA-LIGAND FREE ENERGY PREDICTED BY IDOCK:   -0.86 KCAL/MOL
REMARK 927      BINDING AFFINITY PREDICTED BY RF-SCORE:    0.00 PKD
ROOT
HETATM    1  C   UNL     1      -8.912  19.177  68.522  1.00  0.00    -0.363 C  
HETATM    2  O   UNL     1     -10.256  18.728  68.380  1.00  0.00    -0.368 OA 
ENDROOT
BRANCH   2   3
HETATM    3  C   UNL     1     -10.411  17.578  67.656  1.00  0.00    -0.360 A  
HETATM    4  C   UNL     1     -11.076  16.539  68.305  1.00  0.00    -0.321 A  
HETATM    5  C   UNL     1     -11.274  15.313  67.661  1.00  0.00    -0.320 A  
HETATM    6  C   UNL     1     -10.818  15.122  66.350  1.00  0.00    -0.326 A  
HETATM    7  C   UNL     1     -10.176  16.179  65.695  1.00  0.00    -0.390 A  
HETATM    8  C   UNL     1      -9.985  17.404  66.341  1.00  0.00    -0.322 A  
BRANCH   6   9
HETATM    9  C   UNL     1     -11.029  13.788  65.707  1.00  0.00    -0.280 C  
HETATM   10  O   UNL     1     -10.668  13.613  64.541  1.00  0.00    -0.399 OA 
BRANCH   9  11
HETATM   11  C   UNL     1     -11.760  12.699  66.457  1.00  0.00    -0.463 C  
BRANCH  11  12
HETATM   12  C   UNL     1     -10.890  11.866  67.363  1.00  0.00    -0.243 C  
HETATM   13  O   UNL     1     -10.891  11.988  68.587  1.00  0.00    -0.219 OA 
BRANCH  12  14
HETATM   14  C   UNL     1      -9.975  10.868  66.746  1.00  0.00    -0.245 A  
HETATM   15  C   UNL     1     -10.489   9.599  66.483  1.00  0.00    -0.213 A  
HETATM   16  C   UNL     1      -9.668   8.596  65.971  1.00  0.00    -0.238 A  
HETATM   17  C   UNL     1      -8.310   8.827  65.698  1.00  0.00    -0.144 A  
HETATM   18  C   UNL     1      -8.641  11.143  66.437  1.00  0.00    -0.172 A  
HETATM   19  C   UNL     1      -7.822  10.132  65.914  1.00  0.00    -0.132 A  
BRANCH  17  20
HETATM   20  C   UNL     1      -7.372   7.705  65.216  1.00  0.00    -0.071 C  
HETATM   21  C   UNL     1      -7.604   7.314  63.738  1.00  0.00    -0.110 C  
HETATM   22  C   UNL     1      -5.900   8.139  65.355  1.00  0.00    -0.044 C  
HETATM   23  C   UNL     1      -7.603   6.432  66.060  1.00  0.00    -0.087 C  
ENDBRANCH  17  20
ENDBRANCH  12  14
ENDBRANCH  11  12
ENDBRANCH   9  11
ENDBRANCH   6   9
ENDBRANCH   2   3
TORSDOF 6
ENDMDL
MODEL      150
REMARK 921   NORMALIZED FREE ENERGY PREDICTED BY IDOCK:   -4.20 KCAL/MOL
REMARK 922        TOTAL FREE ENERGY PREDICTED BY IDOCK:   -6.68 KCAL/MOL
REMARK 923 INTER-LIGAND FREE ENERGY PREDICTED BY IDOCK:   -5.43 KCAL/MOL
REMARK 924 INTRA-LIGAND FREE ENERGY PREDICTED BY IDOCK:   -1.26 KCAL/MOL
REMARK 927      BINDING AFFINITY PREDICTED BY RF-SCORE:    0.00 PKD
ROOT
HETATM    1  C   UNL     1      -8.945   3.396  65.097  1.00  0.00    -0.138 C  
HETATM    2  O   UNL     1      -8.227   4.231  66.002  1.00  0.00    -0.104 OA 
ENDROOT
BRANCH   2   3
HETATM    3  C   UNL     1      -8.959   4.711  67.053  1.00  0.00    -0.113 A  
HETATM    4  C   UNL     1      -9.600   5.930  66.836  1.00  0.00    -0.156 A  
HETATM    5  C   UNL     1     -10.363   6.519  67.850  1.00  0.00    -0.229 A  
HETATM    6  C   UNL     1     -10.500   5.883  69.091  1.00  0.00    -0.338 A  
HETATM    7  C   UNL     1      -9.876   4.647  69.291  1.00  0.00    -0.260 A  
HETATM    8  C   UNL     1      -9.120   4.059  68.273  1.00  0.00    -0.183 A  
BRANCH   6   9
HETATM    9  C   UNL     1     -11.303   6.559  70.156  1.00  0.00    -0.402 C  
HETATM   10  O   UNL     1     -12.496   6.800  69.956  1.00  0.00     0.034 OA 
BRANCH   9  11
HETATM   11  C   UNL     1     -10.629   7.022  71.427  1.00  0.00    -0.236 C  
BRANCH  11  12
HETATM   12  C   UNL     1      -9.731   8.222  71.261  1.00  0.00    -0.176 C  
HETATM   13  O   UNL     1      -8.655   8.336  71.844  1.00  0.00    -0.136 OA 
BRANCH  12  14
HETATM   14  C   UNL     1     -10.179   9.323  70.367  1.00  0.00    -0.284 A  
HETATM   15  C   UNL     1      -9.334   9.685  69.318  1.00  0.00    -0.184 A  
HETATM   16  C   UNL     1      -9.660  10.756  68.486  1.00  0.00    -0.183 A  
HETATM   17  C   UNL     1     -10.841  11.493  68.667  1.00  0.00    -0.253 A  
HETATM   18  C   UNL     1     -11.385  10.005  70.540  1.00  0.00    -0.409 A  
HETATM   19  C   UNL     1     -11.711  11.075  69.694  1.00  0.00    -0.401 A  
BRANCH  17  20
HETATM   20  C   UNL     1     -11.168  12.730  67.811  1.00  0.00    -0.317 C  
HETATM   21  C   UNL     1     -12.028  12.398  66.569  1.00  0.00    -0.325 C  
HETATM   22  C   UNL     1     -11.942  13.770  68.645  1.00  0.00    -0.401 C  
HETATM   23  C   UNL     1      -9.861  13.371  67.295  1.00  0.00    -0.233 C  
ENDBRANCH  17  20
ENDBRANCH  12  14
ENDBRANCH  11  12
ENDBRANCH   9  11
ENDBRANCH   6   9
ENDBRANCH   2   3
TORSDOF 6
ENDMDL
MODEL      151
REMARK 921   NORMALIZED FREE ENERGY PREDICTED BY IDOCK:   -4.20 KCAL/MOL
REMARK 922        TOTAL FREE ENERGY PREDICTED BY IDOCK:   -6.68 KCAL/MOL
REMARK 923 INTER-LIGAND FREE ENERGY PREDICTED BY IDOCK:   -6.13 KCAL/MOL
REMARK 924 INTRA-LIGAND FREE ENERGY PREDICTED BY IDOCK:   -0.56 KCAL/MOL
REMARK 927      BINDING AFFINITY PREDICTED BY RF-SCORE:    0.00 PKD
ROOT
HETATM    1  C   UNL     1      -7.470  19.657  67.436  1.00  0.00    -0.253 C  
HETATM    2  O   UNL     1      -8.790  19.391  67.902  1.00  0.00    -0.301 OA 
ENDROOT
BRANCH   2   3
HETATM    3  C   UNL     1      -9.209  18.098  67.748  1.00  0.00    -0.263 A  
HETATM    4  C   UNL     1      -8.268  17.215  67.220  1.00  0.00    -0.206 A  
HETATM    5  C   UNL     1      -8.597  15.873  67.007  1.00  0.00    -0.245 A  
HETATM    6  C   UNL     1      -9.873  15.398  67.334  1.00  0.00    -0.216 A  
HETATM    7  C   UNL     1     -10.804  16.284  67.889  1.00  0.00    -0.330 A  
HETATM    8  C   UNL     1     -10.469  17.624  68.106  1.00  0.00    -0.386 A  
BRANCH   6   9
HETATM    9  C   UNL     1     -10.192  13.961  67.067  1.00  0.00    -0.254 C  
HETATM   10  O   UNL     1      -9.831  13.447  66.006  1.00  0.00    -0.286 OA 
BRANCH   9  11
HETATM   11  C   UNL     1     -11.030  13.181  68.053  1.00  0.00    -0.270 C  
BRANCH  11  12
HETATM   12  C   UNL     1     -11.435  11.806  67.585  1.00  0.00    -0.300 C  
HETATM   13  O   UNL     1     -12.072  11.614  66.551  1.00  0.00    -0.405 OA 
BRANCH  12  14
HETATM   14  C   UNL     1     -11.062  10.634  68.422  1.00  0.00    -0.328 A  
HETATM   15  C   UNL     1     -10.892  10.848  69.789  1.00  0.00    -0.247 A  
HETATM   16  C   UNL     1     -10.475   9.809  70.621  1.00  0.00    -0.358 A  
HETATM   17  C   UNL     1     -10.221   8.523  70.117  1.00  0.00    -0.202 A  
HETATM   18  C   UNL     1     -10.868   9.353  67.901  1.00  0.00    -0.215 A  
HETATM   19  C   UNL     1     -10.457   8.311  68.744  1.00  0.00    -0.200 A  
BRANCH  17  20
HETATM   20  C   UNL     1      -9.677   7.392  71.008  1.00  0.00    -0.164 C  
HETATM   21  C   UNL     1      -8.167   7.127  70.797  1.00  0.00    -0.120 C  
HETATM   22  C   UNL     1      -9.883   7.735  72.497  1.00  0.00    -0.271 C  
HETATM   23  C   UNL     1     -10.414   6.073  70.689  1.00  0.00    -0.305 C  
ENDBRANCH  17  20
ENDBRANCH  12  14
ENDBRANCH  11  12
ENDBRANCH   9  11
ENDBRANCH   6   9
ENDBRANCH   2   3
TORSDOF 6
ENDMDL
MODEL      152
REMARK 921   NORMALIZED FREE ENERGY PREDICTED BY IDOCK:   -4.19 KCAL/MOL
REMARK 922        TOTAL FREE ENERGY PREDICTED BY IDOCK:   -6.67 KCAL/MOL
REMARK 923 INTER-LIGAND FREE ENERGY PREDICTED BY IDOCK:   -6.27 KCAL/MOL
REMARK 924 INTRA-LIGAND FREE ENERGY PREDICTED BY IDOCK:   -0.40 KCAL/MOL
REMARK 927      BINDING AFFINITY PREDICTED BY RF-SCORE:    0.00 PKD
ROOT
HETATM    1  C   UNL     1     -14.348   8.531  72.135  1.00  0.00    -0.436 C  
HETATM    2  O   UNL     1     -13.012   8.921  72.439  1.00  0.00    -0.405 OA 
ENDROOT
BRANCH   2   3
HETATM    3  C   UNL     1     -12.239   9.235  71.356  1.00  0.00    -0.349 A  
HETATM    4  C   UNL     1     -11.352   8.243  70.938  1.00  0.00    -0.292 A  
HETATM    5  C   UNL     1     -10.503   8.465  69.849  1.00  0.00    -0.222 A  
HETATM    6  C   UNL     1     -10.545   9.682  69.157  1.00  0.00    -0.237 A  
HETATM    7  C   UNL     1     -11.458  10.662  69.565  1.00  0.00    -0.360 A  
HETATM    8  C   UNL     1     -12.308  10.434  70.651  1.00  0.00    -0.438 A  
BRANCH   6   9
HETATM    9  C   UNL     1      -9.603   9.888  68.014  1.00  0.00    -0.138 C  
HETATM   10  O   UNL     1      -8.510  10.422  68.217  1.00  0.00    -0.117 OA 
BRANCH   9  11
HETATM   11  C   UNL     1     -10.032   9.526  66.611  1.00  0.00    -0.314 C  
BRANCH  11  12
HETATM   12  C   UNL     1     -10.324  10.706  65.719  1.00  0.00    -0.219 C  
HETATM   13  O   UNL     1     -10.424  10.610  64.497  1.00  0.00    -0.345 OA 
BRANCH  12  14
HETATM   14  C   UNL     1     -10.476  12.047  66.345  1.00  0.00    -0.267 A  
HETATM   15  C   UNL     1      -9.459  12.977  66.129  1.00  0.00    -0.159 A  
HETATM   16  C   UNL     1      -9.504  14.228  66.743  1.00  0.00    -0.287 A  
HETATM   17  C   UNL     1     -10.566  14.594  67.586  1.00  0.00    -0.256 A  
HETATM   18  C   UNL     1     -11.570  12.401  67.136  1.00  0.00    -0.435 A  
HETATM   19  C   UNL     1     -11.613  13.664  67.744  1.00  0.00    -0.373 A  
BRANCH  17  20
HETATM   20  C   UNL     1     -10.583  15.937  68.339  1.00  0.00    -0.266 C  
HETATM   21  C   UNL     1      -9.741  15.916  69.636  1.00  0.00    -0.210 C  
HETATM   22  C   UNL     1     -10.027  17.061  67.443  1.00  0.00    -0.278 C  
HETATM   23  C   UNL     1     -12.030  16.289  68.748  1.00  0.00     0.136 C  
ENDBRANCH  17  20
ENDBRANCH  12  14
ENDBRANCH  11  12
ENDBRANCH   9  11
ENDBRANCH   6   9
ENDBRANCH   2   3
TORSDOF 6
ENDMDL
MODEL      153
REMARK 921   NORMALIZED FREE ENERGY PREDICTED BY IDOCK:   -4.19 KCAL/MOL
REMARK 922        TOTAL FREE ENERGY PREDICTED BY IDOCK:   -6.66 KCAL/MOL
REMARK 923 INTER-LIGAND FREE ENERGY PREDICTED BY IDOCK:   -5.40 KCAL/MOL
REMARK 924 INTRA-LIGAND FREE ENERGY PREDICTED BY IDOCK:   -1.26 KCAL/MOL
REMARK 927      BINDING AFFINITY PREDICTED BY RF-SCORE:    0.00 PKD
ROOT
HETATM    1  C   UNL     1     -14.409   8.544  72.111  1.00  0.00    -0.436 C  
HETATM    2  O   UNL     1     -13.245   9.103  72.713  1.00  0.00    -0.394 OA 
ENDROOT
BRANCH   2   3
HETATM    3  C   UNL     1     -12.217   9.369  71.851  1.00  0.00    -0.368 A  
HETATM    4  C   UNL     1     -11.110   8.528  71.952  1.00  0.00    -0.395 A  
HETATM    5  C   UNL     1      -9.996   8.720  71.128  1.00  0.00    -0.317 A  
HETATM    6  C   UNL     1      -9.988   9.753  70.182  1.00  0.00    -0.315 A  
HETATM    7  C   UNL     1     -11.114  10.576  70.067  1.00  0.00    -0.376 A  
HETATM    8  C   UNL     1     -12.227  10.376  70.889  1.00  0.00    -0.484 A  
BRANCH   6   9
HETATM    9  C   UNL     1      -8.767   9.940  69.337  1.00  0.00    -0.179 C  
HETATM   10  O   UNL     1      -7.709  10.284  69.869  1.00  0.00    -0.165 OA 
BRANCH   9  11
HETATM   11  C   UNL     1      -8.862   9.798  67.836  1.00  0.00    -0.122 C  
BRANCH  11  12
HETATM   12  C   UNL     1      -9.463   8.498  67.365  1.00  0.00    -0.150 C  
HETATM   13  O   UNL     1     -10.193   8.418  66.380  1.00  0.00    -0.265 OA 
BRANCH  12  14
HETATM   14  C   UNL     1      -9.173   7.262  68.141  1.00  0.00    -0.132 A  
HETATM   15  C   UNL     1     -10.260   6.528  68.613  1.00  0.00    -0.192 A  
HETATM   16  C   UNL     1     -10.060   5.398  69.406  1.00  0.00    -0.304 A  
HETATM   17  C   UNL     1      -8.770   4.960  69.747  1.00  0.00    -0.110 A  
HETATM   18  C   UNL     1      -7.877   6.821  68.420  1.00  0.00    -0.114 A  
HETATM   19  C   UNL     1      -7.683   5.679  69.212  1.00  0.00    -0.088 A  
BRANCH  17  20
HETATM   20  C   UNL     1      -8.538   3.768  70.693  1.00  0.00    -0.110 C  
HETATM   21  C   UNL     1      -9.118   2.441  70.150  1.00  0.00    -0.178 C  
HETATM   22  C   UNL     1      -7.029   3.553  70.925  1.00  0.00    -0.033 C  
HETATM   23  C   UNL     1      -9.223   4.037  72.051  1.00  0.00    -0.174 C  
ENDBRANCH  17  20
ENDBRANCH  12  14
ENDBRANCH  11  12
ENDBRANCH   9  11
ENDBRANCH   6   9
ENDBRANCH   2   3
TORSDOF 6
ENDMDL
MODEL      154
REMARK 921   NORMALIZED FREE ENERGY PREDICTED BY IDOCK:   -4.15 KCAL/MOL
REMARK 922        TOTAL FREE ENERGY PREDICTED BY IDOCK:   -6.61 KCAL/MOL
REMARK 923 INTER-LIGAND FREE ENERGY PREDICTED BY IDOCK:   -4.92 KCAL/MOL
REMARK 924 INTRA-LIGAND FREE ENERGY PREDICTED BY IDOCK:   -1.69 KCAL/MOL
REMARK 927      BINDING AFFINITY PREDICTED BY RF-SCORE:    0.00 PKD
ROOT
HETATM    1  C   UNL     1      -8.366   3.945  68.657  1.00  0.00    -0.078 C  
HETATM    2  O   UNL     1      -9.545   4.255  67.921  1.00  0.00    -0.162 OA 
ENDROOT
BRANCH   2   3
HETATM    3  C   UNL     1      -9.658   5.560  67.528  1.00  0.00    -0.122 A  
HETATM    4  C   UNL     1      -8.460   6.205  67.222  1.00  0.00    -0.104 A  
HETATM    5  C   UNL     1      -8.459   7.546  66.825  1.00  0.00    -0.124 A  
HETATM    6  C   UNL     1      -9.664   8.251  66.716  1.00  0.00    -0.307 A  
HETATM    7  C   UNL     1     -10.865   7.589  66.998  1.00  0.00    -0.264 A  
HETATM    8  C   UNL     1     -10.862   6.247  67.389  1.00  0.00    -0.448 A  
BRANCH   6   9
HETATM    9  C   UNL     1      -9.617   9.691  66.312  1.00  0.00    -0.221 C  
HETATM   10  O   UNL     1      -8.649  10.109  65.672  1.00  0.00    -0.144 OA 
BRANCH   9  11
HETATM   11  C   UNL     1     -10.704  10.636  66.768  1.00  0.00    -0.272 C  
BRANCH  11  12
HETATM   12  C   UNL     1     -10.450  11.290  68.102  1.00  0.00    -0.189 C  
HETATM   13  O   UNL     1     -10.551  12.502  68.281  1.00  0.00    -0.217 OA 
BRANCH  12  14
HETATM   14  C   UNL     1     -10.038  10.431  69.244  1.00  0.00    -0.248 A  
HETATM   15  C   UNL     1      -8.672  10.292  69.487  1.00  0.00    -0.155 A  
HETATM   16  C   UNL     1      -8.215   9.447  70.497  1.00  0.00    -0.221 A  
HETATM   17  C   UNL     1      -9.106   8.719  71.303  1.00  0.00    -0.300 A  
HETATM   18  C   UNL     1     -10.949   9.760  70.063  1.00  0.00    -0.319 A  
HETATM   19  C   UNL     1     -10.484   8.918  71.083  1.00  0.00    -0.336 A  
BRANCH  17  20
HETATM   20  C   UNL     1      -8.613   7.716  72.362  1.00  0.00    -0.162 C  
HETATM   21  C   UNL     1      -8.834   6.241  71.951  1.00  0.00    -0.139 C  
HETATM   22  C   UNL     1      -7.104   7.905  72.618  1.00  0.00    -0.095 C  
HETATM   23  C   UNL     1      -9.379   7.934  73.685  1.00  0.00    -0.288 C  
ENDBRANCH  17  20
ENDBRANCH  12  14
ENDBRANCH  11  12
ENDBRANCH   9  11
ENDBRANCH   6   9
ENDBRANCH   2   3
TORSDOF 6
ENDMDL
MODEL      155
REMARK 921   NORMALIZED FREE ENERGY PREDICTED BY IDOCK:   -4.11 KCAL/MOL
REMARK 922        TOTAL FREE ENERGY PREDICTED BY IDOCK:   -6.56 KCAL/MOL
REMARK 923 INTER-LIGAND FREE ENERGY PREDICTED BY IDOCK:   -5.80 KCAL/MOL
REMARK 924 INTRA-LIGAND FREE ENERGY PREDICTED BY IDOCK:   -0.76 KCAL/MOL
REMARK 927      BINDING AFFINITY PREDICTED BY RF-SCORE:    0.00 PKD
ROOT
HETATM    1  C   UNL     1     -10.138  17.766  68.722  1.00  0.00    -0.381 C  
HETATM    2  O   UNL     1     -11.056  17.058  67.893  1.00  0.00    -0.300 OA 
ENDROOT
BRANCH   2   3
HETATM    3  C   UNL     1     -11.315  15.773  68.281  1.00  0.00    -0.354 A  
HETATM    4  C   UNL     1     -11.503  15.579  69.649  1.00  0.00    -0.337 A  
HETATM    5  C   UNL     1     -11.759  14.301  70.155  1.00  0.00    -0.357 A  
HETATM    6  C   UNL     1     -11.842  13.202  69.290  1.00  0.00    -0.377 A  
HETATM    7  C   UNL     1     -11.680  13.409  67.915  1.00  0.00    -0.396 A  
HETATM    8  C   UNL     1     -11.430  14.689  67.413  1.00  0.00    -0.384 A  
BRANCH   6   9
HETATM    9  C   UNL     1     -12.093  11.849  69.875  1.00  0.00    -0.272 C  
HETATM   10  O   UNL     1     -12.413  11.751  71.062  1.00  0.00    -0.372 OA 
BRANCH   9  11
HETATM   11  C   UNL     1     -11.863  10.613  69.036  1.00  0.00    -0.256 C  
BRANCH  11  12
HETATM   12  C   UNL     1     -10.436  10.128  69.009  1.00  0.00    -0.219 C  
HETATM   13  O   UNL     1      -9.484  10.835  69.335  1.00  0.00    -0.140 OA 
BRANCH  12  14
HETATM   14  C   UNL     1     -10.169   8.739  68.548  1.00  0.00    -0.220 A  
HETATM   15  C   UNL     1      -9.063   8.536  67.723  1.00  0.00    -0.143 A  
HETATM   16  C   UNL     1      -8.795   7.272  67.198  1.00  0.00    -0.125 A  
HETATM   17  C   UNL     1      -9.616   6.170  67.485  1.00  0.00    -0.117 A  
HETATM   18  C   UNL     1     -10.974   7.651  68.892  1.00  0.00     0.058 A  
HETATM   19  C   UNL     1     -10.694   6.381  68.367  1.00  0.00    -0.349 A  
BRANCH  17  20
HETATM   20  C   UNL     1      -9.382   4.790  66.842  1.00  0.00    -0.141 C  
HETATM   21  C   UNL     1      -9.521   3.621  67.845  1.00  0.00    -0.224 C  
HETATM   22  C   UNL     1     -10.396   4.549  65.706  1.00  0.00    -0.287 C  
HETATM   23  C   UNL     1      -7.952   4.719  66.263  1.00  0.00    -0.103 C  
ENDBRANCH  17  20
ENDBRANCH  12  14
ENDBRANCH  11  12
ENDBRANCH   9  11
ENDBRANCH   6   9
ENDBRANCH   2   3
TORSDOF 6
ENDMDL
MODEL      156
REMARK 921   NORMALIZED FREE ENERGY PREDICTED BY IDOCK:   -4.10 KCAL/MOL
REMARK 922        TOTAL FREE ENERGY PREDICTED BY IDOCK:   -6.54 KCAL/MOL
REMARK 923 INTER-LIGAND FREE ENERGY PREDICTED BY IDOCK:   -5.75 KCAL/MOL
REMARK 924 INTRA-LIGAND FREE ENERGY PREDICTED BY IDOCK:   -0.79 KCAL/MOL
REMARK 927      BINDING AFFINITY PREDICTED BY RF-SCORE:    0.00 PKD
ROOT
HETATM    1  C   UNL     1     -12.236  15.138  64.313  1.00  0.00    -0.240 C  
HETATM    2  O   UNL     1     -12.467  13.916  63.618  1.00  0.00    -0.768 OA 
ENDROOT
BRANCH   2   3
HETATM    3  C   UNL     1     -11.798  12.831  64.113  1.00  0.00    -0.413 A  
HETATM    4  C   UNL     1     -11.887  12.643  65.492  1.00  0.00    -0.479 A  
HETATM    5  C   UNL     1     -11.227  11.573  66.106  1.00  0.00    -0.265 A  
HETATM    6  C   UNL     1     -10.480  10.670  65.338  1.00  0.00    -0.254 A  
HETATM    7  C   UNL     1     -10.418  10.850  63.951  1.00  0.00    -0.359 A  
HETATM    8  C   UNL     1     -11.084  11.917  63.342  1.00  0.00    -0.463 A  
BRANCH   6   9
HETATM    9  C   UNL     1      -9.770   9.554  66.036  1.00  0.00    -0.272 C  
HETATM   10  O   UNL     1      -8.827   8.990  65.475  1.00  0.00    -0.172 OA 
BRANCH   9  11
HETATM   11  C   UNL     1     -10.268   9.068  67.377  1.00  0.00    -0.308 C  
BRANCH  11  12
HETATM   12  C   UNL     1      -9.190   8.571  68.306  1.00  0.00    -0.138 C  
HETATM   13  O   UNL     1      -8.278   9.287  68.715  1.00  0.00    -0.109 OA 
BRANCH  12  14
HETATM   14  C   UNL     1      -9.221   7.145  68.728  1.00  0.00    -0.136 A  
HETATM   15  C   UNL     1      -8.798   6.847  70.023  1.00  0.00    -0.142 A  
HETATM   16  C   UNL     1      -8.735   5.524  70.460  1.00  0.00    -0.140 A  
HETATM   17  C   UNL     1      -9.099   4.457  69.622  1.00  0.00    -0.174 A  
HETATM   18  C   UNL     1      -9.638   6.108  67.890  1.00  0.00    -0.118 A  
HETATM   19  C   UNL     1      -9.580   4.781  68.338  1.00  0.00    -0.210 A  
BRANCH  17  20
HETATM   20  C   UNL     1      -8.950   2.989  70.062  1.00  0.00    -0.170 C  
HETATM   21  C   UNL     1      -7.488   2.594  70.376  1.00  0.00    -0.039 C  
HETATM   22  C   UNL     1      -9.785   2.722  71.330  1.00  0.00    -0.203 C  
HETATM   23  C   UNL     1      -9.437   2.053  68.933  1.00  0.00    -0.174 C  
ENDBRANCH  17  20
ENDBRANCH  12  14
ENDBRANCH  11  12
ENDBRANCH   9  11
ENDBRANCH   6   9
ENDBRANCH   2   3
TORSDOF 6
ENDMDL
MODEL      157
REMARK 921   NORMALIZED FREE ENERGY PREDICTED BY IDOCK:   -4.10 KCAL/MOL
REMARK 922        TOTAL FREE ENERGY PREDICTED BY IDOCK:   -6.54 KCAL/MOL
REMARK 923 INTER-LIGAND FREE ENERGY PREDICTED BY IDOCK:   -5.76 KCAL/MOL
REMARK 924 INTRA-LIGAND FREE ENERGY PREDICTED BY IDOCK:   -0.78 KCAL/MOL
REMARK 927      BINDING AFFINITY PREDICTED BY RF-SCORE:    0.00 PKD
ROOT
HETATM    1  C   UNL     1      -5.419  18.301  68.013  1.00  0.00    -0.158 C  
HETATM    2  O   UNL     1      -6.563  19.046  67.603  1.00  0.00    -0.202 OA 
ENDROOT
BRANCH   2   3
HETATM    3  C   UNL     1      -7.563  18.308  67.033  1.00  0.00    -0.219 A  
HETATM    4  C   UNL     1      -8.802  18.940  66.938  1.00  0.00    -0.306 A  
HETATM    5  C   UNL     1      -9.898  18.270  66.385  1.00  0.00    -0.358 A  
HETATM    6  C   UNL     1      -9.758  16.960  65.908  1.00  0.00    -0.205 A  
HETATM    7  C   UNL     1      -8.504  16.343  65.981  1.00  0.00    -0.205 A  
HETATM    8  C   UNL     1      -7.410  17.018  66.530  1.00  0.00    -0.320 A  
BRANCH   6   9
HETATM    9  C   UNL     1     -10.962  16.271  65.348  1.00  0.00    -0.197 C  
HETATM   10  O   UNL     1     -11.289  16.478  64.177  1.00  0.00    -1.060 OA 
BRANCH   9  11
HETATM   11  C   UNL     1     -11.815  15.402  66.242  1.00  0.00     0.336 C  
BRANCH  11  12
HETATM   12  C   UNL     1     -11.076  14.765  67.391  1.00  0.00    -0.324 C  
HETATM   13  O   UNL     1     -10.764  15.382  68.407  1.00  0.00    -0.242 OA 
BRANCH  12  14
HETATM   14  C   UNL     1     -10.692  13.333  67.278  1.00  0.00    -0.262 A  
HETATM   15  C   UNL     1     -10.938  12.511  68.378  1.00  0.00    -0.277 A  
HETATM   16  C   UNL     1     -10.539  11.175  68.366  1.00  0.00    -0.223 A  
HETATM   17  C   UNL     1      -9.888  10.614  67.256  1.00  0.00    -0.206 A  
HETATM   18  C   UNL     1     -10.093  12.789  66.140  1.00  0.00    -0.274 A  
HETATM   19  C   UNL     1      -9.701  11.442  66.131  1.00  0.00    -0.248 A  
BRANCH  17  20
HETATM   20  C   UNL     1      -9.364   9.166  67.265  1.00  0.00    -0.166 C  
HETATM   21  C   UNL     1      -8.734   8.741  65.918  1.00  0.00    -0.198 C  
HETATM   22  C   UNL     1      -8.288   8.991  68.355  1.00  0.00    -0.124 C  
HETATM   23  C   UNL     1     -10.528   8.190  67.545  1.00  0.00    -0.326 C  
ENDBRANCH  17  20
ENDBRANCH  12  14
ENDBRANCH  11  12
ENDBRANCH   9  11
ENDBRANCH   6   9
ENDBRANCH   2   3
TORSDOF 6
ENDMDL
MODEL      158
REMARK 921   NORMALIZED FREE ENERGY PREDICTED BY IDOCK:   -4.09 KCAL/MOL
REMARK 922        TOTAL FREE ENERGY PREDICTED BY IDOCK:   -6.53 KCAL/MOL
REMARK 923 INTER-LIGAND FREE ENERGY PREDICTED BY IDOCK:   -6.04 KCAL/MOL
REMARK 924 INTRA-LIGAND FREE ENERGY PREDICTED BY IDOCK:   -0.50 KCAL/MOL
REMARK 927      BINDING AFFINITY PREDICTED BY RF-SCORE:    0.00 PKD
ROOT
HETATM    1  C   UNL     1      -9.603  17.779  68.354  1.00  0.00    -0.323 C  
HETATM    2  O   UNL     1     -10.201  16.799  67.511  1.00  0.00    -0.273 OA 
ENDROOT
BRANCH   2   3
HETATM    3  C   UNL     1     -10.836  15.780  68.166  1.00  0.00    -0.307 A  
HETATM    4  C   UNL     1     -11.153  16.024  69.502  1.00  0.00    -0.333 A  
HETATM    5  C   UNL     1     -11.790  15.043  70.270  1.00  0.00    -0.355 A  
HETATM    6  C   UNL     1     -12.128  13.809  69.699  1.00  0.00    -0.392 A  
HETATM    7  C   UNL     1     -11.832  13.582  68.350  1.00  0.00    -0.408 A  
HETATM    8  C   UNL     1     -11.201  14.567  67.585  1.00  0.00    -0.335 A  
BRANCH   6   9
HETATM    9  C   UNL     1     -12.786  12.779  70.562  1.00  0.00    -0.003 C  
HETATM   10  O   UNL     1     -13.263  13.113  71.648  1.00  0.00    -0.384 OA 
BRANCH   9  11
HETATM   11  C   UNL     1     -12.778  11.328  70.139  1.00  0.00    -0.109 C  
BRANCH  11  12
HETATM   12  C   UNL     1     -12.509  10.350  71.254  1.00  0.00    -0.415 C  
HETATM   13  O   UNL     1     -13.077  10.406  72.343  1.00  0.00    -0.301 OA 
BRANCH  12  14
HETATM   14  C   UNL     1     -11.497   9.283  71.031  1.00  0.00    -0.387 A  
HETATM   15  C   UNL     1     -10.187   9.682  70.766  1.00  0.00    -0.330 A  
HETATM   16  C   UNL     1      -9.204   8.737  70.479  1.00  0.00    -0.218 A  
HETATM   17  C   UNL     1      -9.493   7.363  70.452  1.00  0.00    -0.165 A  
HETATM   18  C   UNL     1     -11.803   7.920  71.063  1.00  0.00    -0.285 A  
HETATM   19  C   UNL     1     -10.807   6.974  70.781  1.00  0.00    -0.272 A  
BRANCH  17  20
HETATM   20  C   UNL     1      -8.438   6.316  70.050  1.00  0.00    -0.134 C  
HETATM   21  C   UNL     1      -7.154   6.944  69.459  1.00  0.00    -0.075 C  
HETATM   22  C   UNL     1      -8.021   5.477  71.274  1.00  0.00    -0.111 C  
HETATM   23  C   UNL     1      -9.018   5.376  68.971  1.00  0.00    -0.121 C  
ENDBRANCH  17  20
ENDBRANCH  12  14
ENDBRANCH  11  12
ENDBRANCH   9  11
ENDBRANCH   6   9
ENDBRANCH   2   3
TORSDOF 6
ENDMDL
MODEL      159
REMARK 921   NORMALIZED FREE ENERGY PREDICTED BY IDOCK:   -4.09 KCAL/MOL
REMARK 922        TOTAL FREE ENERGY PREDICTED BY IDOCK:   -6.53 KCAL/MOL
REMARK 923 INTER-LIGAND FREE ENERGY PREDICTED BY IDOCK:   -5.46 KCAL/MOL
REMARK 924 INTRA-LIGAND FREE ENERGY PREDICTED BY IDOCK:   -1.07 KCAL/MOL
REMARK 927      BINDING AFFINITY PREDICTED BY RF-SCORE:    0.00 PKD
ROOT
HETATM    1  C   UNL     1      -9.283  17.930  67.635  1.00  0.00    -0.258 C  
HETATM    2  O   UNL     1     -10.367  17.361  66.906  1.00  0.00    -0.320 OA 
ENDROOT
BRANCH   2   3
HETATM    3  C   UNL     1     -10.796  16.144  67.360  1.00  0.00    -0.265 A  
HETATM    4  C   UNL     1     -10.995  16.047  68.736  1.00  0.00    -0.320 A  
HETATM    5  C   UNL     1     -11.418  14.842  69.308  1.00  0.00    -0.324 A  
HETATM    6  C   UNL     1     -11.659  13.724  68.500  1.00  0.00    -0.373 A  
HETATM    7  C   UNL     1     -11.484  13.837  67.116  1.00  0.00    -0.365 A  
HETATM    8  C   UNL     1     -11.066  15.044  66.548  1.00  0.00    -0.329 A  
BRANCH   6   9
HETATM    9  C   UNL     1     -12.086  12.448  69.154  1.00  0.00    -0.146 C  
HETATM   10  O   UNL     1     -12.413  12.456  70.343  1.00  0.00    -0.239 OA 
BRANCH   9  11
HETATM   11  C   UNL     1     -12.025  11.150  68.382  1.00  0.00    -0.211 C  
BRANCH  11  12
HETATM   12  C   UNL     1     -10.686  10.458  68.421  1.00  0.00    -0.225 C  
HETATM   13  O   UNL     1     -10.092  10.210  69.468  1.00  0.00    -0.211 OA 
BRANCH  12  14
HETATM   14  C   UNL     1     -10.047  10.079  67.132  1.00  0.00    -0.265 A  
HETATM   15  C   UNL     1      -9.331   8.884  67.095  1.00  0.00    -0.182 A  
HETATM   16  C   UNL     1      -8.649   8.503  65.939  1.00  0.00    -0.183 A  
HETATM   17  C   UNL     1      -8.666   9.298  64.782  1.00  0.00    -0.220 A  
HETATM   18  C   UNL     1     -10.125  10.865  65.980  1.00  0.00    -0.303 A  
HETATM   19  C   UNL     1      -9.444  10.472  64.818  1.00  0.00    -0.312 A  
BRANCH  17  20
HETATM   20  C   UNL     1      -7.847   8.933  63.531  1.00  0.00    -0.141 C  
HETATM   21  C   UNL     1      -6.881   7.747  63.762  1.00  0.00    -0.062 C  
HETATM   22  C   UNL     1      -8.784   8.547  62.369  1.00  0.00    -0.074 C  
HETATM   23  C   UNL     1      -6.983  10.139  63.101  1.00  0.00    -0.132 C  
ENDBRANCH  17  20
ENDBRANCH  12  14
ENDBRANCH  11  12
ENDBRANCH   9  11
ENDBRANCH   6   9
ENDBRANCH   2   3
TORSDOF 6
ENDMDL
MODEL      160
REMARK 921   NORMALIZED FREE ENERGY PREDICTED BY IDOCK:   -4.08 KCAL/MOL
REMARK 922        TOTAL FREE ENERGY PREDICTED BY IDOCK:   -6.52 KCAL/MOL
REMARK 923 INTER-LIGAND FREE ENERGY PREDICTED BY IDOCK:   -4.78 KCAL/MOL
REMARK 924 INTRA-LIGAND FREE ENERGY PREDICTED BY IDOCK:   -1.74 KCAL/MOL
REMARK 927      BINDING AFFINITY PREDICTED BY RF-SCORE:    0.00 PKD
ROOT
HETATM    1  C   UNL     1     -12.029  14.642  69.073  1.00  0.00    -0.283 C  
HETATM    2  O   UNL     1     -12.176  13.413  68.368  1.00  0.00    -0.293 OA 
ENDROOT
BRANCH   2   3
HETATM    3  C   UNL     1     -11.430  12.374  68.853  1.00  0.00    -0.307 A  
HETATM    4  C   UNL     1     -10.059  12.451  68.613  1.00  0.00    -0.143 A  
HETATM    5  C   UNL     1      -9.204  11.434  69.052  1.00  0.00     0.055 A  
HETATM    6  C   UNL     1      -9.718  10.333  69.749  1.00  0.00    -0.183 A  
HETATM    7  C   UNL     1     -11.092  10.276  70.010  1.00  0.00    -0.373 A  
HETATM    8  C   UNL     1     -11.941  11.297  69.574  1.00  0.00    -0.421 A  
BRANCH   6   9
HETATM    9  C   UNL     1      -8.773   9.255  70.178  1.00  0.00    -0.204 C  
HETATM   10  O   UNL     1      -7.856   9.527  70.956  1.00  0.00    -0.316 OA 
BRANCH   9  11
HETATM   11  C   UNL     1      -8.895   7.869  69.588  1.00  0.00    -0.138 C  
BRANCH  11  12
HETATM   12  C   UNL     1      -8.404   7.746  68.168  1.00  0.00    -0.124 C  
HETATM   13  O   UNL     1      -7.562   6.919  67.823  1.00  0.00    -0.102 OA 
BRANCH  12  14
HETATM   14  C   UNL     1      -8.949   8.679  67.147  1.00  0.00    -0.148 A  
HETATM   15  C   UNL     1      -8.040   9.483  66.458  1.00  0.00    -0.112 A  
HETATM   16  C   UNL     1      -8.489  10.430  65.538  1.00  0.00    -0.171 A  
HETATM   17  C   UNL     1      -9.857  10.600  65.269  1.00  0.00    -0.334 A  
HETATM   18  C   UNL     1     -10.311   8.791  66.862  1.00  0.00    -0.344 A  
HETATM   19  C   UNL     1     -10.756   9.739  65.929  1.00  0.00     0.319 A  
BRANCH  17  20
HETATM   20  C   UNL     1     -10.370  11.701  64.322  1.00  0.00    -0.371 C  
HETATM   21  C   UNL     1     -10.204  13.125  64.901  1.00  0.00    -0.306 C  
HETATM   22  C   UNL     1      -9.608  11.654  62.983  1.00  0.00    -0.311 C  
HETATM   23  C   UNL     1     -11.876  11.497  64.051  1.00  0.00    -0.172 C  
ENDBRANCH  17  20
ENDBRANCH  12  14
ENDBRANCH  11  12
ENDBRANCH   9  11
ENDBRANCH   6   9
ENDBRANCH   2   3
TORSDOF 6
ENDMDL
MODEL      161
REMARK 921   NORMALIZED FREE ENERGY PREDICTED BY IDOCK:   -4.08 KCAL/MOL
REMARK 922        TOTAL FREE ENERGY PREDICTED BY IDOCK:   -6.51 KCAL/MOL
REMARK 923 INTER-LIGAND FREE ENERGY PREDICTED BY IDOCK:   -4.77 KCAL/MOL
REMARK 924 INTRA-LIGAND FREE ENERGY PREDICTED BY IDOCK:   -1.74 KCAL/MOL
REMARK 927      BINDING AFFINITY PREDICTED BY RF-SCORE:    0.00 PKD
ROOT
HETATM    1  C   UNL     1      -9.553  13.369  68.104  1.00  0.00    -0.222 C  
HETATM    2  O   UNL     1     -10.913  13.154  68.474  1.00  0.00    -0.243 OA 
ENDROOT
BRANCH   2   3
HETATM    3  C   UNL     1     -11.164  11.960  69.091  1.00  0.00    -0.255 A  
HETATM    4  C   UNL     1     -11.940  12.028  70.247  1.00  0.00    -0.398 A  
HETATM    5  C   UNL     1     -12.245  10.867  70.965  1.00  0.00    -0.464 A  
HETATM    6  C   UNL     1     -11.784   9.620  70.521  1.00  0.00    -0.312 A  
HETATM    7  C   UNL     1     -11.029   9.557  69.344  1.00  0.00    -0.192 A  
HETATM    8  C   UNL     1     -10.732  10.719  68.627  1.00  0.00    -0.242 A  
BRANCH   6   9
HETATM    9  C   UNL     1     -12.111   8.407  71.332  1.00  0.00    -0.301 C  
HETATM   10  O   UNL     1     -12.844   7.538  70.854  1.00  0.00    -0.182 OA 
BRANCH   9  11
HETATM   11  C   UNL     1     -11.619   8.299  72.756  1.00  0.00    -0.326 C  
BRANCH  11  12
HETATM   12  C   UNL     1     -10.368   7.475  72.928  1.00  0.00    -0.296 C  
HETATM   13  O   UNL     1     -10.138   6.812  73.937  1.00  0.00    -0.276 OA 
BRANCH  12  14
HETATM   14  C   UNL     1      -9.360   7.482  71.834  1.00  0.00    -0.171 A  
HETATM   15  C   UNL     1      -8.418   8.511  71.833  1.00  0.00    -0.234 A  
HETATM   16  C   UNL     1      -7.488   8.618  70.799  1.00  0.00    -0.080 A  
HETATM   17  C   UNL     1      -7.464   7.699  69.736  1.00  0.00    -0.090 A  
HETATM   18  C   UNL     1      -9.327   6.524  70.818  1.00  0.00    -0.162 A  
HETATM   19  C   UNL     1      -8.384   6.633  69.785  1.00  0.00    -0.132 A  
BRANCH  17  20
HETATM   20  C   UNL     1      -6.502   7.857  68.545  1.00  0.00    -0.053 C  
HETATM   21  C   UNL     1      -5.320   8.810  68.841  1.00  0.00    -0.037 C  
HETATM   22  C   UNL     1      -5.908   6.490  68.151  1.00  0.00    -0.016 C  
HETATM   23  C   UNL     1      -7.261   8.443  67.334  1.00  0.00    -0.088 C  
ENDBRANCH  17  20
ENDBRANCH  12  14
ENDBRANCH  11  12
ENDBRANCH   9  11
ENDBRANCH   6   9
ENDBRANCH   2   3
TORSDOF 6
ENDMDL
MODEL      162
REMARK 921   NORMALIZED FREE ENERGY PREDICTED BY IDOCK:   -4.08 KCAL/MOL
REMARK 922        TOTAL FREE ENERGY PREDICTED BY IDOCK:   -6.51 KCAL/MOL
REMARK 923 INTER-LIGAND FREE ENERGY PREDICTED BY IDOCK:   -5.61 KCAL/MOL
REMARK 924 INTRA-LIGAND FREE ENERGY PREDICTED BY IDOCK:   -0.91 KCAL/MOL
REMARK 927      BINDING AFFINITY PREDICTED BY RF-SCORE:    0.00 PKD
ROOT
HETATM    1  C   UNL     1     -10.527  16.568  65.495  1.00  0.00    -0.301 C  
HETATM    2  O   UNL     1     -11.241  15.587  66.243  1.00  0.00    -0.239 OA 
ENDROOT
BRANCH   2   3
HETATM    3  C   UNL     1     -10.666  14.346  66.269  1.00  0.00    -0.307 A  
HETATM    4  C   UNL     1     -11.381  13.335  65.628  1.00  0.00    -0.325 A  
HETATM    5  C   UNL     1     -10.892  12.025  65.608  1.00  0.00    -0.325 A  
HETATM    6  C   UNL     1      -9.670  11.718  66.221  1.00  0.00    -0.242 A  
HETATM    7  C   UNL     1      -8.945  12.744  66.838  1.00  0.00    -0.213 A  
HETATM    8  C   UNL     1      -9.435  14.052  66.851  1.00  0.00    -0.271 A  
BRANCH   6   9
HETATM    9  C   UNL     1      -9.195  10.300  66.198  1.00  0.00    -0.158 C  
HETATM   10  O   UNL     1      -9.943   9.416  65.773  1.00  0.00    -0.309 OA 
BRANCH   9  11
HETATM   11  C   UNL     1      -7.844   9.949  66.778  1.00  0.00    -0.109 C  
BRANCH  11  12
HETATM   12  C   UNL     1      -7.749  10.086  68.276  1.00  0.00    -0.084 C  
HETATM   13  O   UNL     1      -6.820  10.664  68.837  1.00  0.00    -0.057 OA 
BRANCH  12  14
HETATM   14  C   UNL     1      -8.818   9.477  69.112  1.00  0.00    -0.147 A  
HETATM   15  C   UNL     1      -9.861  10.304  69.527  1.00  0.00    -0.244 A  
HETATM   16  C   UNL     1     -10.859   9.816  70.370  1.00  0.00    -0.370 A  
HETATM   17  C   UNL     1     -10.852   8.485  70.820  1.00  0.00    -0.268 A  
HETATM   18  C   UNL     1      -8.814   8.136  69.501  1.00  0.00    -0.143 A  
HETATM   19  C   UNL     1      -9.825   7.648  70.342  1.00  0.00    -0.183 A  
BRANCH  17  20
HETATM   20  C   UNL     1     -11.898   7.958  71.820  1.00  0.00    -0.333 C  
HETATM   21  C   UNL     1     -11.268   7.217  73.022  1.00  0.00    -0.279 C  
HETATM   22  C   UNL     1     -12.737   9.123  72.382  1.00  0.00    -0.410 C  
HETATM   23  C   UNL     1     -12.837   6.956  71.115  1.00  0.00    -0.289 C  
ENDBRANCH  17  20
ENDBRANCH  12  14
ENDBRANCH  11  12
ENDBRANCH   9  11
ENDBRANCH   6   9
ENDBRANCH   2   3
TORSDOF 6
ENDMDL
MODEL      163
REMARK 921   NORMALIZED FREE ENERGY PREDICTED BY IDOCK:   -4.05 KCAL/MOL
REMARK 922        TOTAL FREE ENERGY PREDICTED BY IDOCK:   -6.47 KCAL/MOL
REMARK 923 INTER-LIGAND FREE ENERGY PREDICTED BY IDOCK:   -5.84 KCAL/MOL
REMARK 924 INTRA-LIGAND FREE ENERGY PREDICTED BY IDOCK:   -0.63 KCAL/MOL
REMARK 927      BINDING AFFINITY PREDICTED BY RF-SCORE:    0.00 PKD
ROOT
HETATM    1  C   UNL     1      -7.559   1.782  71.375  1.00  0.00    -0.036 C  
HETATM    2  O   UNL     1      -7.154   2.360  70.137  1.00  0.00    -0.033 OA 
ENDROOT
BRANCH   2   3
HETATM    3  C   UNL     1      -7.907   3.422  69.719  1.00  0.00    -0.049 A  
HETATM    4  C   UNL     1      -9.131   3.588  70.366  1.00  0.00    -0.197 A  
HETATM    5  C   UNL     1      -9.986   4.635  70.006  1.00  0.00    -0.302 A  
HETATM    6  C   UNL     1      -9.615   5.535  68.999  1.00  0.00    -0.180 A  
HETATM    7  C   UNL     1      -8.373   5.379  68.374  1.00  0.00    -0.094 A  
HETATM    8  C   UNL     1      -7.519   4.335  68.741  1.00  0.00    -0.056 A  
BRANCH   6   9
HETATM    9  C   UNL     1     -10.570   6.625  68.627  1.00  0.00    -0.234 C  
HETATM   10  O   UNL     1     -11.273   7.140  69.500  1.00  0.00    -0.188 OA 
BRANCH   9  11
HETATM   11  C   UNL     1     -10.732   7.021  67.178  1.00  0.00    -0.433 C  
BRANCH  11  12
HETATM   12  C   UNL     1      -9.783   8.095  66.710  1.00  0.00    -0.235 C  
HETATM   13  O   UNL     1      -8.610   7.870  66.421  1.00  0.00    -0.132 OA 
BRANCH  12  14
HETATM   14  C   UNL     1     -10.287   9.492  66.614  1.00  0.00    -0.280 A  
HETATM   15  C   UNL     1     -10.107  10.159  65.403  1.00  0.00    -0.342 A  
HETATM   16  C   UNL     1     -10.492  11.493  65.267  1.00  0.00    -0.336 A  
HETATM   17  C   UNL     1     -11.074  12.201  66.331  1.00  0.00    -0.358 A  
HETATM   18  C   UNL     1     -10.910  10.154  67.674  1.00  0.00    -0.346 A  
HETATM   19  C   UNL     1     -11.302  11.492  67.528  1.00  0.00    -0.366 A  
BRANCH  17  20
HETATM   20  C   UNL     1     -11.421  13.697  66.221  1.00  0.00    -0.352 C  
HETATM   21  C   UNL     1     -12.631  13.972  65.298  1.00  0.00    -0.495 C  
HETATM   22  C   UNL     1     -11.759  14.272  67.611  1.00  0.00    -0.421 C  
HETATM   23  C   UNL     1     -10.221  14.471  65.634  1.00  0.00    -0.379 C  
ENDBRANCH  17  20
ENDBRANCH  12  14
ENDBRANCH  11  12
ENDBRANCH   9  11
ENDBRANCH   6   9
ENDBRANCH   2   3
TORSDOF 6
ENDMDL
MODEL      164
REMARK 921   NORMALIZED FREE ENERGY PREDICTED BY IDOCK:   -4.03 KCAL/MOL
REMARK 922        TOTAL FREE ENERGY PREDICTED BY IDOCK:   -6.44 KCAL/MOL
REMARK 923 INTER-LIGAND FREE ENERGY PREDICTED BY IDOCK:   -5.32 KCAL/MOL
REMARK 924 INTRA-LIGAND FREE ENERGY PREDICTED BY IDOCK:   -1.12 KCAL/MOL
REMARK 927      BINDING AFFINITY PREDICTED BY RF-SCORE:    0.00 PKD
ROOT
HETATM    1  C   UNL     1     -11.941  15.004  69.049  1.00  0.00    -0.264 C  
HETATM    2  O   UNL     1     -12.344  13.872  68.282  1.00  0.00    -0.254 OA 
ENDROOT
BRANCH   2   3
HETATM    3  C   UNL     1     -11.596  12.744  68.477  1.00  0.00    -0.321 A  
HETATM    4  C   UNL     1     -10.329  12.749  67.895  1.00  0.00    -0.228 A  
HETATM    5  C   UNL     1      -9.488  11.638  68.019  1.00  0.00    -0.185 A  
HETATM    6  C   UNL     1      -9.905  10.514  68.743  1.00  0.00    -0.191 A  
HETATM    7  C   UNL     1     -11.167  10.528  69.348  1.00  0.00    -0.327 A  
HETATM    8  C   UNL     1     -12.002  11.641  69.226  1.00  0.00    -0.382 A  
BRANCH   6   9
HETATM    9  C   UNL     1      -8.984   9.338  68.831  1.00  0.00    -0.136 C  
HETATM   10  O   UNL     1      -8.136   9.298  69.726  1.00  0.00    -0.097 OA 
BRANCH   9  11
HETATM   11  C   UNL     1      -9.039   8.259  67.775  1.00  0.00    -0.138 C  
BRANCH  11  12
HETATM   12  C   UNL     1     -10.110   7.221  67.992  1.00  0.00    -0.172 C  
HETATM   13  O   UNL     1     -10.995   6.992  67.171  1.00  0.00    -0.357 OA 
BRANCH  12  14
HETATM   14  C   UNL     1     -10.104   6.454  69.267  1.00  0.00    -0.203 A  
HETATM   15  C   UNL     1     -11.093   6.753  70.203  1.00  0.00    -0.365 A  
HETATM   16  C   UNL     1     -11.105   6.123  71.447  1.00  0.00    -0.346 A  
HETATM   17  C   UNL     1     -10.134   5.169  71.794  1.00  0.00    -0.260 A  
HETATM   18  C   UNL     1      -9.156   5.472  69.565  1.00  0.00    -0.143 A  
HETATM   19  C   UNL     1      -9.178   4.836  70.814  1.00  0.00    -0.195 A  
BRANCH  17  20
HETATM   20  C   UNL     1     -10.083   4.531  73.195  1.00  0.00    -0.204 C  
HETATM   21  C   UNL     1     -10.588   5.476  74.311  1.00  0.00    -0.199 C  
HETATM   22  C   UNL     1     -10.953   3.259  73.237  1.00  0.00    -0.263 C  
HETATM   23  C   UNL     1      -8.627   4.156  73.546  1.00  0.00    -0.092 C  
ENDBRANCH  17  20
ENDBRANCH  12  14
ENDBRANCH  11  12
ENDBRANCH   9  11
ENDBRANCH   6   9
ENDBRANCH   2   3
TORSDOF 6
ENDMDL
MODEL      165
REMARK 921   NORMALIZED FREE ENERGY PREDICTED BY IDOCK:   -4.02 KCAL/MOL
REMARK 922        TOTAL FREE ENERGY PREDICTED BY IDOCK:   -6.44 KCAL/MOL
REMARK 923 INTER-LIGAND FREE ENERGY PREDICTED BY IDOCK:   -6.36 KCAL/MOL
REMARK 924 INTRA-LIGAND FREE ENERGY PREDICTED BY IDOCK:   -0.08 KCAL/MOL
REMARK 927      BINDING AFFINITY PREDICTED BY RF-SCORE:    0.00 PKD
ROOT
HETATM    1  C   UNL     1     -10.343   6.093  66.891  1.00  0.00    -0.248 C  
HETATM    2  O   UNL     1      -9.263   6.971  66.582  1.00  0.00    -0.148 OA 
ENDROOT
BRANCH   2   3
HETATM    3  C   UNL     1      -9.614   8.280  66.400  1.00  0.00    -0.230 A  
HETATM    4  C   UNL     1     -10.093   8.941  67.530  1.00  0.00    -0.285 A  
HETATM    5  C   UNL     1     -10.495  10.278  67.452  1.00  0.00    -0.303 A  
HETATM    6  C   UNL     1     -10.407  10.972  66.238  1.00  0.00    -0.304 A  
HETATM    7  C   UNL     1      -9.898  10.310  65.114  1.00  0.00    -0.389 A  
HETATM    8  C   UNL     1      -9.493   8.975  65.198  1.00  0.00    -0.007 A  
BRANCH   6   9
HETATM    9  C   UNL     1     -10.870  12.394  66.191  1.00  0.00    -0.273 C  
HETATM   10  O   UNL     1     -12.078  12.636  66.128  1.00  0.00    -0.521 OA 
BRANCH   9  11
HETATM   11  C   UNL     1      -9.857  13.513  66.129  1.00  0.00    -0.292 C  
BRANCH  11  12
HETATM   12  C   UNL     1     -10.382  14.860  66.554  1.00  0.00    -0.293 C  
HETATM   13  O   UNL     1     -11.559  15.055  66.852  1.00  0.00    -0.323 OA 
BRANCH  12  14
HETATM   14  C   UNL     1      -9.437  16.008  66.596  1.00  0.00    -0.259 A  
HETATM   15  C   UNL     1      -9.976  17.291  66.499  1.00  0.00    -0.310 A  
HETATM   16  C   UNL     1      -9.142  18.408  66.461  1.00  0.00    -0.297 A  
HETATM   17  C   UNL     1      -7.745  18.282  66.524  1.00  0.00    -0.279 A  
HETATM   18  C   UNL     1      -8.054  15.856  66.712  1.00  0.00    -0.301 A  
HETATM   19  C   UNL     1      -7.221  16.984  66.681  1.00  0.00    -0.293 A  
BRANCH  17  20
HETATM   20  C   UNL     1      -6.811  19.499  66.394  1.00  0.00    -0.216 C  
HETATM   21  C   UNL     1      -7.172  20.648  67.365  1.00  0.00    -0.391 C  
HETATM   22  C   UNL     1      -5.353  19.090  66.682  1.00  0.00    -0.160 C  
HETATM   23  C   UNL     1      -6.898  20.075  64.964  1.00  0.00    -0.239 C  
ENDBRANCH  17  20
ENDBRANCH  12  14
ENDBRANCH  11  12
ENDBRANCH   9  11
ENDBRANCH   6   9
ENDBRANCH   2   3
TORSDOF 6
ENDMDL
MODEL      166
REMARK 921   NORMALIZED FREE ENERGY PREDICTED BY IDOCK:   -3.99 KCAL/MOL
REMARK 922        TOTAL FREE ENERGY PREDICTED BY IDOCK:   -6.39 KCAL/MOL
REMARK 923 INTER-LIGAND FREE ENERGY PREDICTED BY IDOCK:   -5.25 KCAL/MOL
REMARK 924 INTRA-LIGAND FREE ENERGY PREDICTED BY IDOCK:   -1.14 KCAL/MOL
REMARK 927      BINDING AFFINITY PREDICTED BY RF-SCORE:    0.00 PKD
ROOT
HETATM    1  C   UNL     1     -12.835  11.903  63.232  1.00  0.00    -0.161 C  
HETATM    2  O   UNL     1     -13.157  12.811  64.281  1.00  0.00    -0.699 OA 
ENDROOT
BRANCH   2   3
HETATM    3  C   UNL     1     -12.085  13.437  64.856  1.00  0.00    -0.392 A  
HETATM    4  C   UNL     1     -11.392  12.696  65.811  1.00  0.00    -0.370 A  
HETATM    5  C   UNL     1     -10.289  13.246  66.472  1.00  0.00    -0.285 A  
HETATM    6  C   UNL     1      -9.861  14.545  66.170  1.00  0.00    -0.339 A  
HETATM    7  C   UNL     1     -10.545  15.273  65.190  1.00  0.00    -0.453 A  
HETATM    8  C   UNL     1     -11.644  14.717  64.528  1.00  0.00    -0.366 A  
BRANCH   6   9
HETATM    9  C   UNL     1      -8.693  15.106  66.918  1.00  0.00    -0.259 C  
HETATM   10  O   UNL     1      -8.213  16.187  66.570  1.00  0.00    -0.263 OA 
BRANCH   9  11
HETATM   11  C   UNL     1      -8.056  14.303  68.028  1.00  0.00    -0.145 C  
BRANCH  11  12
HETATM   12  C   UNL     1      -6.872  13.472  67.604  1.00  0.00    -0.170 C  
HETATM   13  O   UNL     1      -5.788  13.963  67.295  1.00  0.00    -0.319 OA 
BRANCH  12  14
HETATM   14  C   UNL     1      -7.031  11.994  67.537  1.00  0.00    -0.130 A  
HETATM   15  C   UNL     1      -8.057  11.422  68.289  1.00  0.00    -0.143 A  
HETATM   16  C   UNL     1      -8.218  10.038  68.328  1.00  0.00    -0.106 A  
HETATM   17  C   UNL     1      -7.367   9.180  67.612  1.00  0.00    -0.087 A  
HETATM   18  C   UNL     1      -6.202  11.170  66.773  1.00  0.00    -0.122 A  
HETATM   19  C   UNL     1      -6.375   9.779  66.810  1.00  0.00    -0.065 A  
BRANCH  17  20
HETATM   20  C   UNL     1      -7.480   7.648  67.715  1.00  0.00    -0.108 C  
HETATM   21  C   UNL     1      -8.311   7.182  68.933  1.00  0.00    -0.126 C  
HETATM   22  C   UNL     1      -8.148   7.073  66.451  1.00  0.00    -0.112 C  
HETATM   23  C   UNL     1      -6.073   7.029  67.866  1.00  0.00    -0.033 C  
ENDBRANCH  17  20
ENDBRANCH  12  14
ENDBRANCH  11  12
ENDBRANCH   9  11
ENDBRANCH   6   9
ENDBRANCH   2   3
TORSDOF 6
ENDMDL
MODEL      167
REMARK 921   NORMALIZED FREE ENERGY PREDICTED BY IDOCK:   -3.98 KCAL/MOL
REMARK 922        TOTAL FREE ENERGY PREDICTED BY IDOCK:   -6.38 KCAL/MOL
REMARK 923 INTER-LIGAND FREE ENERGY PREDICTED BY IDOCK:   -5.08 KCAL/MOL
REMARK 924 INTRA-LIGAND FREE ENERGY PREDICTED BY IDOCK:   -1.30 KCAL/MOL
REMARK 927      BINDING AFFINITY PREDICTED BY RF-SCORE:    0.00 PKD
ROOT
HETATM    1  C   UNL     1      -9.319   6.175  73.433  1.00  0.00    -0.134 C  
HETATM    2  O   UNL     1      -8.350   6.808  72.601  1.00  0.00    -0.111 OA 
ENDROOT
BRANCH   2   3
HETATM    3  C   UNL     1      -8.650   6.821  71.267  1.00  0.00    -0.125 A  
HETATM    4  C   UNL     1      -9.713   7.643  70.894  1.00  0.00    -0.175 A  
HETATM    5  C   UNL     1     -10.114   7.719  69.557  1.00  0.00    -0.194 A  
HETATM    6  C   UNL     1      -9.442   6.980  68.575  1.00  0.00    -0.134 A  
HETATM    7  C   UNL     1      -8.358   6.179  68.952  1.00  0.00    -0.115 A  
HETATM    8  C   UNL     1      -7.957   6.110  70.290  1.00  0.00    -0.107 A  
BRANCH   6   9
HETATM    9  C   UNL     1      -9.919   7.071  67.160  1.00  0.00    -0.189 C  
HETATM   10  O   UNL     1     -11.119   6.929  66.914  1.00  0.00    -0.379 OA 
BRANCH   9  11
HETATM   11  C   UNL     1      -8.920   7.244  66.039  1.00  0.00    -0.149 C  
BRANCH  11  12
HETATM   12  C   UNL     1      -8.280   8.607  65.972  1.00  0.00    -0.127 C  
HETATM   13  O   UNL     1      -7.069   8.770  65.840  1.00  0.00    -0.081 OA 
BRANCH  12  14
HETATM   14  C   UNL     1      -9.153   9.805  66.089  1.00  0.00    -0.198 A  
HETATM   15  C   UNL     1      -9.994  10.098  65.016  1.00  0.00    -0.375 A  
HETATM   16  C   UNL     1     -10.787  11.245  65.030  1.00  0.00    -0.285 A  
HETATM   17  C   UNL     1     -10.772  12.133  66.118  1.00  0.00    -0.307 A  
HETATM   18  C   UNL     1      -9.156  10.642  67.207  1.00  0.00    -0.151 A  
HETATM   19  C   UNL     1      -9.962  11.790  67.219  1.00  0.00    -0.208 A  
BRANCH  17  20
HETATM   20  C   UNL     1     -11.576  13.446  66.109  1.00  0.00    -0.378 C  
HETATM   21  C   UNL     1     -12.873  13.358  65.272  1.00  0.00    -0.398 C  
HETATM   22  C   UNL     1     -11.976  13.841  67.544  1.00  0.00    -0.411 C  
HETATM   23  C   UNL     1     -10.721  14.578  65.496  1.00  0.00    -0.350 C  
ENDBRANCH  17  20
ENDBRANCH  12  14
ENDBRANCH  11  12
ENDBRANCH   9  11
ENDBRANCH   6   9
ENDBRANCH   2   3
TORSDOF 6
ENDMDL
MODEL      168
REMARK 921   NORMALIZED FREE ENERGY PREDICTED BY IDOCK:   -3.95 KCAL/MOL
REMARK 922        TOTAL FREE ENERGY PREDICTED BY IDOCK:   -6.34 KCAL/MOL
REMARK 923 INTER-LIGAND FREE ENERGY PREDICTED BY IDOCK:   -5.34 KCAL/MOL
REMARK 924 INTRA-LIGAND FREE ENERGY PREDICTED BY IDOCK:   -1.00 KCAL/MOL
REMARK 927      BINDING AFFINITY PREDICTED BY RF-SCORE:    0.00 PKD
ROOT
HETATM    1  C   UNL     1      -9.654   2.493  72.979  1.00  0.00    -0.092 C  
HETATM    2  O   UNL     1     -10.325   3.749  72.927  1.00  0.00    -0.155 OA 
ENDROOT
BRANCH   2   3
HETATM    3  C   UNL     1     -10.275   4.384  71.717  1.00  0.00    -0.131 A  
HETATM    4  C   UNL     1     -10.951   5.601  71.644  1.00  0.00    -0.277 A  
HETATM    5  C   UNL     1     -10.977   6.327  70.449  1.00  0.00    -0.385 A  
HETATM    6  C   UNL     1     -10.312   5.844  69.315  1.00  0.00    -0.312 A  
HETATM    7  C   UNL     1      -9.612   4.635  69.404  1.00  0.00    -0.257 A  
HETATM    8  C   UNL     1      -9.584   3.916  70.602  1.00  0.00    -0.259 A  
BRANCH   6   9
HETATM    9  C   UNL     1     -10.385   6.639  68.050  1.00  0.00    -0.191 C  
HETATM   10  O   UNL     1     -11.373   6.527  67.320  1.00  0.00    -0.316 OA 
BRANCH   9  11
HETATM   11  C   UNL     1      -9.214   7.497  67.632  1.00  0.00    -0.135 C  
BRANCH  11  12
HETATM   12  C   UNL     1      -8.749   8.478  68.678  1.00  0.00    -0.139 C  
HETATM   13  O   UNL     1      -7.957   8.178  69.569  1.00  0.00    -0.109 OA 
BRANCH  12  14
HETATM   14  C   UNL     1      -9.289   9.863  68.639  1.00  0.00    -0.149 A  
HETATM   15  C   UNL     1     -10.343  10.168  69.500  1.00  0.00    -0.263 A  
HETATM   16  C   UNL     1     -10.943  11.426  69.467  1.00  0.00    -0.226 A  
HETATM   17  C   UNL     1     -10.507  12.423  68.578  1.00  0.00    -0.244 A  
HETATM   18  C   UNL     1      -8.800  10.851  67.781  1.00  0.00    -0.135 A  
HETATM   19  C   UNL     1      -9.403  12.117  67.758  1.00  0.00    -0.193 A  
BRANCH  17  20
HETATM   20  C   UNL     1     -11.217  13.785  68.470  1.00  0.00    -0.304 C  
HETATM   21  C   UNL     1     -12.253  14.020  69.594  1.00  0.00    -0.383 C  
HETATM   22  C   UNL     1     -10.190  14.932  68.539  1.00  0.00    -0.235 C  
HETATM   23  C   UNL     1     -11.979  13.872  67.129  1.00  0.00    -0.455 C  
ENDBRANCH  17  20
ENDBRANCH  12  14
ENDBRANCH  11  12
ENDBRANCH   9  11
ENDBRANCH   6   9
ENDBRANCH   2   3
TORSDOF 6
ENDMDL
MODEL      169
REMARK 921   NORMALIZED FREE ENERGY PREDICTED BY IDOCK:   -3.93 KCAL/MOL
REMARK 922        TOTAL FREE ENERGY PREDICTED BY IDOCK:   -6.31 KCAL/MOL
REMARK 923 INTER-LIGAND FREE ENERGY PREDICTED BY IDOCK:   -5.39 KCAL/MOL
REMARK 924 INTRA-LIGAND FREE ENERGY PREDICTED BY IDOCK:   -0.93 KCAL/MOL
REMARK 927      BINDING AFFINITY PREDICTED BY RF-SCORE:    0.00 PKD
ROOT
HETATM    1  C   UNL     1      -9.429  13.471  68.071  1.00  0.00    -0.220 C  
HETATM    2  O   UNL     1     -10.808  13.280  68.373  1.00  0.00    -0.242 OA 
ENDROOT
BRANCH   2   3
HETATM    3  C   UNL     1     -11.100  12.130  69.052  1.00  0.00    -0.237 A  
HETATM    4  C   UNL     1     -12.044  12.252  70.071  1.00  0.00    -0.346 A  
HETATM    5  C   UNL     1     -12.405  11.140  70.839  1.00  0.00    -0.500 A  
HETATM    6  C   UNL     1     -11.830   9.889  70.585  1.00  0.00    -0.386 A  
HETATM    7  C   UNL     1     -10.903   9.768  69.543  1.00  0.00    -0.264 A  
HETATM    8  C   UNL     1     -10.550  10.881  68.773  1.00  0.00    -0.231 A  
BRANCH   6   9
HETATM    9  C   UNL     1     -12.224   8.731  71.446  1.00  0.00    -0.309 C  
HETATM   10  O   UNL     1     -13.153   8.001  71.093  1.00  0.00    -0.198 OA 
BRANCH   9  11
HETATM   11  C   UNL     1     -11.546   8.521  72.780  1.00  0.00    -0.137 C  
BRANCH  11  12
HETATM   12  C   UNL     1     -10.148   7.965  72.693  1.00  0.00    -0.279 C  
HETATM   13  O   UNL     1      -9.155   8.673  72.537  1.00  0.00    -0.322 OA 
BRANCH  12  14
HETATM   14  C   UNL     1      -9.965   6.491  72.781  1.00  0.00    -0.186 A  
HETATM   15  C   UNL     1     -10.247   5.738  71.642  1.00  0.00    -0.253 A  
HETATM   16  C   UNL     1     -10.164   4.346  71.676  1.00  0.00    -0.186 A  
HETATM   17  C   UNL     1      -9.793   3.662  72.844  1.00  0.00    -0.197 A  
HETATM   18  C   UNL     1      -9.543   5.841  73.943  1.00  0.00    -0.148 A  
HETATM   19  C   UNL     1      -9.454   4.441  73.968  1.00  0.00    -0.124 A  
BRANCH  17  20
HETATM   20  C   UNL     1      -9.783   2.124  72.920  1.00  0.00    -0.144 C  
HETATM   21  C   UNL     1      -8.459   1.551  73.477  1.00  0.00    -0.053 C  
HETATM   22  C   UNL     1     -10.923   1.625  73.830  1.00  0.00    -0.232 C  
HETATM   23  C   UNL     1      -9.972   1.530  71.507  1.00  0.00    -0.194 C  
ENDBRANCH  17  20
ENDBRANCH  12  14
ENDBRANCH  11  12
ENDBRANCH   9  11
ENDBRANCH   6   9
ENDBRANCH   2   3
TORSDOF 6
ENDMDL
MODEL      170
REMARK 921   NORMALIZED FREE ENERGY PREDICTED BY IDOCK:   -3.93 KCAL/MOL
REMARK 922        TOTAL FREE ENERGY PREDICTED BY IDOCK:   -6.31 KCAL/MOL
REMARK 923 INTER-LIGAND FREE ENERGY PREDICTED BY IDOCK:   -4.76 KCAL/MOL
REMARK 924 INTRA-LIGAND FREE ENERGY PREDICTED BY IDOCK:   -1.55 KCAL/MOL
REMARK 927      BINDING AFFINITY PREDICTED BY RF-SCORE:    0.00 PKD
ROOT
HETATM    1  C   UNL     1     -11.433  11.228  69.181  1.00  0.00    -0.297 C  
HETATM    2  O   UNL     1     -10.204  10.615  69.562  1.00  0.00    -0.218 OA 
ENDROOT
BRANCH   2   3
HETATM    3  C   UNL     1     -10.309   9.658  70.532  1.00  0.00    -0.295 A  
HETATM    4  C   UNL     1      -9.110   9.262  71.124  1.00  0.00    -0.197 A  
HETATM    5  C   UNL     1      -9.101   8.278  72.118  1.00  0.00    -0.279 A  
HETATM    6  C   UNL     1     -10.300   7.689  72.539  1.00  0.00    -0.310 A  
HETATM    7  C   UNL     1     -11.502   8.111  71.960  1.00  0.00    -0.380 A  
HETATM    8  C   UNL     1     -11.507   9.099  70.971  1.00  0.00    -0.372 A  
BRANCH   6   9
HETATM    9  C   UNL     1     -10.243   6.622  73.586  1.00  0.00    -0.302 C  
HETATM   10  O   UNL     1      -9.436   6.724  74.513  1.00  0.00    -0.228 OA 
BRANCH   9  11
HETATM   11  C   UNL     1     -11.107   5.390  73.452  1.00  0.00    -0.326 C  
BRANCH  11  12
HETATM   12  C   UNL     1     -10.402   4.188  72.877  1.00  0.00    -0.173 C  
HETATM   13  O   UNL     1     -10.322   3.114  73.470  1.00  0.00    -0.118 OA 
BRANCH  12  14
HETATM   14  C   UNL     1      -9.759   4.315  71.542  1.00  0.00    -0.244 A  
HETATM   15  C   UNL     1      -8.459   3.830  71.404  1.00  0.00    -0.094 A  
HETATM   16  C   UNL     1      -7.771   3.981  70.200  1.00  0.00    -0.048 A  
HETATM   17  C   UNL     1      -8.361   4.613  69.094  1.00  0.00    -0.085 A  
HETATM   18  C   UNL     1     -10.389   4.902  70.443  1.00  0.00    -0.248 A  
HETATM   19  C   UNL     1      -9.696   5.043  69.232  1.00  0.00    -0.249 A  
BRANCH  17  20
HETATM   20  C   UNL     1      -7.583   4.864  67.789  1.00  0.00    -0.083 C  
HETATM   21  C   UNL     1      -8.293   5.858  66.840  1.00  0.00    -0.108 C  
HETATM   22  C   UNL     1      -6.186   5.438  68.099  1.00  0.00    -0.034 C  
HETATM   23  C   UNL     1      -7.421   3.539  67.013  1.00  0.00    -0.075 C  
ENDBRANCH  17  20
ENDBRANCH  12  14
ENDBRANCH  11  12
ENDBRANCH   9  11
ENDBRANCH   6   9
ENDBRANCH   2   3
TORSDOF 6
ENDMDL
MODEL      171
REMARK 921   NORMALIZED FREE ENERGY PREDICTED BY IDOCK:   -3.92 KCAL/MOL
REMARK 922        TOTAL FREE ENERGY PREDICTED BY IDOCK:   -6.30 KCAL/MOL
REMARK 923 INTER-LIGAND FREE ENERGY PREDICTED BY IDOCK:   -5.33 KCAL/MOL
REMARK 924 INTRA-LIGAND FREE ENERGY PREDICTED BY IDOCK:   -0.97 KCAL/MOL
REMARK 927      BINDING AFFINITY PREDICTED BY RF-SCORE:    0.00 PKD
ROOT
HETATM    1  C   UNL     1     -11.669  13.387  67.007  1.00  0.00    -0.381 C  
HETATM    2  O   UNL     1     -11.512  11.988  66.788  1.00  0.00    -0.337 OA 
ENDROOT
BRANCH   2   3
HETATM    3  C   UNL     1     -11.164  11.263  67.895  1.00  0.00    -0.290 A  
HETATM    4  C   UNL     1     -11.898  11.531  69.049  1.00  0.00    -0.408 A  
HETATM    5  C   UNL     1     -11.615  10.857  70.242  1.00  0.00    -0.426 A  
HETATM    6  C   UNL     1     -10.597   9.896  70.285  1.00  0.00    -0.359 A  
HETATM    7  C   UNL     1      -9.883   9.613  69.115  1.00  0.00    -0.189 A  
HETATM    8  C   UNL     1     -10.173  10.284  67.924  1.00  0.00    -0.217 A  
BRANCH   6   9
HETATM    9  C   UNL     1     -10.309   9.217  71.586  1.00  0.00    -0.318 C  
HETATM   10  O   UNL     1      -9.156   9.205  72.022  1.00  0.00    -0.337 OA 
BRANCH   9  11
HETATM   11  C   UNL     1     -11.411   8.475  72.307  1.00  0.00    -0.445 C  
BRANCH  11  12
HETATM   12  C   UNL     1     -11.513   7.011  71.961  1.00  0.00    -0.271 C  
HETATM   13  O   UNL     1     -12.564   6.481  71.605  1.00  0.00    -0.318 OA 
BRANCH  12  14
HETATM   14  C   UNL     1     -10.292   6.169  72.076  1.00  0.00    -0.232 A  
HETATM   15  C   UNL     1      -9.726   5.691  70.894  1.00  0.00    -0.223 A  
HETATM   16  C   UNL     1      -8.623   4.839  70.933  1.00  0.00    -0.126 A  
HETATM   17  C   UNL     1      -8.044   4.443  72.150  1.00  0.00    -0.099 A  
HETATM   18  C   UNL     1      -9.707   5.834  73.298  1.00  0.00    -0.157 A  
HETATM   19  C   UNL     1      -8.592   4.984  73.330  1.00  0.00    -0.112 A  
BRANCH  17  20
HETATM   20  C   UNL     1      -6.882   3.435  72.209  1.00  0.00    -0.026 C  
HETATM   21  C   UNL     1      -5.534   4.085  72.599  1.00  0.00     0.000 C  
HETATM   22  C   UNL     1      -7.181   2.333  73.245  1.00  0.00    -0.032 C  
HETATM   23  C   UNL     1      -6.684   2.783  70.823  1.00  0.00    -0.032 C  
ENDBRANCH  17  20
ENDBRANCH  12  14
ENDBRANCH  11  12
ENDBRANCH   9  11
ENDBRANCH   6   9
ENDBRANCH   2   3
TORSDOF 6
ENDMDL
MODEL      172
REMARK 921   NORMALIZED FREE ENERGY PREDICTED BY IDOCK:   -3.91 KCAL/MOL
REMARK 922        TOTAL FREE ENERGY PREDICTED BY IDOCK:   -6.29 KCAL/MOL
REMARK 923 INTER-LIGAND FREE ENERGY PREDICTED BY IDOCK:   -5.66 KCAL/MOL
REMARK 924 INTRA-LIGAND FREE ENERGY PREDICTED BY IDOCK:   -0.62 KCAL/MOL
REMARK 927      BINDING AFFINITY PREDICTED BY RF-SCORE:    0.00 PKD
ROOT
HETATM    1  C   UNL     1     -11.012   6.224  67.889  1.00  0.00    -0.327 C  
HETATM    2  O   UNL     1     -10.821   7.205  66.873  1.00  0.00    -0.352 OA 
ENDROOT
BRANCH   2   3
HETATM    3  C   UNL     1     -10.134   8.320  67.264  1.00  0.00    -0.247 A  
HETATM    4  C   UNL     1      -8.848   8.097  67.755  1.00  0.00    -0.130 A  
HETATM    5  C   UNL     1      -8.063   9.167  68.198  1.00  0.00    -0.104 A  
HETATM    6  C   UNL     1      -8.557  10.476  68.140  1.00  0.00    -0.123 A  
HETATM    7  C   UNL     1      -9.838  10.695  67.620  1.00  0.00    -0.191 A  
HETATM    8  C   UNL     1     -10.617   9.623  67.174  1.00  0.00    -0.298 A  
BRANCH   6   9
HETATM    9  C   UNL     1      -7.695  11.589  68.646  1.00  0.00    -0.139 C  
HETATM   10  O   UNL     1      -6.617  11.324  69.186  1.00  0.00    -0.070 OA 
BRANCH   9  11
HETATM   11  C   UNL     1      -8.189  13.015  68.577  1.00  0.00    -0.067 C  
BRANCH  11  12
HETATM   12  C   UNL     1      -7.328  13.939  67.755  1.00  0.00    -0.162 C  
HETATM   13  O   UNL     1      -6.277  13.581  67.228  1.00  0.00    -0.313 OA 
BRANCH  12  14
HETATM   14  C   UNL     1      -7.762  15.353  67.592  1.00  0.00    -0.180 A  
HETATM   15  C   UNL     1      -8.547  15.906  68.603  1.00  0.00    -0.198 A  
HETATM   16  C   UNL     1      -9.047  17.203  68.481  1.00  0.00    -0.265 A  
HETATM   17  C   UNL     1      -8.772  17.991  67.351  1.00  0.00    -0.248 A  
HETATM   18  C   UNL     1      -7.429  16.131  66.481  1.00  0.00    -0.110 A  
HETATM   19  C   UNL     1      -7.928  17.437  66.368  1.00  0.00    -0.325 A  
BRANCH  17  20
HETATM   20  C   UNL     1      -9.389  19.389  67.164  1.00  0.00    -0.390 C  
HETATM   21  C   UNL     1     -10.080  19.923  68.441  1.00  0.00    -0.557 C  
HETATM   22  C   UNL     1      -8.301  20.406  66.766  1.00  0.00    -0.273 C  
HETATM   23  C   UNL     1     -10.464  19.343  66.057  1.00  0.00    -0.596 C  
ENDBRANCH  17  20
ENDBRANCH  12  14
ENDBRANCH  11  12
ENDBRANCH   9  11
ENDBRANCH   6   9
ENDBRANCH   2   3
TORSDOF 6
ENDMDL
MODEL      173
REMARK 921   NORMALIZED FREE ENERGY PREDICTED BY IDOCK:   -3.90 KCAL/MOL
REMARK 922        TOTAL FREE ENERGY PREDICTED BY IDOCK:   -6.28 KCAL/MOL
REMARK 923 INTER-LIGAND FREE ENERGY PREDICTED BY IDOCK:   -5.57 KCAL/MOL
REMARK 924 INTRA-LIGAND FREE ENERGY PREDICTED BY IDOCK:   -0.71 KCAL/MOL
REMARK 927      BINDING AFFINITY PREDICTED BY RF-SCORE:    0.00 PKD
ROOT
HETATM    1  C   UNL     1      -9.766  19.095  68.309  1.00  0.00    -0.373 C  
HETATM    2  O   UNL     1     -10.823  18.155  68.485  1.00  0.00    -0.097 OA 
ENDROOT
BRANCH   2   3
HETATM    3  C   UNL     1     -10.561  16.895  68.023  1.00  0.00    -0.367 A  
HETATM    4  C   UNL     1     -11.412  15.892  68.486  1.00  0.00    -0.377 A  
HETATM    5  C   UNL     1     -11.225  14.564  68.089  1.00  0.00    -0.301 A  
HETATM    6  C   UNL     1     -10.186  14.231  67.209  1.00  0.00    -0.252 A  
HETATM    7  C   UNL     1      -9.354  15.247  66.727  1.00  0.00    -0.265 A  
HETATM    8  C   UNL     1      -9.548  16.573  67.123  1.00  0.00    -0.243 A  
BRANCH   6   9
HETATM    9  C   UNL     1     -10.005  12.795  66.829  1.00  0.00    -0.237 C  
HETATM   10  O   UNL     1     -10.275  12.433  65.682  1.00  0.00    -0.253 OA 
BRANCH   9  11
HETATM   11  C   UNL     1      -9.583  11.788  67.874  1.00  0.00    -0.187 C  
BRANCH  11  12
HETATM   12  C   UNL     1     -10.623  10.746  68.199  1.00  0.00    -0.203 C  
HETATM   13  O   UNL     1     -11.815  10.886  67.931  1.00  0.00    -0.590 OA 
BRANCH  12  14
HETATM   14  C   UNL     1     -10.188   9.504  68.893  1.00  0.00    -0.213 A  
HETATM   15  C   UNL     1      -9.506   8.550  68.138  1.00  0.00    -0.152 A  
HETATM   16  C   UNL     1      -9.132   7.333  68.708  1.00  0.00    -0.127 A  
HETATM   17  C   UNL     1      -9.420   7.032  70.049  1.00  0.00    -0.161 A  
HETATM   18  C   UNL     1     -10.442   9.254  70.243  1.00  0.00    -0.271 A  
HETATM   19  C   UNL     1     -10.056   8.032  70.812  1.00  0.00    -0.207 A  
BRANCH  17  20
HETATM   20  C   UNL     1      -9.091   5.660  70.665  1.00  0.00    -0.168 C  
HETATM   21  C   UNL     1      -7.733   5.636  71.404  1.00  0.00    -0.109 C  
HETATM   22  C   UNL     1     -10.178   5.253  71.680  1.00  0.00    -0.274 C  
HETATM   23  C   UNL     1      -9.016   4.592  69.552  1.00  0.00    -0.142 C  
ENDBRANCH  17  20
ENDBRANCH  12  14
ENDBRANCH  11  12
ENDBRANCH   9  11
ENDBRANCH   6   9
ENDBRANCH   2   3
TORSDOF 6
ENDMDL
MODEL      174
REMARK 921   NORMALIZED FREE ENERGY PREDICTED BY IDOCK:   -3.88 KCAL/MOL
REMARK 922        TOTAL FREE ENERGY PREDICTED BY IDOCK:   -6.25 KCAL/MOL
REMARK 923 INTER-LIGAND FREE ENERGY PREDICTED BY IDOCK:   -5.46 KCAL/MOL
REMARK 924 INTRA-LIGAND FREE ENERGY PREDICTED BY IDOCK:   -0.79 KCAL/MOL
REMARK 927      BINDING AFFINITY PREDICTED BY RF-SCORE:    0.00 PKD
ROOT
HETATM    1  C   UNL     1      -9.918   4.578  73.895  1.00  0.00    -0.159 C  
HETATM    2  O   UNL     1      -9.884   3.860  72.665  1.00  0.00    -0.136 OA 
ENDROOT
BRANCH   2   3
HETATM    3  C   UNL     1      -9.554   4.605  71.567  1.00  0.00    -0.163 A  
HETATM    4  C   UNL     1     -10.057   5.905  71.545  1.00  0.00    -0.238 A  
HETATM    5  C   UNL     1      -9.792   6.749  70.461  1.00  0.00    -0.187 A  
HETATM    6  C   UNL     1      -9.007   6.300  69.392  1.00  0.00    -0.126 A  
HETATM    7  C   UNL     1      -8.481   5.004  69.435  1.00  0.00    -0.087 A  
HETATM    8  C   UNL     1      -8.744   4.165  70.522  1.00  0.00    -0.121 A  
BRANCH   6   9
HETATM    9  C   UNL     1      -8.768   7.226  68.241  1.00  0.00    -0.125 C  
HETATM   10  O   UNL     1      -7.711   7.858  68.180  1.00  0.00    -0.119 OA 
BRANCH   9  11
HETATM   11  C   UNL     1      -9.857   7.448  67.217  1.00  0.00    -0.230 C  
BRANCH  11  12
HETATM   12  C   UNL     1      -9.431   8.244  66.010  1.00  0.00    -0.119 C  
HETATM   13  O   UNL     1      -8.708   7.785  65.128  1.00  0.00    -0.062 OA 
BRANCH  12  14
HETATM   14  C   UNL     1      -9.892   9.654  65.894  1.00  0.00    -0.358 A  
HETATM   15  C   UNL     1     -10.340  10.283  67.055  1.00  0.00    -0.299 A  
HETATM   16  C   UNL     1     -10.850  11.580  67.004  1.00  0.00    -0.320 A  
HETATM   17  C   UNL     1     -10.924  12.293  65.797  1.00  0.00    -0.338 A  
HETATM   18  C   UNL     1      -9.904  10.357  64.687  1.00  0.00    -0.405 A  
HETATM   19  C   UNL     1     -10.411  11.664  64.645  1.00  0.00    -0.354 A  
BRANCH  17  20
HETATM   20  C   UNL     1     -11.566  13.690  65.713  1.00  0.00    -0.349 C  
HETATM   21  C   UNL     1     -11.919  14.280  67.099  1.00  0.00    -0.449 C  
HETATM   22  C   UNL     1     -10.609  14.679  65.019  1.00  0.00    -0.461 C  
HETATM   23  C   UNL     1     -12.882  13.614  64.908  1.00  0.00    -0.256 C  
ENDBRANCH  17  20
ENDBRANCH  12  14
ENDBRANCH  11  12
ENDBRANCH   9  11
ENDBRANCH   6   9
ENDBRANCH   2   3
TORSDOF 6
ENDMDL
MODEL      175
REMARK 921   NORMALIZED FREE ENERGY PREDICTED BY IDOCK:   -3.87 KCAL/MOL
REMARK 922        TOTAL FREE ENERGY PREDICTED BY IDOCK:   -6.23 KCAL/MOL
REMARK 923 INTER-LIGAND FREE ENERGY PREDICTED BY IDOCK:   -5.35 KCAL/MOL
REMARK 924 INTRA-LIGAND FREE ENERGY PREDICTED BY IDOCK:   -0.88 KCAL/MOL
REMARK 927      BINDING AFFINITY PREDICTED BY RF-SCORE:    0.00 PKD
ROOT
HETATM    1  C   UNL     1     -11.938   6.794  71.006  1.00  0.00    -0.379 C  
HETATM    2  O   UNL     1     -10.931   5.838  70.683  1.00  0.00    -0.288 OA 
ENDROOT
BRANCH   2   3
HETATM    3  C   UNL     1     -10.140   6.166  69.618  1.00  0.00    -0.179 A  
HETATM    4  C   UNL     1     -10.803   6.697  68.512  1.00  0.00    -0.319 A  
HETATM    5  C   UNL     1     -10.091   7.053  67.362  1.00  0.00    -0.252 A  
HETATM    6  C   UNL     1      -8.700   6.891  67.315  1.00  0.00    -0.119 A  
HETATM    7  C   UNL     1      -8.038   6.384  68.439  1.00  0.00    -0.113 A  
HETATM    8  C   UNL     1      -8.753   6.035  69.588  1.00  0.00    -0.133 A  
BRANCH   6   9
HETATM    9  C   UNL     1      -7.980   7.261  66.057  1.00  0.00    -0.115 C  
HETATM   10  O   UNL     1      -7.906   6.442  65.137  1.00  0.00    -0.097 OA 
BRANCH   9  11
HETATM   11  C   UNL     1      -7.272   8.593  65.959  1.00  0.00    -0.084 C  
BRANCH  11  12
HETATM   12  C   UNL     1      -7.788   9.649  66.902  1.00  0.00    -0.102 C  
HETATM   13  O   UNL     1      -7.492   9.681  68.095  1.00  0.00    -0.081 OA 
BRANCH  12  14
HETATM   14  C   UNL     1      -8.712  10.685  66.368  1.00  0.00    -0.155 A  
HETATM   15  C   UNL     1      -8.650  11.958  66.935  1.00  0.00    -0.185 A  
HETATM   16  C   UNL     1      -9.535  12.956  66.531  1.00  0.00    -0.251 A  
HETATM   17  C   UNL     1     -10.506  12.720  65.543  1.00  0.00    -0.306 A  
HETATM   18  C   UNL     1      -9.632  10.436  65.347  1.00  0.00    -0.303 A  
HETATM   19  C   UNL     1     -10.514  11.447  64.939  1.00  0.00    -0.363 A  
BRANCH  17  20
HETATM   20  C   UNL     1     -11.545  13.786  65.151  1.00  0.00    -0.341 C  
HETATM   21  C   UNL     1     -12.089  13.604  63.715  1.00  0.00    -0.435 C  
HETATM   22  C   UNL     1     -12.750  13.739  66.112  1.00  0.00    -0.335 C  
HETATM   23  C   UNL     1     -10.905  15.190  65.216  1.00  0.00    -0.414 C  
ENDBRANCH  17  20
ENDBRANCH  12  14
ENDBRANCH  11  12
ENDBRANCH   9  11
ENDBRANCH   6   9
ENDBRANCH   2   3
TORSDOF 6
ENDMDL
MODEL      176
REMARK 921   NORMALIZED FREE ENERGY PREDICTED BY IDOCK:   -3.86 KCAL/MOL
REMARK 922        TOTAL FREE ENERGY PREDICTED BY IDOCK:   -6.22 KCAL/MOL
REMARK 923 INTER-LIGAND FREE ENERGY PREDICTED BY IDOCK:   -5.17 KCAL/MOL
REMARK 924 INTRA-LIGAND FREE ENERGY PREDICTED BY IDOCK:   -1.05 KCAL/MOL
REMARK 927      BINDING AFFINITY PREDICTED BY RF-SCORE:    0.00 PKD
ROOT
HETATM    1  C   UNL     1      -6.725   8.953  62.775  1.00  0.00    -0.094 C  
HETATM    2  O   UNL     1      -7.966   8.412  63.220  1.00  0.00    -0.149 OA 
ENDROOT
BRANCH   2   3
HETATM    3  C   UNL     1      -8.421   8.908  64.411  1.00  0.00    -0.153 A  
HETATM    4  C   UNL     1      -9.299   9.987  64.320  1.00  0.00    -0.345 A  
HETATM    5  C   UNL     1      -9.814  10.581  65.477  1.00  0.00    -0.324 A  
HETATM    6  C   UNL     1      -9.461  10.088  66.740  1.00  0.00    -0.209 A  
HETATM    7  C   UNL     1      -8.601   8.987  66.822  1.00  0.00    -0.129 A  
HETATM    8  C   UNL     1      -8.094   8.393  65.663  1.00  0.00    -0.125 A  
BRANCH   6   9
HETATM    9  C   UNL     1     -10.014  10.768  67.953  1.00  0.00    -0.174 C  
HETATM   10  O   UNL     1      -9.323  11.595  68.552  1.00  0.00    -0.195 OA 
BRANCH   9  11
HETATM   11  C   UNL     1     -11.372  10.372  68.484  1.00  0.00    -0.283 C  
BRANCH  11  12
HETATM   12  C   UNL     1     -11.447  10.246  69.984  1.00  0.00    -0.296 C  
HETATM   13  O   UNL     1     -11.924  11.120  70.705  1.00  0.00    -0.343 OA 
BRANCH  12  14
HETATM   14  C   UNL     1     -10.902   9.016  70.620  1.00  0.00    -0.295 A  
HETATM   15  C   UNL     1     -10.779   7.879  69.822  1.00  0.00    -0.233 A  
HETATM   16  C   UNL     1     -10.342   6.674  70.371  1.00  0.00    -0.231 A  
HETATM   17  C   UNL     1     -10.006   6.566  71.730  1.00  0.00    -0.192 A  
HETATM   18  C   UNL     1     -10.526   8.952  71.963  1.00  0.00    -0.383 A  
HETATM   19  C   UNL     1     -10.079   7.739  72.507  1.00  0.00    -0.301 A  
BRANCH  17  20
HETATM   20  C   UNL     1      -9.607   5.222  72.367  1.00  0.00    -0.175 C  
HETATM   21  C   UNL     1     -10.157   3.999  71.597  1.00  0.00    -0.183 C  
HETATM   22  C   UNL     1      -8.072   5.087  72.416  1.00  0.00    -0.109 C  
HETATM   23  C   UNL     1     -10.166   5.137  73.804  1.00  0.00    -0.246 C  
ENDBRANCH  17  20
ENDBRANCH  12  14
ENDBRANCH  11  12
ENDBRANCH   9  11
ENDBRANCH   6   9
ENDBRANCH   2   3
TORSDOF 6
ENDMDL
MODEL      177
REMARK 921   NORMALIZED FREE ENERGY PREDICTED BY IDOCK:   -3.86 KCAL/MOL
REMARK 922        TOTAL FREE ENERGY PREDICTED BY IDOCK:   -6.21 KCAL/MOL
REMARK 923 INTER-LIGAND FREE ENERGY PREDICTED BY IDOCK:   -5.09 KCAL/MOL
REMARK 924 INTRA-LIGAND FREE ENERGY PREDICTED BY IDOCK:   -1.12 KCAL/MOL
REMARK 927      BINDING AFFINITY PREDICTED BY RF-SCORE:    0.00 PKD
ROOT
HETATM    1  C   UNL     1      -9.594  15.810  66.123  1.00  0.00    -0.332 C  
HETATM    2  O   UNL     1     -10.180  16.584  67.167  1.00  0.00    -0.273 OA 
ENDROOT
BRANCH   2   3
HETATM    3  C   UNL     1     -10.755  15.858  68.173  1.00  0.00    -0.302 A  
HETATM    4  C   UNL     1     -11.564  14.798  67.769  1.00  0.00    -0.378 A  
HETATM    5  C   UNL     1     -12.214  14.000  68.716  1.00  0.00    -0.237 A  
HETATM    6  C   UNL     1     -12.046  14.251  70.084  1.00  0.00    -0.403 A  
HETATM    7  C   UNL     1     -11.209  15.299  70.483  1.00  0.00    -0.338 A  
HETATM    8  C   UNL     1     -10.558  16.091  69.533  1.00  0.00    -0.290 A  
BRANCH   6   9
HETATM    9  C   UNL     1     -12.778  13.389  71.064  1.00  0.00    -0.307 C  
HETATM   10  O   UNL     1     -13.728  13.860  71.694  1.00  0.00    -0.355 OA 
BRANCH   9  11
HETATM   11  C   UNL     1     -12.293  11.985  71.340  1.00  0.00    -0.093 C  
BRANCH  11  12
HETATM   12  C   UNL     1     -12.464  11.024  70.192  1.00  0.00    -0.269 C  
HETATM   13  O   UNL     1     -13.508  10.408  69.986  1.00  0.00     0.102 OA 
BRANCH  12  14
HETATM   14  C   UNL     1     -11.310  10.797  69.280  1.00  0.00    -0.352 A  
HETATM   15  C   UNL     1     -11.582  10.654  67.920  1.00  0.00    -0.132 A  
HETATM   16  C   UNL     1     -10.556  10.370  67.020  1.00  0.00    -0.305 A  
HETATM   17  C   UNL     1      -9.225  10.227  67.446  1.00  0.00    -0.155 A  
HETATM   18  C   UNL     1      -9.989  10.712  69.726  1.00  0.00    -0.002 A  
HETATM   19  C   UNL     1      -8.960  10.434  68.814  1.00  0.00    -0.157 A  
BRANCH  17  20
HETATM   20  C   UNL     1      -8.098   9.826  66.476  1.00  0.00    -0.116 C  
HETATM   21  C   UNL     1      -6.891  10.793  66.516  1.00  0.00    -0.130 C  
HETATM   22  C   UNL     1      -7.574   8.417  66.816  1.00  0.00    -0.090 C  
HETATM   23  C   UNL     1      -8.629   9.830  65.026  1.00  0.00    -0.178 C  
ENDBRANCH  17  20
ENDBRANCH  12  14
ENDBRANCH  11  12
ENDBRANCH   9  11
ENDBRANCH   6   9
ENDBRANCH   2   3
TORSDOF 6
ENDMDL
MODEL      178
REMARK 921   NORMALIZED FREE ENERGY PREDICTED BY IDOCK:   -3.84 KCAL/MOL
REMARK 922        TOTAL FREE ENERGY PREDICTED BY IDOCK:   -6.19 KCAL/MOL
REMARK 923 INTER-LIGAND FREE ENERGY PREDICTED BY IDOCK:   -5.30 KCAL/MOL
REMARK 924 INTRA-LIGAND FREE ENERGY PREDICTED BY IDOCK:   -0.89 KCAL/MOL
REMARK 927      BINDING AFFINITY PREDICTED BY RF-SCORE:    0.00 PKD
ROOT
HETATM    1  C   UNL     1      -8.193   3.695  67.918  1.00  0.00    -0.084 C  
HETATM    2  O   UNL     1      -9.488   4.017  67.418  1.00  0.00    -0.170 OA 
ENDROOT
BRANCH   2   3
HETATM    3  C   UNL     1      -9.702   5.346  67.175  1.00  0.00    -0.146 A  
HETATM    4  C   UNL     1      -8.805   5.953  66.297  1.00  0.00    -0.143 A  
HETATM    5  C   UNL     1      -8.924   7.313  65.991  1.00  0.00    -0.149 A  
HETATM    6  C   UNL     1      -9.955   8.076  66.554  1.00  0.00    -0.283 A  
HETATM    7  C   UNL     1     -10.868   7.453  67.412  1.00  0.00    -0.299 A  
HETATM    8  C   UNL     1     -10.749   6.093  67.711  1.00  0.00    -0.382 A  
BRANCH   6   9
HETATM    9  C   UNL     1     -10.030   9.532  66.220  1.00  0.00    -0.274 C  
HETATM   10  O   UNL     1      -9.291   9.993  65.347  1.00  0.00    -0.191 OA 
BRANCH   9  11
HETATM   11  C   UNL     1     -10.942  10.439  67.014  1.00  0.00    -0.222 C  
BRANCH  11  12
HETATM   12  C   UNL     1     -10.254  11.224  68.102  1.00  0.00    -0.180 C  
HETATM   13  O   UNL     1      -9.941  10.732  69.184  1.00  0.00    -0.208 OA 
BRANCH  12  14
HETATM   14  C   UNL     1      -9.961  12.663  67.860  1.00  0.00    -0.228 A  
HETATM   15  C   UNL     1     -10.850  13.598  68.389  1.00  0.00    -0.274 A  
HETATM   16  C   UNL     1     -10.674  14.959  68.141  1.00  0.00    -0.251 A  
HETATM   17  C   UNL     1      -9.603  15.431  67.364  1.00  0.00    -0.210 A  
HETATM   18  C   UNL     1      -8.858  13.106  67.127  1.00  0.00    -0.222 A  
HETATM   19  C   UNL     1      -8.683  14.476  66.888  1.00  0.00    -0.237 A  
BRANCH  17  20
HETATM   20  C   UNL     1      -9.448  16.921  67.010  1.00  0.00    -0.251 C  
HETATM   21  C   UNL     1      -8.037  17.277  66.486  1.00  0.00    -0.313 C  
HETATM   22  C   UNL     1     -10.462  17.322  65.920  1.00  0.00    -0.267 C  
HETATM   23  C   UNL     1      -9.693  17.786  68.266  1.00  0.00    -0.320 C  
ENDBRANCH  17  20
ENDBRANCH  12  14
ENDBRANCH  11  12
ENDBRANCH   9  11
ENDBRANCH   6   9
ENDBRANCH   2   3
TORSDOF 6
ENDMDL
MODEL      179
REMARK 921   NORMALIZED FREE ENERGY PREDICTED BY IDOCK:   -3.84 KCAL/MOL
REMARK 922        TOTAL FREE ENERGY PREDICTED BY IDOCK:   -6.18 KCAL/MOL
REMARK 923 INTER-LIGAND FREE ENERGY PREDICTED BY IDOCK:   -5.19 KCAL/MOL
REMARK 924 INTRA-LIGAND FREE ENERGY PREDICTED BY IDOCK:   -1.00 KCAL/MOL
REMARK 927      BINDING AFFINITY PREDICTED BY RF-SCORE:    0.00 PKD
ROOT
HETATM    1  C   UNL     1     -10.238  10.964  64.027  1.00  0.00    -0.357 C  
HETATM    2  O   UNL     1     -10.247  10.089  65.152  1.00  0.00    -0.288 OA 
ENDROOT
BRANCH   2   3
HETATM    3  C   UNL     1      -9.379  10.424  66.154  1.00  0.00    -0.172 A  
HETATM    4  C   UNL     1      -9.911  11.207  67.178  1.00  0.00    -0.212 A  
HETATM    5  C   UNL     1      -9.106  11.619  68.246  1.00  0.00    -0.187 A  
HETATM    6  C   UNL     1      -7.759  11.238  68.303  1.00  0.00    -0.122 A  
HETATM    7  C   UNL     1      -7.240  10.430  67.285  1.00  0.00    -0.089 A  
HETATM    8  C   UNL     1      -8.049  10.015  66.224  1.00  0.00    -0.117 A  
BRANCH   6   9
HETATM    9  C   UNL     1      -6.927  11.722  69.448  1.00  0.00    -0.026 C  
HETATM   10  O   UNL     1      -6.649  10.946  70.365  1.00  0.00    -0.273 OA 
BRANCH   9  11
HETATM   11  C   UNL     1      -6.514  13.174  69.518  1.00  0.00    -0.074 C  
BRANCH  11  12
HETATM   12  C   UNL     1      -6.334  13.840  68.178  1.00  0.00    -0.125 C  
HETATM   13  O   UNL     1      -5.625  13.373  67.289  1.00  0.00    -0.354 OA 
BRANCH  12  14
HETATM   14  C   UNL     1      -7.030  15.131  67.930  1.00  0.00    -0.167 A  
HETATM   15  C   UNL     1      -8.252  15.338  68.570  1.00  0.00    -0.146 A  
HETATM   16  C   UNL     1      -8.991  16.495  68.327  1.00  0.00    -0.214 A  
HETATM   17  C   UNL     1      -8.533  17.486  67.445  1.00  0.00    -0.222 A  
HETATM   18  C   UNL     1      -6.525  16.123  67.087  1.00  0.00    -0.184 A  
HETATM   19  C   UNL     1      -7.269  17.289  66.853  1.00  0.00    -0.235 A  
BRANCH  17  20
HETATM   20  C   UNL     1      -9.379  18.726  67.101  1.00  0.00    -0.315 C  
HETATM   21  C   UNL     1      -8.559  19.855  66.433  1.00  0.00    -0.386 C  
HETATM   22  C   UNL     1     -10.518  18.346  66.134  1.00  0.00    -0.422 C  
HETATM   23  C   UNL     1      -9.991  19.316  68.391  1.00  0.00    -0.502 C  
ENDBRANCH  17  20
ENDBRANCH  12  14
ENDBRANCH  11  12
ENDBRANCH   9  11
ENDBRANCH   6   9
ENDBRANCH   2   3
TORSDOF 6
ENDMDL
MODEL      180
REMARK 921   NORMALIZED FREE ENERGY PREDICTED BY IDOCK:   -3.83 KCAL/MOL
REMARK 922        TOTAL FREE ENERGY PREDICTED BY IDOCK:   -6.17 KCAL/MOL
REMARK 923 INTER-LIGAND FREE ENERGY PREDICTED BY IDOCK:   -5.17 KCAL/MOL
REMARK 924 INTRA-LIGAND FREE ENERGY PREDICTED BY IDOCK:   -1.01 KCAL/MOL
REMARK 927      BINDING AFFINITY PREDICTED BY RF-SCORE:    0.00 PKD
ROOT
HETATM    1  C   UNL     1      -7.452   1.716  64.262  1.00  0.00    -0.058 C  
HETATM    2  O   UNL     1      -6.899   2.550  65.277  1.00  0.00    -0.041 OA 
ENDROOT
BRANCH   2   3
HETATM    3  C   UNL     1      -7.790   3.385  65.891  1.00  0.00    -0.085 A  
HETATM    4  C   UNL     1      -7.969   4.629  65.287  1.00  0.00    -0.095 A  
HETATM    5  C   UNL     1      -8.847   5.567  65.841  1.00  0.00    -0.150 A  
HETATM    6  C   UNL     1      -9.565   5.260  67.004  1.00  0.00    -0.150 A  
HETATM    7  C   UNL     1      -9.401   3.999  67.589  1.00  0.00    -0.222 A  
HETATM    8  C   UNL     1      -8.527   3.063  67.028  1.00  0.00    -0.101 A  
BRANCH   6   9
HETATM    9  C   UNL     1     -10.474   6.300  67.578  1.00  0.00    -0.236 C  
HETATM   10  O   UNL     1     -11.518   6.586  66.988  1.00  0.00    -0.223 OA 
BRANCH   9  11
HETATM   11  C   UNL     1     -10.063   7.053  68.822  1.00  0.00    -0.170 C  
BRANCH  11  12
HETATM   12  C   UNL     1      -9.217   8.274  68.567  1.00  0.00    -0.136 C  
HETATM   13  O   UNL     1      -8.135   8.464  69.118  1.00  0.00    -0.114 OA 
BRANCH  12  14
HETATM   14  C   UNL     1      -9.726   9.303  67.620  1.00  0.00    -0.195 A  
HETATM   15  C   UNL     1      -9.220   9.290  66.321  1.00  0.00    -0.236 A  
HETATM   16  C   UNL     1      -9.601  10.268  65.404  1.00  0.00    -0.310 A  
HETATM   17  C   UNL     1     -10.504  11.286  65.750  1.00  0.00    -0.310 A  
HETATM   18  C   UNL     1     -10.666  10.272  67.978  1.00  0.00    -0.299 A  
HETATM   19  C   UNL     1     -11.052  11.249  67.048  1.00  0.00    -0.356 A  
BRANCH  17  20
HETATM   20  C   UNL     1     -10.865  12.422  64.774  1.00  0.00    -0.340 C  
HETATM   21  C   UNL     1     -10.327  12.186  63.343  1.00  0.00    -0.438 C  
HETATM   22  C   UNL     1     -12.395  12.578  64.674  1.00  0.00    -0.547 C  
HETATM   23  C   UNL     1     -10.255  13.751  65.271  1.00  0.00    -0.355 C  
ENDBRANCH  17  20
ENDBRANCH  12  14
ENDBRANCH  11  12
ENDBRANCH   9  11
ENDBRANCH   6   9
ENDBRANCH   2   3
TORSDOF 6
ENDMDL
MODEL      181
REMARK 921   NORMALIZED FREE ENERGY PREDICTED BY IDOCK:   -3.78 KCAL/MOL
REMARK 922        TOTAL FREE ENERGY PREDICTED BY IDOCK:   -6.11 KCAL/MOL
REMARK 923 INTER-LIGAND FREE ENERGY PREDICTED BY IDOCK:   -5.23 KCAL/MOL
REMARK 924 INTRA-LIGAND FREE ENERGY PREDICTED BY IDOCK:   -0.88 KCAL/MOL
REMARK 927      BINDING AFFINITY PREDICTED BY RF-SCORE:    0.00 PKD
ROOT
HETATM    1  C   UNL     1      -5.766   2.205  68.479  1.00  0.00    -0.022 C  
HETATM    2  O   UNL     1      -7.127   1.839  68.693  1.00  0.00    -0.039 OA 
ENDROOT
BRANCH   2   3
HETATM    3  C   UNL     1      -8.011   2.882  68.717  1.00  0.00    -0.056 A  
HETATM    4  C   UNL     1      -8.841   2.998  67.602  1.00  0.00    -0.160 A  
HETATM    5  C   UNL     1      -9.772   4.038  67.517  1.00  0.00    -0.177 A  
HETATM    6  C   UNL     1      -9.889   4.967  68.558  1.00  0.00    -0.216 A  
HETATM    7  C   UNL     1      -9.073   4.828  69.686  1.00  0.00    -0.163 A  
HETATM    8  C   UNL     1      -8.147   3.784  69.770  1.00  0.00    -0.062 A  
BRANCH   6   9
HETATM    9  C   UNL     1     -10.880   6.079  68.416  1.00  0.00    -0.281 C  
HETATM   10  O   UNL     1     -11.653   6.325  69.345  1.00  0.00    -0.403 OA 
BRANCH   9  11
HETATM   11  C   UNL     1     -10.987   6.828  67.108  1.00  0.00    -0.458 C  
BRANCH  11  12
HETATM   12  C   UNL     1     -10.018   7.973  66.958  1.00  0.00    -0.254 C  
HETATM   13  O   UNL     1      -8.900   7.840  66.463  1.00  0.00    -0.138 OA 
BRANCH  12  14
HETATM   14  C   UNL     1     -10.427   9.316  67.449  1.00  0.00    -0.340 A  
HETATM   15  C   UNL     1     -10.774  10.272  66.495  1.00  0.00    -0.148 A  
HETATM   16  C   UNL     1     -11.099  11.572  66.882  1.00  0.00    -0.366 A  
HETATM   17  C   UNL     1     -11.095  11.958  68.232  1.00  0.00    -0.289 A  
HETATM   18  C   UNL     1     -10.465   9.656  68.803  1.00  0.00    -0.238 A  
HETATM   19  C   UNL     1     -10.801  10.963  69.186  1.00  0.00    -0.280 A  
BRANCH  17  20
HETATM   20  C   UNL     1     -11.366  13.410  68.665  1.00  0.00    -0.322 C  
HETATM   21  C   UNL     1     -12.263  14.183  67.670  1.00  0.00    -0.231 C  
HETATM   22  C   UNL     1     -12.066  13.439  70.038  1.00  0.00    -0.404 C  
HETATM   23  C   UNL     1     -10.033  14.184  68.764  1.00  0.00    -0.184 C  
ENDBRANCH  17  20
ENDBRANCH  12  14
ENDBRANCH  11  12
ENDBRANCH   9  11
ENDBRANCH   6   9
ENDBRANCH   2   3
TORSDOF 6
ENDMDL
MODEL      182
REMARK 921   NORMALIZED FREE ENERGY PREDICTED BY IDOCK:   -3.78 KCAL/MOL
REMARK 922        TOTAL FREE ENERGY PREDICTED BY IDOCK:   -6.11 KCAL/MOL
REMARK 923 INTER-LIGAND FREE ENERGY PREDICTED BY IDOCK:   -4.67 KCAL/MOL
REMARK 924 INTRA-LIGAND FREE ENERGY PREDICTED BY IDOCK:   -1.44 KCAL/MOL
REMARK 927      BINDING AFFINITY PREDICTED BY RF-SCORE:    0.00 PKD
ROOT
HETATM    1  C   UNL     1      -9.544   3.844  66.201  1.00  0.00    -0.183 C  
HETATM    2  O   UNL     1      -9.575   5.053  65.448  1.00  0.00    -0.138 OA 
ENDROOT
BRANCH   2   3
HETATM    3  C   UNL     1      -9.024   6.139  66.071  1.00  0.00    -0.145 A  
HETATM    4  C   UNL     1      -8.526   5.912  67.354  1.00  0.00    -0.103 A  
HETATM    5  C   UNL     1      -7.955   6.957  68.087  1.00  0.00    -0.115 A  
HETATM    6  C   UNL     1      -7.864   8.241  67.534  1.00  0.00    -0.106 A  
HETATM    7  C   UNL     1      -8.341   8.454  66.235  1.00  0.00    -0.123 A  
HETATM    8  C   UNL     1      -8.906   7.406  65.504  1.00  0.00     0.002 A  
BRANCH   6   9
HETATM    9  C   UNL     1      -7.269   9.336  68.361  1.00  0.00    -0.076 C  
HETATM   10  O   UNL     1      -6.332   9.997  67.909  1.00  0.00    -0.057 OA 
BRANCH   9  11
HETATM   11  C   UNL     1      -7.758   9.562  69.774  1.00  0.00    -0.123 C  
BRANCH  11  12
HETATM   12  C   UNL     1      -9.219   9.916  69.884  1.00  0.00    -0.212 C  
HETATM   13  O   UNL     1      -9.938   9.508  70.794  1.00  0.00    -0.278 OA 
BRANCH  12  14
HETATM   14  C   UNL     1      -9.819  10.781  68.834  1.00  0.00    -0.209 A  
HETATM   15  C   UNL     1     -10.934  10.290  68.155  1.00  0.00    -0.328 A  
HETATM   16  C   UNL     1     -11.503  11.018  67.111  1.00  0.00    -0.099 A  
HETATM   17  C   UNL     1     -10.985  12.262  66.716  1.00  0.00    -0.321 A  
HETATM   18  C   UNL     1      -9.313  12.038  68.498  1.00  0.00    -0.127 A  
HETATM   19  C   UNL     1      -9.896  12.770  67.452  1.00  0.00    -0.210 A  
BRANCH  17  20
HETATM   20  C   UNL     1     -11.549  13.034  65.509  1.00  0.00    -0.382 C  
HETATM   21  C   UNL     1     -12.197  12.113  64.448  1.00  0.00    -0.435 C  
HETATM   22  C   UNL     1     -12.624  14.038  65.970  1.00  0.00    -0.452 C  
HETATM   23  C   UNL     1     -10.412  13.804  64.802  1.00  0.00    -0.448 C  
ENDBRANCH  17  20
ENDBRANCH  12  14
ENDBRANCH  11  12
ENDBRANCH   9  11
ENDBRANCH   6   9
ENDBRANCH   2   3
TORSDOF 6
ENDMDL
MODEL      183
REMARK 921   NORMALIZED FREE ENERGY PREDICTED BY IDOCK:   -3.72 KCAL/MOL
REMARK 922        TOTAL FREE ENERGY PREDICTED BY IDOCK:   -6.03 KCAL/MOL
REMARK 923 INTER-LIGAND FREE ENERGY PREDICTED BY IDOCK:   -5.74 KCAL/MOL
REMARK 924 INTRA-LIGAND FREE ENERGY PREDICTED BY IDOCK:   -0.29 KCAL/MOL
REMARK 927      BINDING AFFINITY PREDICTED BY RF-SCORE:    0.00 PKD
ROOT
HETATM    1  C   UNL     1      -9.924  14.498  65.775  1.00  0.00    -0.334 C  
HETATM    2  O   UNL     1     -10.102  13.085  65.803  1.00  0.00    -0.286 OA 
ENDROOT
BRANCH   2   3
HETATM    3  C   UNL     1     -10.698  12.597  66.933  1.00  0.00    -0.242 A  
HETATM    4  C   UNL     1     -10.239  11.356  67.371  1.00  0.00    -0.221 A  
HETATM    5  C   UNL     1     -10.791  10.758  68.509  1.00  0.00    -0.270 A  
HETATM    6  C   UNL     1     -11.803  11.407  69.228  1.00  0.00    -0.417 A  
HETATM    7  C   UNL     1     -12.239  12.665  68.797  1.00  0.00     0.018 A  
HETATM    8  C   UNL     1     -11.681  13.262  67.663  1.00  0.00    -0.408 A  
BRANCH   6   9
HETATM    9  C   UNL     1     -12.383  10.721  70.424  1.00  0.00    -0.353 C  
HETATM   10  O   UNL     1     -13.513  11.029  70.810  1.00  0.00     0.133 OA 
BRANCH   9  11
HETATM   11  C   UNL     1     -11.549   9.729  71.200  1.00  0.00    -0.469 C  
BRANCH  11  12
HETATM   12  C   UNL     1     -12.314   8.543  71.729  1.00  0.00    -0.338 C  
HETATM   13  O   UNL     1     -13.536   8.542  71.862  1.00  0.00    -0.359 OA 
BRANCH  12  14
HETATM   14  C   UNL     1     -11.552   7.328  72.126  1.00  0.00    -0.324 A  
HETATM   15  C   UNL     1     -11.261   6.396  71.130  1.00  0.00    -0.357 A  
HETATM   16  C   UNL     1     -10.612   5.203  71.445  1.00  0.00    -0.207 A  
HETATM   17  C   UNL     1     -10.226   4.904  72.762  1.00  0.00    -0.227 A  
HETATM   18  C   UNL     1     -11.134   7.081  73.436  1.00  0.00    -0.140 A  
HETATM   19  C   UNL     1     -10.475   5.883  73.745  1.00  0.00    -0.288 A  
BRANCH  17  20
HETATM   20  C   UNL     1      -9.589   3.554  73.138  1.00  0.00    -0.149 C  
HETATM   21  C   UNL     1      -8.160   3.696  73.714  1.00  0.00    -0.083 C  
HETATM   22  C   UNL     1     -10.445   2.833  74.197  1.00  0.00    -0.227 C  
HETATM   23  C   UNL     1      -9.481   2.659  71.883  1.00  0.00    -0.196 C  
ENDBRANCH  17  20
ENDBRANCH  12  14
ENDBRANCH  11  12
ENDBRANCH   9  11
ENDBRANCH   6   9
ENDBRANCH   2   3
TORSDOF 6
ENDMDL
MODEL      184
REMARK 921   NORMALIZED FREE ENERGY PREDICTED BY IDOCK:   -3.72 KCAL/MOL
REMARK 922        TOTAL FREE ENERGY PREDICTED BY IDOCK:   -6.02 KCAL/MOL
REMARK 923 INTER-LIGAND FREE ENERGY PREDICTED BY IDOCK:   -4.34 KCAL/MOL
REMARK 924 INTRA-LIGAND FREE ENERGY PREDICTED BY IDOCK:   -1.68 KCAL/MOL
REMARK 927      BINDING AFFINITY PREDICTED BY RF-SCORE:    0.00 PKD
ROOT
HETATM    1  C   UNL     1      -7.519   9.541  62.363  1.00  0.00    -0.104 C  
HETATM    2  O   UNL     1      -8.617   8.876  62.981  1.00  0.00    -0.197 OA 
ENDROOT
BRANCH   2   3
HETATM    3  C   UNL     1      -8.864   9.242  64.275  1.00  0.00    -0.148 A  
HETATM    4  C   UNL     1      -9.737  10.315  64.444  1.00  0.00    -0.381 A  
HETATM    5  C   UNL     1     -10.046  10.782  65.726  1.00  0.00    -0.320 A  
HETATM    6  C   UNL     1      -9.491  10.166  66.855  1.00  0.00    -0.203 A  
HETATM    7  C   UNL     1      -8.638   9.071  66.678  1.00  0.00    -0.134 A  
HETATM    8  C   UNL     1      -8.335   8.604  65.396  1.00  0.00    -0.165 A  
BRANCH   6   9
HETATM    9  C   UNL     1      -9.828  10.712  68.206  1.00  0.00    -0.163 C  
HETATM   10  O   UNL     1      -9.028  11.457  68.776  1.00  0.00    -0.159 OA 
BRANCH   9  11
HETATM   11  C   UNL     1     -11.099  10.275  68.898  1.00  0.00    -0.278 C  
BRANCH  11  12
HETATM   12  C   UNL     1     -10.901   9.263  69.997  1.00  0.00    -0.238 C  
HETATM   13  O   UNL     1     -11.144   9.502  71.178  1.00  0.00    -0.322 OA 
BRANCH  12  14
HETATM   14  C   UNL     1     -10.367   7.922  69.636  1.00  0.00    -0.216 A  
HETATM   15  C   UNL     1      -9.136   7.552  70.177  1.00  0.00    -0.147 A  
HETATM   16  C   UNL     1      -8.545   6.339  69.825  1.00  0.00    -0.137 A  
HETATM   17  C   UNL     1      -9.165   5.453  68.928  1.00  0.00    -0.147 A  
HETATM   18  C   UNL     1     -11.032   7.039  68.782  1.00  0.00    -0.150 A  
HETATM   19  C   UNL     1     -10.436   5.817  68.439  1.00  0.00    -0.283 A  
BRANCH  17  20
HETATM   20  C   UNL     1      -8.483   4.153  68.464  1.00  0.00    -0.105 C  
HETATM   21  C   UNL     1      -7.843   3.356  69.625  1.00  0.00    -0.053 C  
HETATM   22  C   UNL     1      -9.506   3.228  67.775  1.00  0.00    -0.217 C  
HETATM   23  C   UNL     1      -7.351   4.483  67.467  1.00  0.00    -0.073 C  
ENDBRANCH  17  20
ENDBRANCH  12  14
ENDBRANCH  11  12
ENDBRANCH   9  11
ENDBRANCH   6   9
ENDBRANCH   2   3
TORSDOF 6
ENDMDL
MODEL      185
REMARK 921   NORMALIZED FREE ENERGY PREDICTED BY IDOCK:   -3.71 KCAL/MOL
REMARK 922        TOTAL FREE ENERGY PREDICTED BY IDOCK:   -6.02 KCAL/MOL
REMARK 923 INTER-LIGAND FREE ENERGY PREDICTED BY IDOCK:   -4.76 KCAL/MOL
REMARK 924 INTRA-LIGAND FREE ENERGY PREDICTED BY IDOCK:   -1.26 KCAL/MOL
REMARK 927      BINDING AFFINITY PREDICTED BY RF-SCORE:    0.00 PKD
ROOT
HETATM    1  C   UNL     1      -9.513  15.072  65.600  1.00  0.00    -0.144 C  
HETATM    2  O   UNL     1      -9.240  16.106  66.541  1.00  0.00    -0.228 OA 
ENDROOT
BRANCH   2   3
HETATM    3  C   UNL     1      -9.790  15.924  67.780  1.00  0.00    -0.222 A  
HETATM    4  C   UNL     1     -11.172  16.085  67.857  1.00  0.00    -0.276 A  
HETATM    5  C   UNL     1     -11.836  15.936  69.080  1.00  0.00    -0.328 A  
HETATM    6  C   UNL     1     -11.118  15.610  70.238  1.00  0.00    -0.361 A  
HETATM    7  C   UNL     1      -9.734  15.423  70.146  1.00  0.00     0.091 A  
HETATM    8  C   UNL     1      -9.076  15.567  68.922  1.00  0.00    -0.219 A  
BRANCH   6   9
HETATM    9  C   UNL     1     -11.862  15.485  71.529  1.00  0.00    -0.406 C  
HETATM   10  O   UNL     1     -12.184  16.504  72.145  1.00  0.00    -0.359 OA 
BRANCH   9  11
HETATM   11  C   UNL     1     -12.132  14.117  72.112  1.00  0.00     0.050 C  
BRANCH  11  12
HETATM   12  C   UNL     1     -12.887  13.184  71.201  1.00  0.00    -0.264 C  
HETATM   13  O   UNL     1     -13.994  13.452  70.739  1.00  0.00     0.687 OA 
BRANCH  12  14
HETATM   14  C   UNL     1     -12.272  11.872  70.864  1.00  0.00    -0.351 A  
HETATM   15  C   UNL     1     -11.603  11.768  69.644  1.00  0.00    -0.393 A  
HETATM   16  C   UNL     1     -11.065  10.549  69.234  1.00  0.00    -0.298 A  
HETATM   17  C   UNL     1     -11.170   9.397  70.030  1.00  0.00    -0.217 A  
HETATM   18  C   UNL     1     -12.347  10.755  71.699  1.00  0.00    -0.292 A  
HETATM   19  C   UNL     1     -11.796   9.534  71.285  1.00  0.00    -0.450 A  
BRANCH  17  20
HETATM   20  C   UNL     1     -10.657   8.026  69.550  1.00  0.00    -0.216 C  
HETATM   21  C   UNL     1     -10.271   8.013  68.052  1.00  0.00    -0.260 C  
HETATM   22  C   UNL     1      -9.410   7.609  70.353  1.00  0.00    -0.160 C  
HETATM   23  C   UNL     1     -11.758   6.960  69.740  1.00  0.00    -0.142 C  
ENDBRANCH  17  20
ENDBRANCH  12  14
ENDBRANCH  11  12
ENDBRANCH   9  11
ENDBRANCH   6   9
ENDBRANCH   2   3
TORSDOF 6
ENDMDL
MODEL      186
REMARK 921   NORMALIZED FREE ENERGY PREDICTED BY IDOCK:   -3.65 KCAL/MOL
REMARK 922        TOTAL FREE ENERGY PREDICTED BY IDOCK:   -5.93 KCAL/MOL
REMARK 923 INTER-LIGAND FREE ENERGY PREDICTED BY IDOCK:   -5.07 KCAL/MOL
REMARK 924 INTRA-LIGAND FREE ENERGY PREDICTED BY IDOCK:   -0.86 KCAL/MOL
REMARK 927      BINDING AFFINITY PREDICTED BY RF-SCORE:    0.00 PKD
ROOT
HETATM    1  C   UNL     1      -9.535   1.775  68.314  1.00  0.00    -0.180 C  
HETATM    2  O   UNL     1      -9.189   2.896  69.123  1.00  0.00    -0.131 OA 
ENDROOT
BRANCH   2   3
HETATM    3  C   UNL     1      -9.177   4.099  68.473  1.00  0.00    -0.145 A  
HETATM    4  C   UNL     1      -8.409   5.099  69.066  1.00  0.00    -0.087 A  
HETATM    5  C   UNL     1      -8.339   6.373  68.493  1.00  0.00    -0.113 A  
HETATM    6  C   UNL     1      -9.031   6.653  67.307  1.00  0.00    -0.115 A  
HETATM    7  C   UNL     1      -9.778   5.635  66.703  1.00  0.00    -0.176 A  
HETATM    8  C   UNL     1      -9.840   4.362  67.276  1.00  0.00    -0.207 A  
BRANCH   6   9
HETATM    9  C   UNL     1      -8.950   8.035  66.741  1.00  0.00    -0.144 C  
HETATM   10  O   UNL     1      -7.845   8.549  66.552  1.00  0.00    -0.093 OA 
BRANCH   9  11
HETATM   11  C   UNL     1     -10.216   8.821  66.492  1.00  0.00    -0.314 C  
BRANCH  11  12
HETATM   12  C   UNL     1     -10.588   9.781  67.593  1.00  0.00    -0.276 C  
HETATM   13  O   UNL     1     -11.007   9.410  68.688  1.00  0.00    -0.150 OA 
BRANCH  12  14
HETATM   14  C   UNL     1     -10.459  11.240  67.334  1.00  0.00    -0.247 A  
HETATM   15  C   UNL     1     -11.635  11.980  67.219  1.00  0.00    -0.383 A  
HETATM   16  C   UNL     1     -11.588  13.338  66.907  1.00  0.00    -0.408 A  
HETATM   17  C   UNL     1     -10.368  14.003  66.708  1.00  0.00    -0.271 A  
HETATM   18  C   UNL     1      -9.229  11.885  67.193  1.00  0.00    -0.183 A  
HETATM   19  C   UNL     1      -9.188  13.254  66.887  1.00  0.00    -0.242 A  
BRANCH  17  20
HETATM   20  C   UNL     1     -10.306  15.480  66.277  1.00  0.00    -0.312 C  
HETATM   21  C   UNL     1     -10.955  16.439  67.302  1.00  0.00    -0.118 C  
HETATM   22  C   UNL     1      -8.841  15.924  66.091  1.00  0.00    -0.363 C  
HETATM   23  C   UNL     1     -11.061  15.669  64.943  1.00  0.00    -0.414 C  
ENDBRANCH  17  20
ENDBRANCH  12  14
ENDBRANCH  11  12
ENDBRANCH   9  11
ENDBRANCH   6   9
ENDBRANCH   2   3
TORSDOF 6
ENDMDL
MODEL      187
REMARK 921   NORMALIZED FREE ENERGY PREDICTED BY IDOCK:   -3.63 KCAL/MOL
REMARK 922        TOTAL FREE ENERGY PREDICTED BY IDOCK:   -5.91 KCAL/MOL
REMARK 923 INTER-LIGAND FREE ENERGY PREDICTED BY IDOCK:   -5.11 KCAL/MOL
REMARK 924 INTRA-LIGAND FREE ENERGY PREDICTED BY IDOCK:   -0.80 KCAL/MOL
REMARK 927      BINDING AFFINITY PREDICTED BY RF-SCORE:    0.00 PKD
ROOT
HETATM    1  C   UNL     1      -8.652  18.343  66.182  1.00  0.00    -0.112 C  
HETATM    2  O   UNL     1      -9.991  18.184  65.720  1.00  0.00    -0.547 OA 
ENDROOT
BRANCH   2   3
HETATM    3  C   UNL     1     -10.410  16.889  65.591  1.00  0.00    -0.237 A  
HETATM    4  C   UNL     1     -10.341  16.113  66.748  1.00  0.00    -0.291 A  
HETATM    5  C   UNL     1     -10.731  14.770  66.725  1.00  0.00    -0.309 A  
HETATM    6  C   UNL     1     -11.208  14.194  65.541  1.00  0.00    -0.317 A  
HETATM    7  C   UNL     1     -11.301  14.986  64.391  1.00  0.00    -0.207 A  
HETATM    8  C   UNL     1     -10.915  16.329  64.420  1.00  0.00     0.103 A  
BRANCH   6   9
HETATM    9  C   UNL     1     -11.591  12.748  65.553  1.00  0.00    -0.362 C  
HETATM   10  O   UNL     1     -12.417  12.332  64.737  1.00  0.00    -0.454 OA 
BRANCH   9  11
HETATM   11  C   UNL     1     -11.036  11.832  66.618  1.00  0.00    -0.342 C  
BRANCH  11  12
HETATM   12  C   UNL     1      -9.806  11.063  66.207  1.00  0.00    -0.215 C  
HETATM   13  O   UNL     1      -9.128  11.362  65.227  1.00  0.00    -0.178 OA 
BRANCH  12  14
HETATM   14  C   UNL     1      -9.409   9.877  67.014  1.00  0.00    -0.175 A  
HETATM   15  C   UNL     1      -9.884   8.632  66.604  1.00  0.00    -0.336 A  
HETATM   16  C   UNL     1      -9.609   7.489  67.354  1.00  0.00    -0.187 A  
HETATM   17  C   UNL     1      -8.846   7.550  68.532  1.00  0.00    -0.126 A  
HETATM   18  C   UNL     1      -8.605   9.962  68.152  1.00  0.00    -0.118 A  
HETATM   19  C   UNL     1      -8.325   8.807  68.898  1.00  0.00    -0.127 A  
BRANCH  17  20
HETATM   20  C   UNL     1      -8.609   6.311  69.415  1.00  0.00    -0.125 C  
HETATM   21  C   UNL     1      -7.808   5.199  68.698  1.00  0.00    -0.079 C  
HETATM   22  C   UNL     1      -7.827   6.700  70.686  1.00  0.00    -0.106 C  
HETATM   23  C   UNL     1      -9.964   5.696  69.827  1.00  0.00    -0.264 C  
ENDBRANCH  17  20
ENDBRANCH  12  14
ENDBRANCH  11  12
ENDBRANCH   9  11
ENDBRANCH   6   9
ENDBRANCH   2   3
TORSDOF 6
ENDMDL
MODEL      188
REMARK 921   NORMALIZED FREE ENERGY PREDICTED BY IDOCK:   -3.57 KCAL/MOL
REMARK 922        TOTAL FREE ENERGY PREDICTED BY IDOCK:   -5.82 KCAL/MOL
REMARK 923 INTER-LIGAND FREE ENERGY PREDICTED BY IDOCK:   -5.05 KCAL/MOL
REMARK 924 INTRA-LIGAND FREE ENERGY PREDICTED BY IDOCK:   -0.77 KCAL/MOL
REMARK 927      BINDING AFFINITY PREDICTED BY RF-SCORE:    0.00 PKD
ROOT
HETATM    1  C   UNL     1      -8.791   1.968  72.355  1.00  0.00    -0.066 C  
HETATM    2  O   UNL     1      -8.813   1.908  70.932  1.00  0.00    -0.052 OA 
ENDROOT
BRANCH   2   3
HETATM    3  C   UNL     1      -8.840   3.120  70.300  1.00  0.00    -0.083 A  
HETATM    4  C   UNL     1      -7.746   3.400  69.481  1.00  0.00    -0.050 A  
HETATM    5  C   UNL     1      -7.664   4.619  68.800  1.00  0.00    -0.072 A  
HETATM    6  C   UNL     1      -8.688   5.566  68.923  1.00  0.00    -0.102 A  
HETATM    7  C   UNL     1      -9.796   5.267  69.724  1.00  0.00    -0.282 A  
HETATM    8  C   UNL     1      -9.876   4.046  70.399  1.00  0.00    -0.209 A  
BRANCH   6   9
HETATM    9  C   UNL     1      -8.550   6.867  68.197  1.00  0.00    -0.123 C  
HETATM   10  O   UNL     1      -8.242   6.866  67.003  1.00  0.00    -0.117 OA 
BRANCH   9  11
HETATM   11  C   UNL     1      -8.697   8.168  68.951  1.00  0.00    -0.137 C  
BRANCH  11  12
HETATM   12  C   UNL     1     -10.067   8.792  68.867  1.00  0.00    -0.198 C  
HETATM   13  O   UNL     1     -10.998   8.459  69.597  1.00  0.00    -0.200 OA 
BRANCH  12  14
HETATM   14  C   UNL     1     -10.304   9.843  67.841  1.00  0.00    -0.256 A  
HETATM   15  C   UNL     1     -10.689  11.106  68.291  1.00  0.00    -0.234 A  
HETATM   16  C   UNL     1     -10.996  12.117  67.380  1.00  0.00    -0.308 A  
HETATM   17  C   UNL     1     -10.922  11.903  65.994  1.00  0.00    -0.355 A  
HETATM   18  C   UNL     1     -10.172   9.616  66.470  1.00  0.00    -0.294 A  
HETATM   19  C   UNL     1     -10.474  10.640  65.560  1.00  0.00    -0.246 A  
BRANCH  17  20
HETATM   20  C   UNL     1     -11.343  12.983  64.980  1.00  0.00    -0.325 C  
HETATM   21  C   UNL     1     -12.792  13.480  65.189  1.00  0.00    -0.381 C  
HETATM   22  C   UNL     1     -10.413  14.208  65.085  1.00  0.00    -0.422 C  
HETATM   23  C   UNL     1     -11.265  12.413  63.547  1.00  0.00    -0.540 C  
ENDBRANCH  17  20
ENDBRANCH  12  14
ENDBRANCH  11  12
ENDBRANCH   9  11
ENDBRANCH   6   9
ENDBRANCH   2   3
TORSDOF 6
ENDMDL
MODEL      189
REMARK 921   NORMALIZED FREE ENERGY PREDICTED BY IDOCK:   -3.55 KCAL/MOL
REMARK 922        TOTAL FREE ENERGY PREDICTED BY IDOCK:   -5.80 KCAL/MOL
REMARK 923 INTER-LIGAND FREE ENERGY PREDICTED BY IDOCK:   -5.34 KCAL/MOL
REMARK 924 INTRA-LIGAND FREE ENERGY PREDICTED BY IDOCK:   -0.46 KCAL/MOL
REMARK 927      BINDING AFFINITY PREDICTED BY RF-SCORE:    0.00 PKD
ROOT
HETATM    1  C   UNL     1      -7.078  18.381  66.222  1.00  0.00    -0.252 C  
HETATM    2  O   UNL     1      -8.152  17.908  67.031  1.00  0.00    -0.210 OA 
ENDROOT
BRANCH   2   3
HETATM    3  C   UNL     1      -8.994  17.022  66.417  1.00  0.00    -0.275 A  
HETATM    4  C   UNL     1     -10.314  17.446  66.270  1.00  0.00    -0.330 A  
HETATM    5  C   UNL     1     -11.263  16.612  65.669  1.00  0.00     0.292 A  
HETATM    6  C   UNL     1     -10.892  15.346  65.196  1.00  0.00    -0.447 A  
HETATM    7  C   UNL     1      -9.559  14.939  65.323  1.00  0.00     0.036 A  
HETATM    8  C   UNL     1      -8.613  15.778  65.919  1.00  0.00     0.164 A  
BRANCH   6   9
HETATM    9  C   UNL     1     -11.943  14.476  64.583  1.00  0.00    -0.468 C  
HETATM   10  O   UNL     1     -12.186  14.576  63.378  1.00  0.00    -0.412 OA 
BRANCH   9  11
HETATM   11  C   UNL     1     -12.757  13.551  65.458  1.00  0.00    -0.493 C  
BRANCH  11  12
HETATM   12  C   UNL     1     -11.943  12.654  66.354  1.00  0.00    -0.357 C  
HETATM   13  O   UNL     1     -12.026  12.680  67.580  1.00  0.00    -0.354 OA 
BRANCH  12  14
HETATM   14  C   UNL     1     -10.981  11.709  65.725  1.00  0.00    -0.329 A  
HETATM   15  C   UNL     1     -10.480  10.677  66.518  1.00  0.00    -0.285 A  
HETATM   16  C   UNL     1      -9.522   9.798  66.013  1.00  0.00    -0.269 A  
HETATM   17  C   UNL     1      -9.039   9.916  64.699  1.00  0.00    -0.288 A  
HETATM   18  C   UNL     1     -10.558  11.819  64.399  1.00  0.00    -0.368 A  
HETATM   19  C   UNL     1      -9.600  10.927  63.894  1.00  0.00    -0.326 A  
BRANCH  17  20
HETATM   20  C   UNL     1      -7.918   9.008  64.159  1.00  0.00    -0.144 C  
HETATM   21  C   UNL     1      -6.650   9.791  63.744  1.00  0.00    -0.119 C  
HETATM   22  C   UNL     1      -7.499   7.980  65.228  1.00  0.00    -0.080 C  
HETATM   23  C   UNL     1      -8.414   8.256  62.904  1.00  0.00    -0.021 C  
ENDBRANCH  17  20
ENDBRANCH  12  14
ENDBRANCH  11  12
ENDBRANCH   9  11
ENDBRANCH   6   9
ENDBRANCH   2   3
TORSDOF 6
ENDMDL
MODEL      190
REMARK 921   NORMALIZED FREE ENERGY PREDICTED BY IDOCK:   -3.54 KCAL/MOL
REMARK 922        TOTAL FREE ENERGY PREDICTED BY IDOCK:   -5.78 KCAL/MOL
REMARK 923 INTER-LIGAND FREE ENERGY PREDICTED BY IDOCK:   -4.73 KCAL/MOL
REMARK 924 INTRA-LIGAND FREE ENERGY PREDICTED BY IDOCK:   -1.05 KCAL/MOL
REMARK 927      BINDING AFFINITY PREDICTED BY RF-SCORE:    0.00 PKD
ROOT
HETATM    1  C   UNL     1      -7.340   7.952  74.523  1.00  0.00    -0.170 C  
HETATM    2  O   UNL     1      -6.788   8.608  73.385  1.00  0.00    -0.274 OA 
ENDROOT
BRANCH   2   3
HETATM    3  C   UNL     1      -7.358   8.271  72.188  1.00  0.00    -0.102 A  
HETATM    4  C   UNL     1      -8.205   7.163  72.212  1.00  0.00    -0.108 A  
HETATM    5  C   UNL     1      -8.829   6.723  71.040  1.00  0.00    -0.141 A  
HETATM    6  C   UNL     1      -8.619   7.400  69.832  1.00  0.00    -0.140 A  
HETATM    7  C   UNL     1      -7.790   8.527  69.822  1.00  0.00    -0.094 A  
HETATM    8  C   UNL     1      -7.173   8.967  70.996  1.00  0.00    -0.114 A  
BRANCH   6   9
HETATM    9  C   UNL     1      -9.285   6.881  68.597  1.00  0.00    -0.130 C  
HETATM   10  O   UNL     1      -8.845   5.867  68.051  1.00  0.00    -0.111 OA 
BRANCH   9  11
HETATM   11  C   UNL     1     -10.430   7.651  67.980  1.00  0.00    -0.247 C  
BRANCH  11  12
HETATM   12  C   UNL     1     -10.050   8.495  66.790  1.00  0.00    -0.299 C  
HETATM   13  O   UNL     1      -9.622   8.016  65.741  1.00  0.00     0.007 OA 
BRANCH  12  14
HETATM   14  C   UNL     1     -10.182   9.973  66.898  1.00  0.00    -0.299 A  
HETATM   15  C   UNL     1      -9.280  10.754  66.176  1.00  0.00    -0.202 A  
HETATM   16  C   UNL     1      -9.303  12.144  66.286  1.00  0.00    -0.221 A  
HETATM   17  C   UNL     1     -10.228  12.799  67.115  1.00  0.00    -0.235 A  
HETATM   18  C   UNL     1     -11.147  10.598  67.689  1.00  0.00    -0.385 A  
HETATM   19  C   UNL     1     -11.170  11.997  67.790  1.00  0.00    -0.331 A  
BRANCH  17  20
HETATM   20  C   UNL     1     -10.206  14.326  67.314  1.00  0.00    -0.252 C  
HETATM   21  C   UNL     1     -11.612  14.967  67.249  1.00  0.00    -0.337 C  
HETATM   22  C   UNL     1      -9.599  14.679  68.686  1.00  0.00    -0.219 C  
HETATM   23  C   UNL     1      -9.359  14.986  66.204  1.00  0.00    -0.327 C  
ENDBRANCH  17  20
ENDBRANCH  12  14
ENDBRANCH  11  12
ENDBRANCH   9  11
ENDBRANCH   6   9
ENDBRANCH   2   3
TORSDOF 6
ENDMDL
MODEL      191
REMARK 921   NORMALIZED FREE ENERGY PREDICTED BY IDOCK:   -3.53 KCAL/MOL
REMARK 922        TOTAL FREE ENERGY PREDICTED BY IDOCK:   -5.77 KCAL/MOL
REMARK 923 INTER-LIGAND FREE ENERGY PREDICTED BY IDOCK:   -4.54 KCAL/MOL
REMARK 924 INTRA-LIGAND FREE ENERGY PREDICTED BY IDOCK:   -1.23 KCAL/MOL
REMARK 927      BINDING AFFINITY PREDICTED BY RF-SCORE:    0.00 PKD
ROOT
HETATM    1  C   UNL     1      -9.924   6.477  70.742  1.00  0.00    -0.184 C  
HETATM    2  O   UNL     1      -9.491   5.321  70.029  1.00  0.00    -0.143 OA 
ENDROOT
BRANCH   2   3
HETATM    3  C   UNL     1      -9.061   5.554  68.752  1.00  0.00    -0.118 A  
HETATM    4  C   UNL     1      -8.573   6.836  68.503  1.00  0.00    -0.125 A  
HETATM    5  C   UNL     1      -8.121   7.186  67.226  1.00  0.00    -0.115 A  
HETATM    6  C   UNL     1      -8.143   6.247  66.187  1.00  0.00    -0.116 A  
HETATM    7  C   UNL     1      -8.609   4.954  66.452  1.00  0.00    -0.110 A  
HETATM    8  C   UNL     1      -9.053   4.607  67.731  1.00  0.00    -0.136 A  
BRANCH   6   9
HETATM    9  C   UNL     1      -7.675   6.670  64.831  1.00  0.00    -0.109 C  
HETATM   10  O   UNL     1      -7.846   5.917  63.868  1.00  0.00    -0.106 OA 
BRANCH   9  11
HETATM   11  C   UNL     1      -6.918   7.967  64.667  1.00  0.00    -0.071 C  
BRANCH  11  12
HETATM   12  C   UNL     1      -7.552   8.948  63.714  1.00  0.00    -0.121 C  
HETATM   13  O   UNL     1      -7.319   8.953  62.507  1.00  0.00    -0.100 OA 
BRANCH  12  14
HETATM   14  C   UNL     1      -8.485   9.968  64.264  1.00  0.00    -0.179 A  
HETATM   15  C   UNL     1      -8.101  10.630  65.430  1.00  0.00    -0.106 A  
HETATM   16  C   UNL     1      -8.959  11.546  66.038  1.00  0.00    -0.181 A  
HETATM   17  C   UNL     1     -10.223  11.837  65.499  1.00  0.00    -0.291 A  
HETATM   18  C   UNL     1      -9.714  10.275  63.677  1.00  0.00    -0.276 A  
HETATM   19  C   UNL     1     -10.569  11.204  64.289  1.00  0.00    -0.425 A  
BRANCH  17  20
HETATM   20  C   UNL     1     -11.213  12.780  66.208  1.00  0.00    -0.339 C  
HETATM   21  C   UNL     1     -11.664  12.257  67.592  1.00  0.00    -0.403 C  
HETATM   22  C   UNL     1     -10.574  14.166  66.422  1.00  0.00    -0.280 C  
HETATM   23  C   UNL     1     -12.488  12.940  65.350  1.00  0.00    -0.511 C  
ENDBRANCH  17  20
ENDBRANCH  12  14
ENDBRANCH  11  12
ENDBRANCH   9  11
ENDBRANCH   6   9
ENDBRANCH   2   3
TORSDOF 6
ENDMDL
MODEL      192
REMARK 921   NORMALIZED FREE ENERGY PREDICTED BY IDOCK:   -3.52 KCAL/MOL
REMARK 922        TOTAL FREE ENERGY PREDICTED BY IDOCK:   -5.76 KCAL/MOL
REMARK 923 INTER-LIGAND FREE ENERGY PREDICTED BY IDOCK:   -4.90 KCAL/MOL
REMARK 924 INTRA-LIGAND FREE ENERGY PREDICTED BY IDOCK:   -0.85 KCAL/MOL
REMARK 927      BINDING AFFINITY PREDICTED BY RF-SCORE:    0.00 PKD
ROOT
HETATM    1  C   UNL     1      -9.017  15.263  67.475  1.00  0.00    -0.185 C  
HETATM    2  O   UNL     1      -7.815  14.502  67.407  1.00  0.00    -0.180 OA 
ENDROOT
BRANCH   2   3
HETATM    3  C   UNL     1      -7.985  13.145  67.414  1.00  0.00    -0.171 A  
HETATM    4  C   UNL     1      -9.305  12.702  67.500  1.00  0.00    -0.188 A  
HETATM    5  C   UNL     1      -9.592  11.333  67.530  1.00  0.00    -0.181 A  
HETATM    6  C   UNL     1      -8.556  10.393  67.459  1.00  0.00    -0.125 A  
HETATM    7  C   UNL     1      -7.237  10.845  67.344  1.00  0.00    -0.094 A  
HETATM    8  C   UNL     1      -6.955  12.214  67.310  1.00  0.00    -0.148 A  
BRANCH   6   9
HETATM    9  C   UNL     1      -8.905   8.940  67.519  1.00  0.00    -0.130 C  
HETATM   10  O   UNL     1      -8.034   8.097  67.289  1.00  0.00    -0.110 OA 
BRANCH   9  11
HETATM   11  C   UNL     1     -10.335   8.519  67.770  1.00  0.00    -0.298 C  
BRANCH  11  12
HETATM   12  C   UNL     1     -10.591   7.041  67.616  1.00  0.00    -0.257 C  
HETATM   13  O   UNL     1     -10.894   6.525  66.542  1.00  0.00    -0.194 OA 
BRANCH  12  14
HETATM   14  C   UNL     1     -10.492   6.176  68.821  1.00  0.00    -0.295 A  
HETATM   15  C   UNL     1     -11.078   6.640  69.998  1.00  0.00    -0.394 A  
HETATM   16  C   UNL     1     -10.962   5.912  71.182  1.00  0.00    -0.327 A  
HETATM   17  C   UNL     1     -10.264   4.694  71.228  1.00  0.00    -0.205 A  
HETATM   18  C   UNL     1      -9.836   4.943  68.825  1.00  0.00    -0.231 A  
HETATM   19  C   UNL     1      -9.730   4.211  70.017  1.00  0.00    -0.282 A  
BRANCH  17  20
HETATM   20  C   UNL     1     -10.053   3.926  72.545  1.00  0.00    -0.232 C  
HETATM   21  C   UNL     1     -11.012   4.377  73.672  1.00  0.00    -0.374 C  
HETATM   22  C   UNL     1     -10.274   2.416  72.327  1.00  0.00    -0.207 C  
HETATM   23  C   UNL     1      -8.615   4.154  73.060  1.00  0.00    -0.100 C  
ENDBRANCH  17  20
ENDBRANCH  12  14
ENDBRANCH  11  12
ENDBRANCH   9  11
ENDBRANCH   6   9
ENDBRANCH   2   3
TORSDOF 6
ENDMDL
MODEL      193
REMARK 921   NORMALIZED FREE ENERGY PREDICTED BY IDOCK:   -3.52 KCAL/MOL
REMARK 922        TOTAL FREE ENERGY PREDICTED BY IDOCK:   -5.75 KCAL/MOL
REMARK 923 INTER-LIGAND FREE ENERGY PREDICTED BY IDOCK:   -4.95 KCAL/MOL
REMARK 924 INTRA-LIGAND FREE ENERGY PREDICTED BY IDOCK:   -0.80 KCAL/MOL
REMARK 927      BINDING AFFINITY PREDICTED BY RF-SCORE:    0.00 PKD
ROOT
HETATM    1  C   UNL     1     -10.262   5.906  66.692  1.00  0.00    -0.205 C  
HETATM    2  O   UNL     1      -9.215   6.765  66.250  1.00  0.00    -0.163 OA 
ENDROOT
BRANCH   2   3
HETATM    3  C   UNL     1      -9.447   8.101  66.423  1.00  0.00    -0.218 A  
HETATM    4  C   UNL     1      -9.178   8.910  65.320  1.00  0.00    -0.158 A  
HETATM    5  C   UNL     1      -9.367  10.294  65.394  1.00  0.00    -0.258 A  
HETATM    6  C   UNL     1      -9.842  10.880  66.575  1.00  0.00    -0.245 A  
HETATM    7  C   UNL     1     -10.136  10.058  67.668  1.00  0.00    -0.232 A  
HETATM    8  C   UNL     1      -9.951   8.675  67.588  1.00  0.00    -0.248 A  
BRANCH   6   9
HETATM    9  C   UNL     1     -10.006  12.366  66.619  1.00  0.00    -0.225 C  
HETATM   10  O   UNL     1     -10.588  12.941  65.696  1.00  0.00    -0.269 OA 
BRANCH   9  11
HETATM   11  C   UNL     1      -9.379  13.158  67.744  1.00  0.00    -0.206 C  
BRANCH  11  12
HETATM   12  C   UNL     1      -7.940  13.543  67.516  1.00  0.00    -0.181 C  
HETATM   13  O   UNL     1      -7.081  12.738  67.163  1.00  0.00    -0.116 OA 
BRANCH  12  14
HETATM   14  C   UNL     1      -7.540  14.957  67.748  1.00  0.00    -0.171 A  
HETATM   15  C   UNL     1      -8.543  15.862  68.095  1.00  0.00    -0.169 A  
HETATM   16  C   UNL     1      -8.249  17.216  68.258  1.00  0.00    -0.230 A  
HETATM   17  C   UNL     1      -6.946  17.709  68.087  1.00  0.00    -0.210 A  
HETATM   18  C   UNL     1      -6.225  15.410  67.622  1.00  0.00    -0.167 A  
HETATM   19  C   UNL     1      -5.935  16.771  67.796  1.00  0.00    -0.152 A  
BRANCH  17  20
HETATM   20  C   UNL     1      -6.625  19.212  68.178  1.00  0.00    -0.253 C  
HETATM   21  C   UNL     1      -6.325  19.683  69.620  1.00  0.00    -0.366 C  
HETATM   22  C   UNL     1      -5.393  19.551  67.315  1.00  0.00    -0.165 C  
HETATM   23  C   UNL     1      -7.832  20.035  67.677  1.00  0.00    -0.341 C  
ENDBRANCH  17  20
ENDBRANCH  12  14
ENDBRANCH  11  12
ENDBRANCH   9  11
ENDBRANCH   6   9
ENDBRANCH   2   3
TORSDOF 6
ENDMDL
MODEL      194
REMARK 921   NORMALIZED FREE ENERGY PREDICTED BY IDOCK:   -3.51 KCAL/MOL
REMARK 922        TOTAL FREE ENERGY PREDICTED BY IDOCK:   -5.75 KCAL/MOL
REMARK 923 INTER-LIGAND FREE ENERGY PREDICTED BY IDOCK:   -4.47 KCAL/MOL
REMARK 924 INTRA-LIGAND FREE ENERGY PREDICTED BY IDOCK:   -1.29 KCAL/MOL
REMARK 927      BINDING AFFINITY PREDICTED BY RF-SCORE:    0.00 PKD
ROOT
HETATM    1  C   UNL     1     -12.778  11.658  63.021  1.00  0.00     0.293 C  
HETATM    2  O   UNL     1     -13.150  12.257  64.259  1.00  0.00    -0.746 OA 
ENDROOT
BRANCH   2   3
HETATM    3  C   UNL     1     -12.303  13.231  64.711  1.00  0.00    -0.402 A  
HETATM    4  C   UNL     1     -11.254  12.792  65.519  1.00  0.00    -0.329 A  
HETATM    5  C   UNL     1     -10.337  13.706  66.048  1.00  0.00    -0.305 A  
HETATM    6  C   UNL     1     -10.455  15.072  65.759  1.00  0.00    -0.353 A  
HETATM    7  C   UNL     1     -11.493  15.501  64.924  1.00  0.00    -0.279 A  
HETATM    8  C   UNL     1     -12.404  14.583  64.394  1.00  0.00    -0.437 A  
BRANCH   6   9
HETATM    9  C   UNL     1      -9.468  16.019  66.365  1.00  0.00    -0.293 C  
HETATM   10  O   UNL     1      -8.718  16.665  65.630  1.00  0.00    -0.428 OA 
BRANCH   9  11
HETATM   11  C   UNL     1      -9.336  16.108  67.868  1.00  0.00    -0.212 C  
BRANCH  11  12
HETATM   12  C   UNL     1      -8.028  15.597  68.415  1.00  0.00    -0.136 C  
HETATM   13  O   UNL     1      -7.234  16.311  69.023  1.00  0.00    -0.178 OA 
BRANCH  12  14
HETATM   14  C   UNL     1      -7.677  14.169  68.191  1.00  0.00    -0.140 A  
HETATM   15  C   UNL     1      -8.511  13.204  68.756  1.00  0.00     0.142 A  
HETATM   16  C   UNL     1      -8.202  11.849  68.644  1.00  0.00    -0.072 A  
HETATM   17  C   UNL     1      -7.055  11.412  67.961  1.00  0.00    -0.074 A  
HETATM   18  C   UNL     1      -6.558  13.762  67.462  1.00  0.00    -0.113 A  
HETATM   19  C   UNL     1      -6.257  12.397  67.347  1.00  0.00    -0.158 A  
BRANCH  17  20
HETATM   20  C   UNL     1      -6.656   9.926  67.907  1.00  0.00    -0.064 C  
HETATM   21  C   UNL     1      -5.270   9.693  67.260  1.00  0.00    -0.035 C  
HETATM   22  C   UNL     1      -6.609   9.331  69.328  1.00  0.00    -0.049 C  
HETATM   23  C   UNL     1      -7.684   9.138  67.065  1.00  0.00    -0.098 C  
ENDBRANCH  17  20
ENDBRANCH  12  14
ENDBRANCH  11  12
ENDBRANCH   9  11
ENDBRANCH   6   9
ENDBRANCH   2   3
TORSDOF 6
ENDMDL
MODEL      195
REMARK 921   NORMALIZED FREE ENERGY PREDICTED BY IDOCK:   -3.50 KCAL/MOL
REMARK 922        TOTAL FREE ENERGY PREDICTED BY IDOCK:   -5.73 KCAL/MOL
REMARK 923 INTER-LIGAND FREE ENERGY PREDICTED BY IDOCK:   -5.02 KCAL/MOL
REMARK 924 INTRA-LIGAND FREE ENERGY PREDICTED BY IDOCK:   -0.71 KCAL/MOL
REMARK 927      BINDING AFFINITY PREDICTED BY RF-SCORE:    0.00 PKD
ROOT
HETATM    1  C   UNL     1      -8.504  19.840  68.454  1.00  0.00    -0.254 C  
HETATM    2  O   UNL     1      -7.433  19.080  67.903  1.00  0.00    -0.243 OA 
ENDROOT
BRANCH   2   3
HETATM    3  C   UNL     1      -7.532  17.727  68.076  1.00  0.00    -0.226 A  
HETATM    4  C   UNL     1      -6.324  17.035  68.139  1.00  0.00    -0.143 A  
HETATM    5  C   UNL     1      -6.310  15.645  68.299  1.00  0.00    -0.118 A  
HETATM    6  C   UNL     1      -7.513  14.936  68.411  1.00  0.00    -0.115 A  
HETATM    7  C   UNL     1      -8.721  15.641  68.375  1.00  0.00    -0.178 A  
HETATM    8  C   UNL     1      -8.730  17.030  68.221  1.00  0.00    -0.241 A  
BRANCH   6   9
HETATM    9  C   UNL     1      -7.455  13.448  68.556  1.00  0.00    -0.118 C  
HETATM   10  O   UNL     1      -6.430  12.921  68.995  1.00  0.00    -0.092 OA 
BRANCH   9  11
HETATM   11  C   UNL     1      -8.612  12.600  68.079  1.00  0.00    -0.189 C  
BRANCH  11  12
HETATM   12  C   UNL     1      -8.330  11.120  68.037  1.00  0.00    -0.134 C  
HETATM   13  O   UNL     1      -7.574  10.607  67.215  1.00  0.00    -0.096 OA 
BRANCH  12  14
HETATM   14  C   UNL     1      -9.015  10.241  69.022  1.00  0.00    -0.175 A  
HETATM   15  C   UNL     1     -10.376   9.998  68.832  1.00  0.00    -0.217 A  
HETATM   16  C   UNL     1     -11.095   9.241  69.757  1.00  0.00    -0.168 A  
HETATM   17  C   UNL     1     -10.479   8.696  70.895  1.00  0.00    -0.265 A  
HETATM   18  C   UNL     1      -8.365   9.668  70.117  1.00  0.00    -0.221 A  
HETATM   19  C   UNL     1      -9.093   8.901  71.039  1.00  0.00    -0.303 A  
BRANCH  17  20
HETATM   20  C   UNL     1     -11.279   7.933  71.967  1.00  0.00    -0.339 C  
HETATM   21  C   UNL     1     -10.524   7.806  73.311  1.00  0.00    -0.358 C  
HETATM   22  C   UNL     1     -12.614   8.651  72.252  1.00  0.00    -0.457 C  
HETATM   23  C   UNL     1     -11.574   6.498  71.478  1.00  0.00    -0.366 C  
ENDBRANCH  17  20
ENDBRANCH  12  14
ENDBRANCH  11  12
ENDBRANCH   9  11
ENDBRANCH   6   9
ENDBRANCH   2   3
TORSDOF 6
ENDMDL
MODEL      196
REMARK 921   NORMALIZED FREE ENERGY PREDICTED BY IDOCK:   -3.49 KCAL/MOL
REMARK 922        TOTAL FREE ENERGY PREDICTED BY IDOCK:   -5.72 KCAL/MOL
REMARK 923 INTER-LIGAND FREE ENERGY PREDICTED BY IDOCK:   -4.70 KCAL/MOL
REMARK 924 INTRA-LIGAND FREE ENERGY PREDICTED BY IDOCK:   -1.02 KCAL/MOL
REMARK 927      BINDING AFFINITY PREDICTED BY RF-SCORE:    0.00 PKD
ROOT
HETATM    1  C   UNL     1     -11.617  16.063  69.272  1.00  0.00    -0.331 C  
HETATM    2  O   UNL     1     -11.931  15.313  68.102  1.00  0.00    -0.271 OA 
ENDROOT
BRANCH   2   3
HETATM    3  C   UNL     1     -11.051  14.309  67.803  1.00  0.00    -0.280 A  
HETATM    4  C   UNL     1      -9.721  14.549  68.144  1.00  0.00    -0.219 A  
HETATM    5  C   UNL     1      -8.735  13.596  67.870  1.00  0.00    -0.184 A  
HETATM    6  C   UNL     1      -9.078  12.382  67.260  1.00  0.00    -0.187 A  
HETATM    7  C   UNL     1     -10.419  12.137  66.946  1.00  0.00    -0.250 A  
HETATM    8  C   UNL     1     -11.402  13.090  67.227  1.00  0.00    -0.348 A  
BRANCH   6   9
HETATM    9  C   UNL     1      -7.990  11.400  66.960  1.00  0.00    -0.158 C  
HETATM   10  O   UNL     1      -7.164  11.124  67.834  1.00  0.00    -0.085 OA 
BRANCH   9  11
HETATM   11  C   UNL     1      -7.857  10.826  65.569  1.00  0.00    -0.041 C  
BRANCH  11  12
HETATM   12  C   UNL     1      -8.759   9.652  65.285  1.00  0.00    -0.160 C  
HETATM   13  O   UNL     1      -9.335   9.497  64.210  1.00  0.00    -0.197 OA 
BRANCH  12  14
HETATM   14  C   UNL     1      -8.976   8.648  66.362  1.00  0.00    -0.197 A  
HETATM   15  C   UNL     1      -7.878   7.889  66.765  1.00  0.00    -0.103 A  
HETATM   16  C   UNL     1      -8.027   6.883  67.719  1.00  0.00    -0.114 A  
HETATM   17  C   UNL     1      -9.272   6.607  68.307  1.00  0.00    -0.121 A  
HETATM   18  C   UNL     1     -10.216   8.432  66.966  1.00  0.00    -0.377 A  
HETATM   19  C   UNL     1     -10.357   7.425  67.931  1.00  0.00    -0.258 A  
BRANCH  17  20
HETATM   20  C   UNL     1      -9.467   5.443  69.295  1.00  0.00    -0.179 C  
HETATM   21  C   UNL     1     -10.757   5.572  70.138  1.00  0.00    -0.348 C  
HETATM   22  C   UNL     1      -9.540   4.102  68.537  1.00  0.00    -0.192 C  
HETATM   23  C   UNL     1      -8.284   5.395  70.287  1.00  0.00    -0.101 C  
ENDBRANCH  17  20
ENDBRANCH  12  14
ENDBRANCH  11  12
ENDBRANCH   9  11
ENDBRANCH   6   9
ENDBRANCH   2   3
TORSDOF 6
ENDMDL
MODEL      197
REMARK 921   NORMALIZED FREE ENERGY PREDICTED BY IDOCK:   -3.49 KCAL/MOL
REMARK 922        TOTAL FREE ENERGY PREDICTED BY IDOCK:   -5.72 KCAL/MOL
REMARK 923 INTER-LIGAND FREE ENERGY PREDICTED BY IDOCK:   -4.70 KCAL/MOL
REMARK 924 INTRA-LIGAND FREE ENERGY PREDICTED BY IDOCK:   -1.02 KCAL/MOL
REMARK 927      BINDING AFFINITY PREDICTED BY RF-SCORE:    0.00 PKD
ROOT
HETATM    1  C   UNL     1      -7.142  16.494  67.013  1.00  0.00    -0.212 C  
HETATM    2  O   UNL     1      -6.620  15.183  67.209  1.00  0.00    -0.293 OA 
ENDROOT
BRANCH   2   3
HETATM    3  C   UNL     1      -7.552  14.226  67.503  1.00  0.00    -0.184 A  
HETATM    4  C   UNL     1      -8.882  14.601  67.324  1.00  0.00    -0.220 A  
HETATM    5  C   UNL     1      -9.917  13.704  67.610  1.00  0.00    -0.239 A  
HETATM    6  C   UNL     1      -9.625  12.413  68.068  1.00  0.00    -0.211 A  
HETATM    7  C   UNL     1      -8.286  12.034  68.219  1.00  0.00    -0.163 A  
HETATM    8  C   UNL     1      -7.255  12.932  67.926  1.00  0.00    -0.125 A  
BRANCH   6   9
HETATM    9  C   UNL     1     -10.761  11.494  68.386  1.00  0.00    -0.208 C  
HETATM   10  O   UNL     1     -11.421  11.678  69.411  1.00  0.00    -0.261 OA 
BRANCH   9  11
HETATM   11  C   UNL     1     -11.031  10.298  67.502  1.00  0.00    -0.344 C  
BRANCH  11  12
HETATM   12  C   UNL     1     -10.044   9.169  67.653  1.00  0.00    -0.220 C  
HETATM   13  O   UNL     1      -9.346   8.764  66.725  1.00  0.00    -0.157 OA 
BRANCH  12  14
HETATM   14  C   UNL     1      -9.925   8.505  68.978  1.00  0.00    -0.197 A  
HETATM   15  C   UNL     1      -8.642   8.204  69.436  1.00  0.00    -0.135 A  
HETATM   16  C   UNL     1      -8.462   7.519  70.637  1.00  0.00    -0.132 A  
HETATM   17  C   UNL     1      -9.554   7.118  71.423  1.00  0.00    -0.163 A  
HETATM   18  C   UNL     1     -11.028   8.165  69.765  1.00  0.00    -0.133 A  
HETATM   19  C   UNL     1     -10.839   7.483  70.976  1.00  0.00    -0.249 A  
BRANCH  17  20
HETATM   20  C   UNL     1      -9.373   6.285  72.706  1.00  0.00    -0.144 C  
HETATM   21  C   UNL     1      -9.836   4.818  72.546  1.00  0.00    -0.204 C  
HETATM   22  C   UNL     1      -7.889   6.260  73.123  1.00  0.00    -0.106 C  
HETATM   23  C   UNL     1     -10.207   6.899  73.851  1.00  0.00    -0.401 C  
ENDBRANCH  17  20
ENDBRANCH  12  14
ENDBRANCH  11  12
ENDBRANCH   9  11
ENDBRANCH   6   9
ENDBRANCH   2   3
TORSDOF 6
ENDMDL
MODEL      198
REMARK 921   NORMALIZED FREE ENERGY PREDICTED BY IDOCK:   -3.46 KCAL/MOL
REMARK 922        TOTAL FREE ENERGY PREDICTED BY IDOCK:   -5.68 KCAL/MOL
REMARK 923 INTER-LIGAND FREE ENERGY PREDICTED BY IDOCK:   -4.65 KCAL/MOL
REMARK 924 INTRA-LIGAND FREE ENERGY PREDICTED BY IDOCK:   -1.03 KCAL/MOL
REMARK 927      BINDING AFFINITY PREDICTED BY RF-SCORE:    0.00 PKD
ROOT
HETATM    1  C   UNL     1      -9.131  12.779  68.075  1.00  0.00    -0.207 C  
HETATM    2  O   UNL     1     -10.518  12.515  68.261  1.00  0.00    -0.221 OA 
ENDROOT
BRANCH   2   3
HETATM    3  C   UNL     1     -10.803  11.383  68.973  1.00  0.00    -0.219 A  
HETATM    4  C   UNL     1     -11.698  11.542  70.030  1.00  0.00    -0.414 A  
HETATM    5  C   UNL     1     -12.047  10.451  70.834  1.00  0.00    -0.477 A  
HETATM    6  C   UNL     1     -11.510   9.184  70.575  1.00  0.00    -0.271 A  
HETATM    7  C   UNL     1     -10.634   9.026  69.496  1.00  0.00    -0.231 A  
HETATM    8  C   UNL     1     -10.292  10.117  68.692  1.00  0.00    -0.208 A  
BRANCH   6   9
HETATM    9  C   UNL     1     -11.890   8.049  71.474  1.00  0.00    -0.292 C  
HETATM   10  O   UNL     1     -12.712   7.217  71.085  1.00  0.00    -0.367 OA 
BRANCH   9  11
HETATM   11  C   UNL     1     -11.335   7.984  72.878  1.00  0.00    -0.364 C  
BRANCH  11  12
HETATM   12  C   UNL     1      -9.834   7.860  72.956  1.00  0.00    -0.289 C  
HETATM   13  O   UNL     1      -9.086   8.833  73.023  1.00  0.00    -0.279 OA 
BRANCH  12  14
HETATM   14  C   UNL     1      -9.234   6.499  72.930  1.00  0.00    -0.143 A  
HETATM   15  C   UNL     1      -8.961   5.892  74.155  1.00  0.00    -0.123 A  
HETATM   16  C   UNL     1      -8.334   4.647  74.203  1.00  0.00    -0.103 A  
HETATM   17  C   UNL     1      -7.967   3.965  73.032  1.00  0.00    -0.083 A  
HETATM   18  C   UNL     1      -8.928   5.821  71.748  1.00  0.00    -0.143 A  
HETATM   19  C   UNL     1      -8.305   4.566  71.803  1.00  0.00    -0.108 A  
BRANCH  17  20
HETATM   20  C   UNL     1      -7.197   2.632  73.073  1.00  0.00    -0.040 C  
HETATM   21  C   UNL     1      -7.970   1.506  73.798  1.00  0.00    -0.041 C  
HETATM   22  C   UNL     1      -6.897   2.142  71.642  1.00  0.00    -0.027 C  
HETATM   23  C   UNL     1      -5.863   2.822  73.829  1.00  0.00     0.000 C  
ENDBRANCH  17  20
ENDBRANCH  12  14
ENDBRANCH  11  12
ENDBRANCH   9  11
ENDBRANCH   6   9
ENDBRANCH   2   3
TORSDOF 6
ENDMDL
MODEL      199
REMARK 921   NORMALIZED FREE ENERGY PREDICTED BY IDOCK:   -3.46 KCAL/MOL
REMARK 922        TOTAL FREE ENERGY PREDICTED BY IDOCK:   -5.68 KCAL/MOL
REMARK 923 INTER-LIGAND FREE ENERGY PREDICTED BY IDOCK:   -4.75 KCAL/MOL
REMARK 924 INTRA-LIGAND FREE ENERGY PREDICTED BY IDOCK:   -0.93 KCAL/MOL
REMARK 927      BINDING AFFINITY PREDICTED BY RF-SCORE:    0.00 PKD
ROOT
HETATM    1  C   UNL     1      -6.665   9.832  63.207  1.00  0.00    -0.118 C  
HETATM    2  O   UNL     1      -6.646   9.352  64.549  1.00  0.00    -0.083 OA 
ENDROOT
BRANCH   2   3
HETATM    3  C   UNL     1      -7.644   9.833  65.351  1.00  0.00    -0.121 A  
HETATM    4  C   UNL     1      -8.811  10.225  64.696  1.00  0.00    -0.220 A  
HETATM    5  C   UNL     1      -9.889  10.746  65.419  1.00  0.00    -0.317 A  
HETATM    6  C   UNL     1      -9.812  10.866  66.813  1.00  0.00    -0.231 A  
HETATM    7  C   UNL     1      -8.648  10.445  67.466  1.00  0.00    -0.125 A  
HETATM    8  C   UNL     1      -7.575   9.920  66.740  1.00  0.00    -0.095 A  
BRANCH   6   9
HETATM    9  C   UNL     1     -10.977  11.452  67.545  1.00  0.00    -0.260 C  
HETATM   10  O   UNL     1     -11.961  11.839  66.910  1.00  0.00    -0.605 OA 
BRANCH   9  11
HETATM   11  C   UNL     1     -10.903  11.647  69.042  1.00  0.00    -0.247 C  
BRANCH  11  12
HETATM   12  C   UNL     1     -11.509  10.529  69.852  1.00  0.00    -0.310 C  
HETATM   13  O   UNL     1     -12.668  10.553  70.260  1.00  0.00    -0.310 OA 
BRANCH  12  14
HETATM   14  C   UNL     1     -10.658   9.357  70.189  1.00  0.00    -0.279 A  
HETATM   15  C   UNL     1      -9.281   9.563  70.271  1.00  0.00    -0.303 A  
HETATM   16  C   UNL     1      -8.419   8.494  70.513  1.00  0.00    -0.143 A  
HETATM   17  C   UNL     1      -8.902   7.187  70.687  1.00  0.00    -0.149 A  
HETATM   18  C   UNL     1     -11.171   8.077  70.409  1.00  0.00    -0.230 A  
HETATM   19  C   UNL     1     -10.300   7.008  70.660  1.00  0.00    -0.223 A  
BRANCH  17  20
HETATM   20  C   UNL     1      -7.956   5.985  70.866  1.00  0.00    -0.115 C  
HETATM   21  C   UNL     1      -7.498   5.787  72.330  1.00  0.00    -0.096 C  
HETATM   22  C   UNL     1      -8.651   4.684  70.418  1.00  0.00    -0.108 C  
HETATM   23  C   UNL     1      -6.681   6.192  70.020  1.00  0.00    -0.056 C  
ENDBRANCH  17  20
ENDBRANCH  12  14
ENDBRANCH  11  12
ENDBRANCH   9  11
ENDBRANCH   6   9
ENDBRANCH   2   3
TORSDOF 6
ENDMDL
MODEL      200
REMARK 921   NORMALIZED FREE ENERGY PREDICTED BY IDOCK:   -3.37 KCAL/MOL
REMARK 922        TOTAL FREE ENERGY PREDICTED BY IDOCK:   -5.55 KCAL/MOL
REMARK 923 INTER-LIGAND FREE ENERGY PREDICTED BY IDOCK:   -4.20 KCAL/MOL
REMARK 924 INTRA-LIGAND FREE ENERGY PREDICTED BY IDOCK:   -1.35 KCAL/MOL
REMARK 927      BINDING AFFINITY PREDICTED BY RF-SCORE:    0.00 PKD
ROOT
HETATM    1  C   UNL     1     -12.677  12.116  64.277  1.00  0.00    -0.264 C  
HETATM    2  O   UNL     1     -12.462  12.397  65.657  1.00  0.00    -0.640 OA 
ENDROOT
BRANCH   2   3
HETATM    3  C   UNL     1     -11.474  13.306  65.918  1.00  0.00    -0.332 A  
HETATM    4  C   UNL     1     -10.345  12.803  66.563  1.00  0.00    -0.262 A  
HETATM    5  C   UNL     1      -9.281  13.649  66.891  1.00  0.00    -0.257 A  
HETATM    6  C   UNL     1      -9.334  15.010  66.563  1.00  0.00    -0.309 A  
HETATM    7  C   UNL     1     -10.459  15.502  65.891  1.00  0.00    -0.356 A  
HETATM    8  C   UNL     1     -11.518  14.651  65.560  1.00  0.00    -0.341 A  
BRANCH   6   9
HETATM    9  C   UNL     1      -8.186  15.885  66.954  1.00  0.00    -0.248 C  
HETATM   10  O   UNL     1      -7.719  16.677  66.132  1.00  0.00    -0.289 OA 
BRANCH   9  11
HETATM   11  C   UNL     1      -7.551  15.729  68.316  1.00  0.00    -0.127 C  
BRANCH  11  12
HETATM   12  C   UNL     1      -6.182  15.096  68.303  1.00  0.00    -0.119 C  
HETATM   13  O   UNL     1      -5.146  15.748  68.189  1.00  0.00    -0.099 OA 
BRANCH  12  14
HETATM   14  C   UNL     1      -6.085  13.616  68.413  1.00  0.00    -0.096 A  
HETATM   15  C   UNL     1      -5.461  12.933  67.370  1.00  0.00    -0.006 A  
HETATM   16  C   UNL     1      -5.398  11.539  67.375  1.00  0.00    -0.066 A  
HETATM   17  C   UNL     1      -5.949  10.784  68.422  1.00  0.00    -0.043 A  
HETATM   18  C   UNL     1      -6.597  12.894  69.493  1.00  0.00    -0.029 A  
HETATM   19  C   UNL     1      -6.523  11.494  69.496  1.00  0.00    -0.124 A  
BRANCH  17  20
HETATM   20  C   UNL     1      -5.964   9.245  68.397  1.00  0.00    -0.045 C  
HETATM   21  C   UNL     1      -7.390   8.653  68.304  1.00  0.00    -0.087 C  
HETATM   22  C   UNL     1      -5.166   8.721  67.186  1.00  0.00    -0.033 C  
HETATM   23  C   UNL     1      -5.331   8.693  69.693  1.00  0.00    -0.030 C  
ENDBRANCH  17  20
ENDBRANCH  12  14
ENDBRANCH  11  12
ENDBRANCH   9  11
ENDBRANCH   6   9
ENDBRANCH   2   3
TORSDOF 6
ENDMDL
MODEL      201
REMARK 921   NORMALIZED FREE ENERGY PREDICTED BY IDOCK:   -3.37 KCAL/MOL
REMARK 922        TOTAL FREE ENERGY PREDICTED BY IDOCK:   -5.55 KCAL/MOL
REMARK 923 INTER-LIGAND FREE ENERGY PREDICTED BY IDOCK:   -4.73 KCAL/MOL
REMARK 924 INTRA-LIGAND FREE ENERGY PREDICTED BY IDOCK:   -0.82 KCAL/MOL
REMARK 927      BINDING AFFINITY PREDICTED BY RF-SCORE:    0.00 PKD
ROOT
HETATM    1  C   UNL     1     -12.115  14.850  64.354  1.00  0.00    -0.401 C  
HETATM    2  O   UNL     1     -12.227  13.718  63.497  1.00  0.00    -0.594 OA 
ENDROOT
BRANCH   2   3
HETATM    3  C   UNL     1     -11.462  12.642  63.854  1.00  0.00    -0.442 A  
HETATM    4  C   UNL     1     -11.664  12.160  65.147  1.00  0.00    -0.366 A  
HETATM    5  C   UNL     1     -10.923  11.072  65.622  1.00  0.00    -0.090 A  
HETATM    6  C   UNL     1      -9.980  10.447  64.796  1.00  0.00    -0.409 A  
HETATM    7  C   UNL     1      -9.803  10.918  63.490  1.00  0.00    -0.407 A  
HETATM    8  C   UNL     1     -10.550  12.002  63.019  1.00  0.00    -0.081 A  
BRANCH   6   9
HETATM    9  C   UNL     1      -9.191   9.303  65.350  1.00  0.00    -0.222 C  
HETATM   10  O   UNL     1      -8.174   8.927  64.764  1.00  0.00    -0.145 OA 
BRANCH   9  11
HETATM   11  C   UNL     1      -9.695   8.562  66.567  1.00  0.00    -0.330 C  
BRANCH  11  12
HETATM   12  C   UNL     1      -8.613   8.030  67.472  1.00  0.00    -0.126 C  
HETATM   13  O   UNL     1      -7.864   8.761  68.118  1.00  0.00    -0.100 OA 
BRANCH  12  14
HETATM   14  C   UNL     1      -8.432   6.557  67.571  1.00  0.00    -0.120 A  
HETATM   15  C   UNL     1      -9.251   5.753  66.778  1.00  0.00    -0.135 A  
HETATM   16  C   UNL     1      -9.183   4.364  66.873  1.00  0.00    -0.150 A  
HETATM   17  C   UNL     1      -8.292   3.731  67.755  1.00  0.00    -0.099 A  
HETATM   18  C   UNL     1      -7.500   5.956  68.419  1.00  0.00    -0.086 A  
HETATM   19  C   UNL     1      -7.430   4.558  68.503  1.00  0.00    -0.064 A  
BRANCH  17  20
HETATM   20  C   UNL     1      -8.269   2.202  67.933  1.00  0.00    -0.075 C  
HETATM   21  C   UNL     1      -9.653   1.612  68.290  1.00  0.00    -0.179 C  
HETATM   22  C   UNL     1      -7.795   1.518  66.635  1.00  0.00    -0.066 C  
HETATM   23  C   UNL     1      -7.308   1.823  69.081  1.00  0.00    -0.043 C  
ENDBRANCH  17  20
ENDBRANCH  12  14
ENDBRANCH  11  12
ENDBRANCH   9  11
ENDBRANCH   6   9
ENDBRANCH   2   3
TORSDOF 6
ENDMDL
MODEL      202
REMARK 921   NORMALIZED FREE ENERGY PREDICTED BY IDOCK:   -3.33 KCAL/MOL
REMARK 922        TOTAL FREE ENERGY PREDICTED BY IDOCK:   -5.51 KCAL/MOL
REMARK 923 INTER-LIGAND FREE ENERGY PREDICTED BY IDOCK:   -4.47 KCAL/MOL
REMARK 924 INTRA-LIGAND FREE ENERGY PREDICTED BY IDOCK:   -1.03 KCAL/MOL
REMARK 927      BINDING AFFINITY PREDICTED BY RF-SCORE:    0.00 PKD
ROOT
HETATM    1  C   UNL     1     -12.802  12.197  63.392  1.00  0.00    -0.272 C  
HETATM    2  O   UNL     1     -12.916  12.734  64.707  1.00  0.00    -0.768 OA 
ENDROOT
BRANCH   2   3
HETATM    3  C   UNL     1     -11.731  13.061  65.306  1.00  0.00    -0.353 A  
HETATM    4  C   UNL     1     -11.379  12.289  66.413  1.00  0.00    -0.405 A  
HETATM    5  C   UNL     1     -10.194  12.548  67.109  1.00  0.00    -0.225 A  
HETATM    6  C   UNL     1      -9.341  13.578  66.693  1.00  0.00    -0.254 A  
HETATM    7  C   UNL     1      -9.687  14.330  65.564  1.00  0.00    -0.189 A  
HETATM    8  C   UNL     1     -10.869  14.064  64.868  1.00  0.00    -0.421 A  
BRANCH   6   9
HETATM    9  C   UNL     1      -8.096  13.838  67.480  1.00  0.00    -0.185 C  
HETATM   10  O   UNL     1      -7.320  14.724  67.113  1.00  0.00    -0.166 OA 
BRANCH   9  11
HETATM   11  C   UNL     1      -7.754  12.957  68.660  1.00  0.00    -0.067 C  
BRANCH  11  12
HETATM   12  C   UNL     1      -6.726  11.892  68.372  1.00  0.00    -0.067 C  
HETATM   13  O   UNL     1      -5.536  12.143  68.199  1.00  0.00    -0.048 OA 
BRANCH  12  14
HETATM   14  C   UNL     1      -7.179  10.479  68.274  1.00  0.00    -0.083 A  
HETATM   15  C   UNL     1      -6.212   9.509  68.010  1.00  0.00    -0.056 A  
HETATM   16  C   UNL     1      -6.578   8.175  67.836  1.00  0.00    -0.061 A  
HETATM   17  C   UNL     1      -7.917   7.763  67.927  1.00  0.00    -0.125 A  
HETATM   18  C   UNL     1      -8.513  10.091  68.421  1.00  0.00    -0.112 A  
HETATM   19  C   UNL     1      -8.873   8.746  68.253  1.00  0.00    -0.141 A  
BRANCH  17  20
HETATM   20  C   UNL     1      -8.344   6.310  67.650  1.00  0.00    -0.117 C  
HETATM   21  C   UNL     1      -7.401   5.578  66.667  1.00  0.00    -0.083 C  
HETATM   22  C   UNL     1      -8.366   5.499  68.961  1.00  0.00    -0.102 C  
HETATM   23  C   UNL     1      -9.754   6.289  67.021  1.00  0.00    -0.173 C  
ENDBRANCH  17  20
ENDBRANCH  12  14
ENDBRANCH  11  12
ENDBRANCH   9  11
ENDBRANCH   6   9
ENDBRANCH   2   3
TORSDOF 6
ENDMDL
MODEL      203
REMARK 921   NORMALIZED FREE ENERGY PREDICTED BY IDOCK:   -3.28 KCAL/MOL
REMARK 922        TOTAL FREE ENERGY PREDICTED BY IDOCK:   -5.43 KCAL/MOL
REMARK 923 INTER-LIGAND FREE ENERGY PREDICTED BY IDOCK:   -3.89 KCAL/MOL
REMARK 924 INTRA-LIGAND FREE ENERGY PREDICTED BY IDOCK:   -1.54 KCAL/MOL
REMARK 927      BINDING AFFINITY PREDICTED BY RF-SCORE:    0.00 PKD
ROOT
HETATM    1  C   UNL     1     -12.528   8.791  72.211  1.00  0.00    -0.386 C  
HETATM    2  O   UNL     1     -11.879   8.886  70.946  1.00  0.00    -0.282 OA 
ENDROOT
BRANCH   2   3
HETATM    3  C   UNL     1     -11.112   7.806  70.604  1.00  0.00    -0.256 A  
HETATM    4  C   UNL     1      -9.733   7.989  70.699  1.00  0.00    -0.180 A  
HETATM    5  C   UNL     1      -8.856   6.954  70.359  1.00  0.00    -0.152 A  
HETATM    6  C   UNL     1      -9.356   5.717  69.931  1.00  0.00    -0.177 A  
HETATM    7  C   UNL     1     -10.742   5.532  69.865  1.00  0.00    -0.358 A  
HETATM    8  C   UNL     1     -11.615   6.568  70.211  1.00  0.00    -0.473 A  
BRANCH   6   9
HETATM    9  C   UNL     1      -8.384   4.645  69.553  1.00  0.00    -0.074 C  
HETATM   10  O   UNL     1      -7.307   4.565  70.148  1.00  0.00    -0.048 OA 
BRANCH   9  11
HETATM   11  C   UNL     1      -8.688   3.731  68.388  1.00  0.00    -0.132 C  
BRANCH  11  12
HETATM   12  C   UNL     1      -7.982   4.091  67.106  1.00  0.00    -0.095 C  
HETATM   13  O   UNL     1      -7.510   3.249  66.345  1.00  0.00    -0.074 OA 
BRANCH  12  14
HETATM   14  C   UNL     1      -7.834   5.529  66.759  1.00  0.00    -0.101 A  
HETATM   15  C   UNL     1      -8.962   6.196  66.280  1.00  0.00    -0.162 A  
HETATM   16  C   UNL     1      -8.877   7.526  65.870  1.00  0.00    -0.157 A  
HETATM   17  C   UNL     1      -7.667   8.236  65.930  1.00  0.00    -0.087 A  
HETATM   18  C   UNL     1      -6.629   6.225  66.878  1.00  0.00    -0.059 A  
HETATM   19  C   UNL     1      -6.552   7.565  66.472  1.00  0.00    -0.053 A  
BRANCH  17  20
HETATM   20  C   UNL     1      -7.539   9.675  65.399  1.00  0.00    -0.111 C  
HETATM   21  C   UNL     1      -6.422   9.835  64.341  1.00  0.00    -0.117 C  
HETATM   22  C   UNL     1      -8.862  10.125  64.747  1.00  0.00    -0.219 C  
HETATM   23  C   UNL     1      -7.199  10.634  66.561  1.00  0.00    -0.134 C  
ENDBRANCH  17  20
ENDBRANCH  12  14
ENDBRANCH  11  12
ENDBRANCH   9  11
ENDBRANCH   6   9
ENDBRANCH   2   3
TORSDOF 6
ENDMDL
MODEL      204
REMARK 921   NORMALIZED FREE ENERGY PREDICTED BY IDOCK:   -3.27 KCAL/MOL
REMARK 922        TOTAL FREE ENERGY PREDICTED BY IDOCK:   -5.42 KCAL/MOL
REMARK 923 INTER-LIGAND FREE ENERGY PREDICTED BY IDOCK:   -4.59 KCAL/MOL
REMARK 924 INTRA-LIGAND FREE ENERGY PREDICTED BY IDOCK:   -0.84 KCAL/MOL
REMARK 927      BINDING AFFINITY PREDICTED BY RF-SCORE:    0.00 PKD
ROOT
HETATM    1  C   UNL     1      -8.876   2.068  65.664  1.00  0.00    -0.121 C  
HETATM    2  O   UNL     1      -7.950   2.623  66.594  1.00  0.00    -0.078 OA 
ENDROOT
BRANCH   2   3
HETATM    3  C   UNL     1      -8.324   3.820  67.141  1.00  0.00    -0.099 A  
HETATM    4  C   UNL     1      -7.433   4.876  66.951  1.00  0.00    -0.087 A  
HETATM    5  C   UNL     1      -7.710   6.140  67.482  1.00  0.00    -0.097 A  
HETATM    6  C   UNL     1      -8.893   6.361  68.199  1.00  0.00    -0.114 A  
HETATM    7  C   UNL     1      -9.795   5.303  68.361  1.00  0.00    -0.208 A  
HETATM    8  C   UNL     1      -9.517   4.043  67.824  1.00  0.00    -0.228 A  
BRANCH   6   9
HETATM    9  C   UNL     1      -9.139   7.721  68.771  1.00  0.00    -0.140 C  
HETATM   10  O   UNL     1      -9.787   7.832  69.815  1.00  0.00    -0.175 OA 
BRANCH   9  11
HETATM   11  C   UNL     1      -8.673   8.948  68.022  1.00  0.00    -0.133 C  
BRANCH  11  12
HETATM   12  C   UNL     1      -9.761   9.683  67.282  1.00  0.00    -0.166 C  
HETATM   13  O   UNL     1     -10.250   9.271  66.232  1.00  0.00    -0.273 OA 
BRANCH  12  14
HETATM   14  C   UNL     1     -10.248  10.974  67.838  1.00  0.00    -0.207 A  
HETATM   15  C   UNL     1      -9.475  12.110  67.600  1.00  0.00    -0.187 A  
HETATM   16  C   UNL     1      -9.836  13.340  68.152  1.00  0.00    -0.231 A  
HETATM   17  C   UNL     1     -10.982  13.476  68.951  1.00  0.00    -0.286 A  
HETATM   18  C   UNL     1     -11.421  11.090  68.586  1.00  0.00    -0.375 A  
HETATM   19  C   UNL     1     -11.783  12.331  69.131  1.00  0.00    -0.377 A  
BRANCH  17  20
HETATM   20  C   UNL     1     -11.343  14.807  69.638  1.00  0.00    -0.316 C  
HETATM   21  C   UNL     1     -11.598  15.957  68.635  1.00  0.00    -0.383 C  
HETATM   22  C   UNL     1     -12.618  14.643  70.488  1.00  0.00    -0.409 C  
HETATM   23  C   UNL     1     -10.182  15.255  70.552  1.00  0.00     0.104 C  
ENDBRANCH  17  20
ENDBRANCH  12  14
ENDBRANCH  11  12
ENDBRANCH   9  11
ENDBRANCH   6   9
ENDBRANCH   2   3
TORSDOF 6
ENDMDL
MODEL      205
REMARK 921   NORMALIZED FREE ENERGY PREDICTED BY IDOCK:   -3.24 KCAL/MOL
REMARK 922        TOTAL FREE ENERGY PREDICTED BY IDOCK:   -5.38 KCAL/MOL
REMARK 923 INTER-LIGAND FREE ENERGY PREDICTED BY IDOCK:   -4.57 KCAL/MOL
REMARK 924 INTRA-LIGAND FREE ENERGY PREDICTED BY IDOCK:   -0.82 KCAL/MOL
REMARK 927      BINDING AFFINITY PREDICTED BY RF-SCORE:    0.00 PKD
ROOT
HETATM    1  C   UNL     1      -9.834  14.470  65.873  1.00  0.00    -0.321 C  
HETATM    2  O   UNL     1      -9.914  13.048  65.929  1.00  0.00    -0.275 OA 
ENDROOT
BRANCH   2   3
HETATM    3  C   UNL     1     -10.517  12.545  67.048  1.00  0.00    -0.231 A  
HETATM    4  C   UNL     1      -9.996  11.345  67.529  1.00  0.00    -0.201 A  
HETATM    5  C   UNL     1     -10.548  10.734  68.660  1.00  0.00    -0.226 A  
HETATM    6  C   UNL     1     -11.624  11.331  69.330  1.00  0.00    -0.390 A  
HETATM    7  C   UNL     1     -12.124  12.550  68.858  1.00  0.00    -0.167 A  
HETATM    8  C   UNL     1     -11.565  13.159  67.731  1.00  0.00    -0.379 A  
BRANCH   6   9
HETATM    9  C   UNL     1     -12.201  10.633  70.520  1.00  0.00    -0.358 C  
HETATM   10  O   UNL     1     -13.407  10.737  70.758  1.00  0.00    -0.146 OA 
BRANCH   9  11
HETATM   11  C   UNL     1     -11.292   9.885  71.467  1.00  0.00    -0.246 C  
BRANCH  11  12
HETATM   12  C   UNL     1     -11.184   8.405  71.199  1.00  0.00    -0.263 C  
HETATM   13  O   UNL     1     -12.113   7.739  70.747  1.00  0.00    -0.226 OA 
BRANCH  12  14
HETATM   14  C   UNL     1      -9.902   7.720  71.514  1.00  0.00    -0.200 A  
HETATM   15  C   UNL     1      -9.505   6.679  70.675  1.00  0.00    -0.174 A  
HETATM   16  C   UNL     1      -8.351   5.948  70.953  1.00  0.00    -0.126 A  
HETATM   17  C   UNL     1      -7.551   6.236  72.071  1.00  0.00    -0.096 A  
HETATM   18  C   UNL     1      -9.100   8.063  72.604  1.00  0.00    -0.290 A  
HETATM   19  C   UNL     1      -7.935   7.329  72.873  1.00  0.00    -0.118 A  
BRANCH  17  20
HETATM   20  C   UNL     1      -6.324   5.381  72.438  1.00  0.00    -0.050 C  
HETATM   21  C   UNL     1      -5.785   5.671  73.858  1.00  0.00    -0.044 C  
HETATM   22  C   UNL     1      -6.677   3.882  72.374  1.00  0.00    -0.032 C  
HETATM   23  C   UNL     1      -5.172   5.670  71.451  1.00  0.00    -0.009 C  
ENDBRANCH  17  20
ENDBRANCH  12  14
ENDBRANCH  11  12
ENDBRANCH   9  11
ENDBRANCH   6   9
ENDBRANCH   2   3
TORSDOF 6
ENDMDL
MODEL      206
REMARK 921   NORMALIZED FREE ENERGY PREDICTED BY IDOCK:   -3.24 KCAL/MOL
REMARK 922        TOTAL FREE ENERGY PREDICTED BY IDOCK:   -5.37 KCAL/MOL
REMARK 923 INTER-LIGAND FREE ENERGY PREDICTED BY IDOCK:   -3.36 KCAL/MOL
REMARK 924 INTRA-LIGAND FREE ENERGY PREDICTED BY IDOCK:   -2.01 KCAL/MOL
REMARK 927      BINDING AFFINITY PREDICTED BY RF-SCORE:    0.00 PKD
ROOT
HETATM    1  C   UNL     1      -8.541   7.743  66.237  1.00  0.00    -0.150 C  
HETATM    2  O   UNL     1      -9.395   6.739  66.779  1.00  0.00    -0.149 OA 
ENDROOT
BRANCH   2   3
HETATM    3  C   UNL     1      -8.766   5.788  67.533  1.00  0.00    -0.107 A  
HETATM    4  C   UNL     1      -9.580   4.763  68.016  1.00  0.00    -0.199 A  
HETATM    5  C   UNL     1      -9.041   3.746  68.811  1.00  0.00    -0.199 A  
HETATM    6  C   UNL     1      -7.675   3.739  69.119  1.00  0.00    -0.052 A  
HETATM    7  C   UNL     1      -6.860   4.755  68.608  1.00  0.00    -0.051 A  
HETATM    8  C   UNL     1      -7.401   5.767  67.809  1.00  0.00    -0.077 A  
BRANCH   6   9
HETATM    9  C   UNL     1      -7.145   2.647  69.993  1.00  0.00    -0.033 C  
HETATM   10  O   UNL     1      -7.406   1.473  69.722  1.00  0.00    -0.036 OA 
BRANCH   9  11
HETATM   11  C   UNL     1      -6.374   2.994  71.246  1.00  0.00    -0.019 C  
BRANCH  11  12
HETATM   12  C   UNL     1      -7.228   3.437  72.407  1.00  0.00    -0.047 C  
HETATM   13  O   UNL     1      -7.171   2.912  73.517  1.00  0.00    -0.039 OA 
BRANCH  12  14
HETATM   14  C   UNL     1      -8.196   4.546  72.191  1.00  0.00    -0.105 A  
HETATM   15  C   UNL     1      -9.553   4.226  72.196  1.00  0.00    -0.203 A  
HETATM   16  C   UNL     1     -10.512   5.203  71.930  1.00  0.00    -0.272 A  
HETATM   17  C   UNL     1     -10.148   6.532  71.658  1.00  0.00    -0.202 A  
HETATM   18  C   UNL     1      -7.807   5.869  71.975  1.00  0.00    -0.106 A  
HETATM   19  C   UNL     1      -8.776   6.850  71.717  1.00  0.00    -0.120 A  
BRANCH  17  20
HETATM   20  C   UNL     1     -11.189   7.601  71.277  1.00  0.00    -0.277 C  
HETATM   21  C   UNL     1     -12.643   7.159  71.564  1.00  0.00    -0.427 C  
HETATM   22  C   UNL     1     -10.936   8.901  72.065  1.00  0.00    -0.412 C  
HETATM   23  C   UNL     1     -11.099   7.903  69.765  1.00  0.00    -0.079 C  
ENDBRANCH  17  20
ENDBRANCH  12  14
ENDBRANCH  11  12
ENDBRANCH   9  11
ENDBRANCH   6   9
ENDBRANCH   2   3
TORSDOF 6
ENDMDL
MODEL      207
REMARK 921   NORMALIZED FREE ENERGY PREDICTED BY IDOCK:   -3.20 KCAL/MOL
REMARK 922        TOTAL FREE ENERGY PREDICTED BY IDOCK:   -5.33 KCAL/MOL
REMARK 923 INTER-LIGAND FREE ENERGY PREDICTED BY IDOCK:   -4.52 KCAL/MOL
REMARK 924 INTRA-LIGAND FREE ENERGY PREDICTED BY IDOCK:   -0.81 KCAL/MOL
REMARK 927      BINDING AFFINITY PREDICTED BY RF-SCORE:    0.00 PKD
ROOT
HETATM    1  C   UNL     1     -14.409   8.555  72.093  1.00  0.00    -0.436 C  
HETATM    2  O   UNL     1     -13.077   8.807  72.532  1.00  0.00    -0.401 OA 
ENDROOT
BRANCH   2   3
HETATM    3  C   UNL     1     -12.130   8.798  71.545  1.00  0.00    -0.329 A  
HETATM    4  C   UNL     1     -11.803   7.544  71.031  1.00  0.00    -0.319 A  
HETATM    5  C   UNL     1     -10.836   7.419  70.029  1.00  0.00    -0.266 A  
HETATM    6  C   UNL     1     -10.194   8.556  69.521  1.00  0.00    -0.206 A  
HETATM    7  C   UNL     1     -10.547   9.814  70.023  1.00  0.00    -0.320 A  
HETATM    8  C   UNL     1     -11.519   9.935  71.020  1.00  0.00    -0.466 A  
BRANCH   6   9
HETATM    9  C   UNL     1      -9.147   8.376  68.468  1.00  0.00    -0.136 C  
HETATM   10  O   UNL     1      -9.479   7.998  67.342  1.00  0.00    -0.143 OA 
BRANCH   9  11
HETATM   11  C   UNL     1      -7.689   8.569  68.816  1.00  0.00    -0.102 C  
BRANCH  11  12
HETATM   12  C   UNL     1      -7.299   9.992  69.122  1.00  0.00    -0.087 C  
HETATM   13  O   UNL     1      -6.536  10.293  70.038  1.00  0.00    -0.093 OA 
BRANCH  12  14
HETATM   14  C   UNL     1      -7.879  11.080  68.289  1.00  0.00    -0.121 A  
HETATM   15  C   UNL     1      -8.410  12.185  68.953  1.00  0.00     0.180 A  
HETATM   16  C   UNL     1      -9.032  13.208  68.237  1.00  0.00    -0.175 A  
HETATM   17  C   UNL     1      -9.138  13.165  66.838  1.00  0.00    -0.231 A  
HETATM   18  C   UNL     1      -7.923  11.034  66.894  1.00  0.00    -0.143 A  
HETATM   19  C   UNL     1      -8.543  12.070  66.180  1.00  0.00     0.109 A  
BRANCH  17  20
HETATM   20  C   UNL     1      -9.899  14.243  66.044  1.00  0.00    -0.336 C  
HETATM   21  C   UNL     1      -9.950  13.955  64.525  1.00  0.00     0.221 C  
HETATM   22  C   UNL     1     -11.353  14.350  66.544  1.00  0.00    -0.353 C  
HETATM   23  C   UNL     1      -9.204  15.610  66.221  1.00  0.00    -0.365 C  
ENDBRANCH  17  20
ENDBRANCH  12  14
ENDBRANCH  11  12
ENDBRANCH   9  11
ENDBRANCH   6   9
ENDBRANCH   2   3
TORSDOF 6
ENDMDL
MODEL      208
REMARK 921   NORMALIZED FREE ENERGY PREDICTED BY IDOCK:   -3.12 KCAL/MOL
REMARK 922        TOTAL FREE ENERGY PREDICTED BY IDOCK:   -5.22 KCAL/MOL
REMARK 923 INTER-LIGAND FREE ENERGY PREDICTED BY IDOCK:   -3.84 KCAL/MOL
REMARK 924 INTRA-LIGAND FREE ENERGY PREDICTED BY IDOCK:   -1.39 KCAL/MOL
REMARK 927      BINDING AFFINITY PREDICTED BY RF-SCORE:    0.00 PKD
ROOT
HETATM    1  C   UNL     1      -7.517   2.937  68.574  1.00  0.00    -0.048 C  
HETATM    2  O   UNL     1      -7.649   2.819  67.160  1.00  0.00    -0.068 OA 
ENDROOT
BRANCH   2   3
HETATM    3  C   UNL     1      -7.604   4.001  66.473  1.00  0.00    -0.088 A  
HETATM    4  C   UNL     1      -6.738   4.966  66.985  1.00  0.00    -0.055 A  
HETATM    5  C   UNL     1      -6.625   6.216  66.369  1.00  0.00    -0.048 A  
HETATM    6  C   UNL     1      -7.373   6.507  65.221  1.00  0.00    -0.077 A  
HETATM    7  C   UNL     1      -8.220   5.523  64.696  1.00  0.00    -0.130 A  
HETATM    8  C   UNL     1      -8.325   4.273  65.312  1.00  0.00    -0.110 A  
BRANCH   6   9
HETATM    9  C   UNL     1      -7.242   7.865  64.607  1.00  0.00    -0.079 C  
HETATM   10  O   UNL     1      -6.128   8.274  64.271  1.00  0.00    -0.063 OA 
BRANCH   9  11
HETATM   11  C   UNL     1      -8.457   8.756  64.487  1.00  0.00    -0.158 C  
BRANCH  11  12
HETATM   12  C   UNL     1      -8.552   9.833  65.539  1.00  0.00    -0.145 C  
HETATM   13  O   UNL     1      -8.073  10.955  65.390  1.00  0.00    -0.106 OA 
BRANCH  12  14
HETATM   14  C   UNL     1      -9.238   9.513  66.819  1.00  0.00    -0.184 A  
HETATM   15  C   UNL     1      -9.094  10.418  67.870  1.00  0.00    -0.132 A  
HETATM   16  C   UNL     1      -9.653  10.147  69.119  1.00  0.00    -0.222 A  
HETATM   17  C   UNL     1     -10.378   8.968  69.357  1.00  0.00    -0.217 A  
HETATM   18  C   UNL     1      -9.998   8.358  67.011  1.00  0.00    -0.323 A  
HETATM   19  C   UNL     1     -10.564   8.094  68.267  1.00  0.00    -0.153 A  
BRANCH  17  20
HETATM   20  C   UNL     1     -10.924   8.615  70.753  1.00  0.00    -0.286 C  
HETATM   21  C   UNL     1      -9.872   8.781  71.875  1.00  0.00    -0.395 C  
HETATM   22  C   UNL     1     -12.122   9.519  71.104  1.00  0.00    -0.429 C  
HETATM   23  C   UNL     1     -11.381   7.140  70.779  1.00  0.00    -0.322 C  
ENDBRANCH  17  20
ENDBRANCH  12  14
ENDBRANCH  11  12
ENDBRANCH   9  11
ENDBRANCH   6   9
ENDBRANCH   2   3
TORSDOF 6
ENDMDL
MODEL      209
REMARK 921   NORMALIZED FREE ENERGY PREDICTED BY IDOCK:   -3.12 KCAL/MOL
REMARK 922        TOTAL FREE ENERGY PREDICTED BY IDOCK:   -5.22 KCAL/MOL
REMARK 923 INTER-LIGAND FREE ENERGY PREDICTED BY IDOCK:   -4.40 KCAL/MOL
REMARK 924 INTRA-LIGAND FREE ENERGY PREDICTED BY IDOCK:   -0.82 KCAL/MOL
REMARK 927      BINDING AFFINITY PREDICTED BY RF-SCORE:    0.00 PKD
ROOT
HETATM    1  C   UNL     1     -14.123   8.919  72.346  1.00  0.00    -0.420 C  
HETATM    2  O   UNL     1     -13.931   9.306  70.988  1.00  0.00    -0.177 OA 
ENDROOT
BRANCH   2   3
HETATM    3  C   UNL     1     -12.627   9.373  70.583  1.00  0.00     0.052 A  
HETATM    4  C   UNL     1     -12.339  10.350  69.630  1.00  0.00    -0.060 A  
HETATM    5  C   UNL     1     -11.039  10.496  69.135  1.00  0.00    -0.302 A  
HETATM    6  C   UNL     1     -10.009   9.669  69.602  1.00  0.00    -0.239 A  
HETATM    7  C   UNL     1     -10.300   8.709  70.578  1.00  0.00    -0.234 A  
HETATM    8  C   UNL     1     -11.599   8.571  71.074  1.00  0.00    -0.317 A  
BRANCH   6   9
HETATM    9  C   UNL     1      -8.638   9.841  69.028  1.00  0.00    -0.146 C  
HETATM   10  O   UNL     1      -7.711  10.187  69.764  1.00  0.00    -0.146 OA 
BRANCH   9  11
HETATM   11  C   UNL     1      -8.420   9.679  67.541  1.00  0.00    -0.125 C  
BRANCH  11  12
HETATM   12  C   UNL     1      -8.913  10.832  66.704  1.00  0.00    -0.153 C  
HETATM   13  O   UNL     1      -9.543  10.678  65.661  1.00  0.00    -0.194 OA 
BRANCH  12  14
HETATM   14  C   UNL     1      -8.603  12.216  67.154  1.00  0.00    -0.185 A  
HETATM   15  C   UNL     1      -9.678  13.079  67.367  1.00  0.00    -0.213 A  
HETATM   16  C   UNL     1      -9.456  14.410  67.721  1.00  0.00    -0.211 A  
HETATM   17  C   UNL     1      -8.158  14.920  67.881  1.00  0.00    -0.148 A  
HETATM   18  C   UNL     1      -7.302  12.682  67.356  1.00  0.00    -0.140 A  
HETATM   19  C   UNL     1      -7.087  14.019  67.720  1.00  0.00    -0.183 A  
BRANCH  17  20
HETATM   20  C   UNL     1      -7.898  16.407  68.185  1.00  0.00    -0.158 C  
HETATM   21  C   UNL     1      -7.343  17.187  66.970  1.00  0.00    -0.216 C  
HETATM   22  C   UNL     1      -9.204  17.101  68.622  1.00  0.00    -0.263 C  
HETATM   23  C   UNL     1      -6.856  16.536  69.317  1.00  0.00    -0.224 C  
ENDBRANCH  17  20
ENDBRANCH  12  14
ENDBRANCH  11  12
ENDBRANCH   9  11
ENDBRANCH   6   9
ENDBRANCH   2   3
TORSDOF 6
ENDMDL
MODEL      210
REMARK 921   NORMALIZED FREE ENERGY PREDICTED BY IDOCK:   -3.06 KCAL/MOL
REMARK 922        TOTAL FREE ENERGY PREDICTED BY IDOCK:   -5.14 KCAL/MOL
REMARK 923 INTER-LIGAND FREE ENERGY PREDICTED BY IDOCK:   -4.08 KCAL/MOL
REMARK 924 INTRA-LIGAND FREE ENERGY PREDICTED BY IDOCK:   -1.06 KCAL/MOL
REMARK 927      BINDING AFFINITY PREDICTED BY RF-SCORE:    0.00 PKD
ROOT
HETATM    1  C   UNL     1      -6.537   8.762  64.000  1.00  0.00    -0.079 C  
HETATM    2  O   UNL     1      -6.968   7.680  64.821  1.00  0.00    -0.053 OA 
ENDROOT
BRANCH   2   3
HETATM    3  C   UNL     1      -7.779   8.031  65.865  1.00  0.00    -0.092 A  
HETATM    4  C   UNL     1      -8.949   8.708  65.521  1.00  0.00    -0.209 A  
HETATM    5  C   UNL     1      -9.843   9.127  66.512  1.00  0.00    -0.333 A  
HETATM    6  C   UNL     1      -9.577   8.859  67.861  1.00  0.00    -0.171 A  
HETATM    7  C   UNL     1      -8.415   8.154  68.196  1.00  0.00    -0.126 A  
HETATM    8  C   UNL     1      -7.528   7.733  67.202  1.00  0.00    -0.096 A  
BRANCH   6   9
HETATM    9  C   UNL     1     -10.547   9.346  68.891  1.00  0.00    -0.208 C  
HETATM   10  O   UNL     1     -11.394  10.185  68.577  1.00  0.00    -0.208 OA 
BRANCH   9  11
HETATM   11  C   UNL     1     -10.421   8.878  70.322  1.00  0.00    -0.239 C  
BRANCH  11  12
HETATM   12  C   UNL     1     -11.393   7.795  70.717  1.00  0.00    -0.279 C  
HETATM   13  O   UNL     1     -12.609   7.903  70.570  1.00  0.00     0.172 OA 
BRANCH  12  14
HETATM   14  C   UNL     1     -10.855   6.550  71.329  1.00  0.00    -0.294 A  
HETATM   15  C   UNL     1      -9.917   5.826  70.595  1.00  0.00    -0.251 A  
HETATM   16  C   UNL     1      -9.424   4.613  71.078  1.00  0.00    -0.227 A  
HETATM   17  C   UNL     1      -9.847   4.089  72.311  1.00  0.00    -0.224 A  
HETATM   18  C   UNL     1     -11.255   6.080  72.581  1.00  0.00    -0.326 A  
HETATM   19  C   UNL     1     -10.750   4.865  73.065  1.00  0.00    -0.305 A  
BRANCH  17  20
HETATM   20  C   UNL     1      -9.379   2.712  72.814  1.00  0.00    -0.133 C  
HETATM   21  C   UNL     1      -7.913   2.394  72.437  1.00  0.00    -0.054 C  
HETATM   22  C   UNL     1      -9.488   2.636  74.350  1.00  0.00    -0.113 C  
HETATM   23  C   UNL     1     -10.254   1.602  72.192  1.00  0.00    -0.229 C  
ENDBRANCH  17  20
ENDBRANCH  12  14
ENDBRANCH  11  12
ENDBRANCH   9  11
ENDBRANCH   6   9
ENDBRANCH   2   3
TORSDOF 6
ENDMDL
MODEL      211
REMARK 921   NORMALIZED FREE ENERGY PREDICTED BY IDOCK:   -3.03 KCAL/MOL
REMARK 922        TOTAL FREE ENERGY PREDICTED BY IDOCK:   -5.09 KCAL/MOL
REMARK 923 INTER-LIGAND FREE ENERGY PREDICTED BY IDOCK:   -3.61 KCAL/MOL
REMARK 924 INTRA-LIGAND FREE ENERGY PREDICTED BY IDOCK:   -1.48 KCAL/MOL
REMARK 927      BINDING AFFINITY PREDICTED BY RF-SCORE:    0.00 PKD
ROOT
HETATM    1  C   UNL     1      -6.584   8.769  74.346  1.00  0.00    -0.071 C  
HETATM    2  O   UNL     1      -5.800   9.061  73.193  1.00  0.00    -0.176 OA 
ENDROOT
BRANCH   2   3
HETATM    3  C   UNL     1      -6.144   8.366  72.066  1.00  0.00    -0.057 A  
HETATM    4  C   UNL     1      -6.558   7.050  72.269  1.00  0.00    -0.057 A  
HETATM    5  C   UNL     1      -6.918   6.245  71.184  1.00  0.00    -0.068 A  
HETATM    6  C   UNL     1      -6.879   6.758  69.881  1.00  0.00    -0.054 A  
HETATM    7  C   UNL     1      -6.489   8.088  69.687  1.00  0.00    -0.037 A  
HETATM    8  C   UNL     1      -6.136   8.891  70.776  1.00  0.00    -0.040 A  
BRANCH   6   9
HETATM    9  C   UNL     1      -7.248   5.856  68.746  1.00  0.00    -0.083 C  
HETATM   10  O   UNL     1      -6.359   5.373  68.041  1.00  0.00    -0.036 OA 
BRANCH   9  11
HETATM   11  C   UNL     1      -8.704   5.618  68.417  1.00  0.00    -0.109 C  
BRANCH  11  12
HETATM   12  C   UNL     1      -9.217   6.400  67.235  1.00  0.00    -0.119 C  
HETATM   13  O   UNL     1      -9.376   5.902  66.123  1.00  0.00    -0.160 OA 
BRANCH  12  14
HETATM   14  C   UNL     1      -9.525   7.844  67.421  1.00  0.00    -0.179 A  
HETATM   15  C   UNL     1     -10.327   8.197  68.506  1.00  0.00    -0.230 A  
HETATM   16  C   UNL     1     -10.713   9.523  68.699  1.00  0.00    -0.218 A  
HETATM   17  C   UNL     1     -10.304  10.540  67.821  1.00  0.00    -0.248 A  
HETATM   18  C   UNL     1      -9.061   8.841  66.561  1.00  0.00    -0.203 A  
HETATM   19  C   UNL     1      -9.445  10.175  66.765  1.00  0.00    -0.205 A  
BRANCH  17  20
HETATM   20  C   UNL     1     -10.794  11.992  67.972  1.00  0.00    -0.254 C  
HETATM   21  C   UNL     1     -11.552  12.242  69.297  1.00  0.00    -0.383 C  
HETATM   22  C   UNL     1      -9.602  12.968  67.929  1.00  0.00    -0.215 C  
HETATM   23  C   UNL     1     -11.769  12.338  66.825  1.00  0.00    -0.411 C  
ENDBRANCH  17  20
ENDBRANCH  12  14
ENDBRANCH  11  12
ENDBRANCH   9  11
ENDBRANCH   6   9
ENDBRANCH   2   3
TORSDOF 6
ENDMDL
MODEL      212
REMARK 921   NORMALIZED FREE ENERGY PREDICTED BY IDOCK:   -2.98 KCAL/MOL
REMARK 922        TOTAL FREE ENERGY PREDICTED BY IDOCK:   -5.03 KCAL/MOL
REMARK 923 INTER-LIGAND FREE ENERGY PREDICTED BY IDOCK:   -3.90 KCAL/MOL
REMARK 924 INTRA-LIGAND FREE ENERGY PREDICTED BY IDOCK:   -1.13 KCAL/MOL
REMARK 927      BINDING AFFINITY PREDICTED BY RF-SCORE:    0.00 PKD
ROOT
HETATM    1  C   UNL     1      -7.722   1.755  63.880  1.00  0.00    -0.060 C  
HETATM    2  O   UNL     1      -7.151   2.553  64.913  1.00  0.00    -0.051 OA 
ENDROOT
BRANCH   2   3
HETATM    3  C   UNL     1      -8.046   3.289  65.640  1.00  0.00    -0.090 A  
HETATM    4  C   UNL     1      -8.343   4.553  65.132  1.00  0.00    -0.122 A  
HETATM    5  C   UNL     1      -9.235   5.395  65.805  1.00  0.00    -0.149 A  
HETATM    6  C   UNL     1      -9.849   4.971  66.990  1.00  0.00    -0.205 A  
HETATM    7  C   UNL     1      -9.568   3.690  67.478  1.00  0.00    -0.194 A  
HETATM    8  C   UNL     1      -8.680   2.849  66.800  1.00  0.00    -0.136 A  
BRANCH   6   9
HETATM    9  C   UNL     1     -10.777   5.911  67.691  1.00  0.00    -0.270 C  
HETATM   10  O   UNL     1     -11.391   6.758  67.038  1.00  0.00    -0.337 OA 
BRANCH   9  11
HETATM   11  C   UNL     1     -10.885   5.878  69.198  1.00  0.00    -0.406 C  
BRANCH  11  12
HETATM   12  C   UNL     1      -9.823   6.665  69.922  1.00  0.00    -0.167 C  
HETATM   13  O   UNL     1      -9.302   6.281  70.968  1.00  0.00    -0.160 OA 
BRANCH  12  14
HETATM   14  C   UNL     1      -9.402   7.975  69.355  1.00  0.00    -0.155 A  
HETATM   15  C   UNL     1     -10.237   9.070  69.575  1.00  0.00    -0.205 A  
HETATM   16  C   UNL     1      -9.939  10.311  69.012  1.00  0.00    -0.223 A  
HETATM   17  C   UNL     1      -8.796  10.501  68.219  1.00  0.00    -0.139 A  
HETATM   18  C   UNL     1      -8.231   8.146  68.614  1.00  0.00    -0.125 A  
HETATM   19  C   UNL     1      -7.933   9.398  68.057  1.00  0.00    -0.092 A  
BRANCH  17  20
HETATM   20  C   UNL     1      -8.502  11.841  67.521  1.00  0.00    -0.154 C  
HETATM   21  C   UNL     1      -8.769  13.067  68.425  1.00  0.00    -0.115 C  
HETATM   22  C   UNL     1      -7.027  11.904  67.078  1.00  0.00    -0.116 C  
HETATM   23  C   UNL     1      -9.407  11.993  66.278  1.00  0.00    -0.228 C  
ENDBRANCH  17  20
ENDBRANCH  12  14
ENDBRANCH  11  12
ENDBRANCH   9  11
ENDBRANCH   6   9
ENDBRANCH   2   3
TORSDOF 6
ENDMDL
MODEL      213
REMARK 921   NORMALIZED FREE ENERGY PREDICTED BY IDOCK:   -2.91 KCAL/MOL
REMARK 922        TOTAL FREE ENERGY PREDICTED BY IDOCK:   -4.94 KCAL/MOL
REMARK 923 INTER-LIGAND FREE ENERGY PREDICTED BY IDOCK:   -4.14 KCAL/MOL
REMARK 924 INTRA-LIGAND FREE ENERGY PREDICTED BY IDOCK:   -0.80 KCAL/MOL
REMARK 927      BINDING AFFINITY PREDICTED BY RF-SCORE:    0.00 PKD
ROOT
HETATM    1  C   UNL     1     -11.262  11.148  69.212  1.00  0.00    -0.267 C  
HETATM    2  O   UNL     1      -9.960  10.665  69.530  1.00  0.00    -0.197 OA 
ENDROOT
BRANCH   2   3
HETATM    3  C   UNL     1      -9.932   9.490  70.231  1.00  0.00    -0.259 A  
HETATM    4  C   UNL     1      -8.740   9.212  70.898  1.00  0.00    -0.277 A  
HETATM    5  C   UNL     1      -8.598   8.030  71.632  1.00  0.00    -0.162 A  
HETATM    6  C   UNL     1      -9.659   7.119  71.715  1.00  0.00    -0.161 A  
HETATM    7  C   UNL     1     -10.862   7.418  71.065  1.00  0.00    -0.254 A  
HETATM    8  C   UNL     1     -11.001   8.604  70.337  1.00  0.00    -0.256 A  
BRANCH   6   9
HETATM    9  C   UNL     1      -9.458   5.855  72.490  1.00  0.00    -0.147 C  
HETATM   10  O   UNL     1      -8.513   5.771  73.278  1.00  0.00    -0.117 OA 
BRANCH   9  11
HETATM   11  C   UNL     1     -10.354   4.665  72.234  1.00  0.00    -0.251 C  
BRANCH  11  12
HETATM   12  C   UNL     1      -9.690   3.524  71.505  1.00  0.00    -0.167 C  
HETATM   13  O   UNL     1      -9.364   2.477  72.060  1.00  0.00    -0.088 OA 
BRANCH  12  14
HETATM   14  C   UNL     1      -9.400   3.683  70.055  1.00  0.00    -0.248 A  
HETATM   15  C   UNL     1      -9.952   4.787  69.405  1.00  0.00    -0.269 A  
HETATM   16  C   UNL     1      -9.779   4.959  68.032  1.00  0.00    -0.202 A  
HETATM   17  C   UNL     1      -9.044   4.041  67.265  1.00  0.00    -0.169 A  
HETATM   18  C   UNL     1      -8.622   2.781  69.327  1.00  0.00    -0.114 A  
HETATM   19  C   UNL     1      -8.444   2.964  67.948  1.00  0.00    -0.103 A  
BRANCH  17  20
HETATM   20  C   UNL     1      -8.920   4.172  65.735  1.00  0.00    -0.129 C  
HETATM   21  C   UNL     1      -8.564   5.605  65.276  1.00  0.00    -0.141 C  
HETATM   22  C   UNL     1      -7.822   3.229  65.204  1.00  0.00    -0.082 C  
HETATM   23  C   UNL     1     -10.264   3.806  65.068  1.00  0.00    -0.084 C  
ENDBRANCH  17  20
ENDBRANCH  12  14
ENDBRANCH  11  12
ENDBRANCH   9  11
ENDBRANCH   6   9
ENDBRANCH   2   3
TORSDOF 6
ENDMDL
MODEL      214
REMARK 921   NORMALIZED FREE ENERGY PREDICTED BY IDOCK:   -2.83 KCAL/MOL
REMARK 922        TOTAL FREE ENERGY PREDICTED BY IDOCK:   -4.82 KCAL/MOL
REMARK 923 INTER-LIGAND FREE ENERGY PREDICTED BY IDOCK:   -3.39 KCAL/MOL
REMARK 924 INTRA-LIGAND FREE ENERGY PREDICTED BY IDOCK:   -1.43 KCAL/MOL
REMARK 927      BINDING AFFINITY PREDICTED BY RF-SCORE:    0.00 PKD
ROOT
HETATM    1  C   UNL     1      -7.935   1.494  69.205  1.00  0.00    -0.045 C  
HETATM    2  O   UNL     1      -8.408   1.681  67.874  1.00  0.00    -0.062 OA 
ENDROOT
BRANCH   2   3
HETATM    3  C   UNL     1      -8.578   2.984  67.497  1.00  0.00    -0.103 A  
HETATM    4  C   UNL     1      -7.479   3.819  67.691  1.00  0.00    -0.067 A  
HETATM    5  C   UNL     1      -7.550   5.175  67.354  1.00  0.00    -0.088 A  
HETATM    6  C   UNL     1      -8.725   5.704  66.804  1.00  0.00    -0.115 A  
HETATM    7  C   UNL     1      -9.814   4.854  66.585  1.00  0.00    -0.223 A  
HETATM    8  C   UNL     1      -9.737   3.499  66.919  1.00  0.00    -0.049 A  
BRANCH   6   9
HETATM    9  C   UNL     1      -8.768   7.164  66.480  1.00  0.00    -0.134 C  
HETATM   10  O   UNL     1      -7.779   7.703  65.976  1.00  0.00    -0.085 OA 
BRANCH   9  11
HETATM   11  C   UNL     1      -9.981   7.982  66.856  1.00  0.00    -0.338 C  
BRANCH  11  12
HETATM   12  C   UNL     1      -9.765   8.937  68.002  1.00  0.00    -0.156 C  
HETATM   13  O   UNL     1      -9.704  10.156  67.854  1.00  0.00    -0.144 OA 
BRANCH  12  14
HETATM   14  C   UNL     1      -9.600   8.375  69.370  1.00  0.00    -0.170 A  
HETATM   15  C   UNL     1      -8.731   9.037  70.237  1.00  0.00    -0.202 A  
HETATM   16  C   UNL     1      -8.476   8.525  71.509  1.00  0.00    -0.221 A  
HETATM   17  C   UNL     1      -9.084   7.341  71.959  1.00  0.00    -0.144 A  
HETATM   18  C   UNL     1     -10.259   7.224  69.809  1.00  0.00    -0.214 A  
HETATM   19  C   UNL     1     -10.004   6.719  71.092  1.00  0.00    -0.194 A  
BRANCH  17  20
HETATM   20  C   UNL     1      -8.743   6.719  73.326  1.00  0.00    -0.138 C  
HETATM   21  C   UNL     1      -9.827   5.740  73.834  1.00  0.00    -0.183 C  
HETATM   22  C   UNL     1      -7.416   5.939  73.244  1.00  0.00    -0.094 C  
HETATM   23  C   UNL     1      -8.608   7.832  74.388  1.00  0.00    -0.221 C  
ENDBRANCH  17  20
ENDBRANCH  12  14
ENDBRANCH  11  12
ENDBRANCH   9  11
ENDBRANCH   6   9
ENDBRANCH   2   3
TORSDOF 6
ENDMDL
MODEL      215
REMARK 921   NORMALIZED FREE ENERGY PREDICTED BY IDOCK:   -2.77 KCAL/MOL
REMARK 922        TOTAL FREE ENERGY PREDICTED BY IDOCK:   -4.74 KCAL/MOL
REMARK 923 INTER-LIGAND FREE ENERGY PREDICTED BY IDOCK:   -3.14 KCAL/MOL
REMARK 924 INTRA-LIGAND FREE ENERGY PREDICTED BY IDOCK:   -1.61 KCAL/MOL
REMARK 927      BINDING AFFINITY PREDICTED BY RF-SCORE:    0.00 PKD
ROOT
HETATM    1  C   UNL     1      -5.715   9.391  74.291  1.00  0.00    -0.002 C  
HETATM    2  O   UNL     1      -5.429   8.608  73.135  1.00  0.00    -0.066 OA 
ENDROOT
BRANCH   2   3
HETATM    3  C   UNL     1      -6.010   7.370  73.114  1.00  0.00    -0.055 A  
HETATM    4  C   UNL     1      -6.181   6.761  74.357  1.00  0.00    -0.072 A  
HETATM    5  C   UNL     1      -6.751   5.488  74.449  1.00  0.00    -0.077 A  
HETATM    6  C   UNL     1      -7.169   4.815  73.293  1.00  0.00    -0.081 A  
HETATM    7  C   UNL     1      -7.019   5.445  72.052  1.00  0.00    -0.079 A  
HETATM    8  C   UNL     1      -6.454   6.720  71.965  1.00  0.00    -0.053 A  
BRANCH   6   9
HETATM    9  C   UNL     1      -7.751   3.445  73.434  1.00  0.00    -0.065 C  
HETATM   10  O   UNL     1      -7.113   2.470  73.026  1.00  0.00    -0.027 OA 
BRANCH   9  11
HETATM   11  C   UNL     1      -9.146   3.273  73.987  1.00  0.00    -0.096 C  
BRANCH  11  12
HETATM   12  C   UNL     1     -10.206   3.010  72.948  1.00  0.00    -0.155 C  
HETATM   13  O   UNL     1     -11.143   2.235  73.131  1.00  0.00    -0.160 OA 
BRANCH  12  14
HETATM   14  C   UNL     1     -10.100   3.704  71.636  1.00  0.00    -0.132 A  
HETATM   15  C   UNL     1      -9.540   2.994  70.575  1.00  0.00    -0.187 A  
HETATM   16  C   UNL     1      -9.347   3.608  69.337  1.00  0.00    -0.246 A  
HETATM   17  C   UNL     1      -9.711   4.946  69.117  1.00  0.00    -0.252 A  
HETATM   18  C   UNL     1     -10.520   5.021  71.432  1.00  0.00    -0.213 A  
HETATM   19  C   UNL     1     -10.330   5.629  70.183  1.00  0.00    -0.341 A  
BRANCH  17  20
HETATM   20  C   UNL     1      -9.422   5.661  67.784  1.00  0.00    -0.121 C  
HETATM   21  C   UNL     1      -8.834   4.720  66.707  1.00  0.00    -0.110 C  
HETATM   22  C   UNL     1     -10.717   6.270  67.211  1.00  0.00    -0.424 C  
HETATM   23  C   UNL     1      -8.392   6.789  68.008  1.00  0.00    -0.120 C  
ENDBRANCH  17  20
ENDBRANCH  12  14
ENDBRANCH  11  12
ENDBRANCH   9  11
ENDBRANCH   6   9
ENDBRANCH   2   3
TORSDOF 6
ENDMDL
MODEL      216
REMARK 921   NORMALIZED FREE ENERGY PREDICTED BY IDOCK:   -2.72 KCAL/MOL
REMARK 922        TOTAL FREE ENERGY PREDICTED BY IDOCK:   -4.68 KCAL/MOL
REMARK 923 INTER-LIGAND FREE ENERGY PREDICTED BY IDOCK:   -2.97 KCAL/MOL
REMARK 924 INTRA-LIGAND FREE ENERGY PREDICTED BY IDOCK:   -1.71 KCAL/MOL
REMARK 927      BINDING AFFINITY PREDICTED BY RF-SCORE:    0.00 PKD
ROOT
HETATM    1  C   UNL     1      -5.734   9.612  74.526  1.00  0.00     0.048 C  
HETATM    2  O   UNL     1      -5.334   9.468  73.166  1.00  0.00    -0.191 OA 
ENDROOT
BRANCH   2   3
HETATM    3  C   UNL     1      -6.105   8.617  72.421  1.00  0.00    -0.076 A  
HETATM    4  C   UNL     1      -6.811   7.654  73.141  1.00  0.00    -0.079 A  
HETATM    5  C   UNL     1      -7.618   6.724  72.478  1.00  0.00    -0.095 A  
HETATM    6  C   UNL     1      -7.735   6.759  71.082  1.00  0.00    -0.093 A  
HETATM    7  C   UNL     1      -7.045   7.746  70.369  1.00  0.00    -0.050 A  
HETATM    8  C   UNL     1      -6.244   8.677  71.037  1.00  0.00    -0.042 A  
BRANCH   6   9
HETATM    9  C   UNL     1      -8.588   5.731  70.410  1.00  0.00    -0.133 C  
HETATM   10  O   UNL     1      -8.052   4.796  69.810  1.00  0.00    -0.068 OA 
BRANCH   9  11
HETATM   11  C   UNL     1     -10.090   5.894  70.394  1.00  0.00    -0.259 C  
BRANCH  11  12
HETATM   12  C   UNL     1     -10.642   6.508  69.133  1.00  0.00    -0.243 C  
HETATM   13  O   UNL     1     -11.388   5.902  68.366  1.00  0.00    -0.089 OA 
BRANCH  12  14
HETATM   14  C   UNL     1     -10.249   7.902  68.794  1.00  0.00    -0.218 A  
HETATM   15  C   UNL     1      -9.754   8.137  67.511  1.00  0.00    -0.207 A  
HETATM   16  C   UNL     1      -9.302   9.406  67.150  1.00  0.00    -0.172 A  
HETATM   17  C   UNL     1      -9.336  10.481  68.052  1.00  0.00    -0.150 A  
HETATM   18  C   UNL     1     -10.343   8.964  69.696  1.00  0.00    -0.214 A  
HETATM   19  C   UNL     1      -9.895  10.239  69.323  1.00  0.00    -0.244 A  
BRANCH  17  20
HETATM   20  C   UNL     1      -8.759  11.864  67.695  1.00  0.00    -0.162 C  
HETATM   21  C   UNL     1      -9.723  13.027  68.026  1.00  0.00    -0.224 C  
HETATM   22  C   UNL     1      -7.448  12.114  68.466  1.00  0.00    -0.117 C  
HETATM   23  C   UNL     1      -8.472  11.935  66.179  1.00  0.00     0.110 C  
ENDBRANCH  17  20
ENDBRANCH  12  14
ENDBRANCH  11  12
ENDBRANCH   9  11
ENDBRANCH   6   9
ENDBRANCH   2   3
TORSDOF 6
ENDMDL
MODEL      217
REMARK 921   NORMALIZED FREE ENERGY PREDICTED BY IDOCK:   -2.56 KCAL/MOL
REMARK 922        TOTAL FREE ENERGY PREDICTED BY IDOCK:   -4.46 KCAL/MOL
REMARK 923 INTER-LIGAND FREE ENERGY PREDICTED BY IDOCK:   -3.28 KCAL/MOL
REMARK 924 INTRA-LIGAND FREE ENERGY PREDICTED BY IDOCK:   -1.19 KCAL/MOL
REMARK 927      BINDING AFFINITY PREDICTED BY RF-SCORE:    0.00 PKD
ROOT
HETATM    1  C   UNL     1     -11.879  11.559  67.974  1.00  0.00    -0.217 C  
HETATM    2  O   UNL     1     -11.066  11.639  66.807  1.00  0.00    -0.284 OA 
ENDROOT
BRANCH   2   3
HETATM    3  C   UNL     1     -10.354  10.508  66.516  1.00  0.00    -0.233 A  
HETATM    4  C   UNL     1      -9.837  10.434  65.224  1.00  0.00    -0.361 A  
HETATM    5  C   UNL     1      -9.105   9.314  64.816  1.00  0.00    -0.201 A  
HETATM    6  C   UNL     1      -8.874   8.259  65.709  1.00  0.00    -0.194 A  
HETATM    7  C   UNL     1      -9.372   8.353  67.013  1.00  0.00    -0.202 A  
HETATM    8  C   UNL     1     -10.098   9.478  67.418  1.00  0.00    -0.262 A  
BRANCH   6   9
HETATM    9  C   UNL     1      -8.108   7.069  65.225  1.00  0.00    -0.134 C  
HETATM   10  O   UNL     1      -8.619   6.317  64.392  1.00  0.00     0.045 OA 
BRANCH   9  11
HETATM   11  C   UNL     1      -6.760   6.746  65.827  1.00  0.00    -0.052 C  
BRANCH  11  12
HETATM   12  C   UNL     1      -6.580   5.306  66.232  1.00  0.00    -0.052 C  
HETATM   13  O   UNL     1      -5.879   4.517  65.601  1.00  0.00    -0.021 OA 
BRANCH  12  14
HETATM   14  C   UNL     1      -7.300   4.814  67.437  1.00  0.00    -0.074 A  
HETATM   15  C   UNL     1      -7.167   5.552  68.613  1.00  0.00    -0.074 A  
HETATM   16  C   UNL     1      -7.758   5.110  69.796  1.00  0.00    -0.071 A  
HETATM   17  C   UNL     1      -8.505   3.922  69.843  1.00  0.00    -0.091 A  
HETATM   18  C   UNL     1      -8.081   3.656  67.442  1.00  0.00    -0.090 A  
HETATM   19  C   UNL     1      -8.679   3.221  68.633  1.00  0.00    -0.143 A  
BRANCH  17  20
HETATM   20  C   UNL     1      -9.088   3.377  71.161  1.00  0.00    -0.179 C  
HETATM   21  C   UNL     1      -9.873   2.057  70.978  1.00  0.00    -0.089 C  
HETATM   22  C   UNL     1      -7.959   3.108  72.175  1.00  0.00    -0.059 C  
HETATM   23  C   UNL     1     -10.070   4.406  71.763  1.00  0.00    -0.238 C  
ENDBRANCH  17  20
ENDBRANCH  12  14
ENDBRANCH  11  12
ENDBRANCH   9  11
ENDBRANCH   6   9
ENDBRANCH   2   3
TORSDOF 6
ENDMDL
MODEL      218
REMARK 921   NORMALIZED FREE ENERGY PREDICTED BY IDOCK:   -2.54 KCAL/MOL
REMARK 922        TOTAL FREE ENERGY PREDICTED BY IDOCK:   -4.43 KCAL/MOL
REMARK 923 INTER-LIGAND FREE ENERGY PREDICTED BY IDOCK:   -2.91 KCAL/MOL
REMARK 924 INTRA-LIGAND FREE ENERGY PREDICTED BY IDOCK:   -1.52 KCAL/MOL
REMARK 927      BINDING AFFINITY PREDICTED BY RF-SCORE:    0.00 PKD
ROOT
HETATM    1  C   UNL     1      -7.348   7.958  64.468  1.00  0.00    -0.086 C  
HETATM    2  O   UNL     1      -7.349   7.000  65.523  1.00  0.00    -0.074 OA 
ENDROOT
BRANCH   2   3
HETATM    3  C   UNL     1      -7.184   7.519  66.778  1.00  0.00    -0.084 A  
HETATM    4  C   UNL     1      -7.840   8.725  67.025  1.00  0.00    -0.095 A  
HETATM    5  C   UNL     1      -7.727   9.350  68.271  1.00  0.00    -0.083 A  
HETATM    6  C   UNL     1      -6.964   8.764  69.289  1.00  0.00    -0.058 A  
HETATM    7  C   UNL     1      -6.332   7.540  69.042  1.00  0.00    -0.039 A  
HETATM    8  C   UNL     1      -6.452   6.915  67.798  1.00  0.00    -0.050 A  
BRANCH   6   9
HETATM    9  C   UNL     1      -6.849   9.479  70.598  1.00  0.00    -0.115 C  
HETATM   10  O   UNL     1      -6.844  10.712  70.617  1.00  0.00    -0.303 OA 
BRANCH   9  11
HETATM   11  C   UNL     1      -6.648   8.689  71.870  1.00  0.00    -0.079 C  
BRANCH  11  12
HETATM   12  C   UNL     1      -7.902   8.066  72.428  1.00  0.00    -0.124 C  
HETATM   13  O   UNL     1      -8.640   8.646  73.222  1.00  0.00    -0.375 OA 
BRANCH  12  14
HETATM   14  C   UNL     1      -8.250   6.680  72.013  1.00  0.00    -0.106 A  
HETATM   15  C   UNL     1      -7.625   5.631  72.686  1.00  0.00    -0.098 A  
HETATM   16  C   UNL     1      -7.852   4.309  72.301  1.00  0.00    -0.086 A  
HETATM   17  C   UNL     1      -8.713   3.993  71.238  1.00  0.00    -0.125 A  
HETATM   18  C   UNL     1      -9.152   6.393  70.986  1.00  0.00    -0.154 A  
HETATM   19  C   UNL     1      -9.381   5.062  70.609  1.00  0.00    -0.216 A  
BRANCH  17  20
HETATM   20  C   UNL     1      -8.903   2.546  70.747  1.00  0.00    -0.137 C  
HETATM   21  C   UNL     1      -9.933   1.751  71.584  1.00  0.00    -0.207 C  
HETATM   22  C   UNL     1      -9.389   2.535  69.284  1.00  0.00    -0.183 C  
HETATM   23  C   UNL     1      -7.564   1.782  70.837  1.00  0.00    -0.032 C  
ENDBRANCH  17  20
ENDBRANCH  12  14
ENDBRANCH  11  12
ENDBRANCH   9  11
ENDBRANCH   6   9
ENDBRANCH   2   3
TORSDOF 6
ENDMDL
MODEL      219
REMARK 921   NORMALIZED FREE ENERGY PREDICTED BY IDOCK:   -2.52 KCAL/MOL
REMARK 922        TOTAL FREE ENERGY PREDICTED BY IDOCK:   -4.41 KCAL/MOL
REMARK 923 INTER-LIGAND FREE ENERGY PREDICTED BY IDOCK:   -4.07 KCAL/MOL
REMARK 924 INTRA-LIGAND FREE ENERGY PREDICTED BY IDOCK:   -0.34 KCAL/MOL
REMARK 927      BINDING AFFINITY PREDICTED BY RF-SCORE:    0.00 PKD
ROOT
HETATM    1  C   UNL     1      -8.920   5.509  71.895  1.00  0.00    -0.135 C  
HETATM    2  O   UNL     1      -9.555   6.393  72.814  1.00  0.00    -0.151 OA 
ENDROOT
BRANCH   2   3
HETATM    3  C   UNL     1     -10.110   7.511  72.254  1.00  0.00    -0.199 A  
HETATM    4  C   UNL     1      -9.526   7.945  71.065  1.00  0.00    -0.172 A  
HETATM    5  C   UNL     1     -10.006   9.088  70.416  1.00  0.00    -0.244 A  
HETATM    6  C   UNL     1     -11.089   9.800  70.948  1.00  0.00    -0.428 A  
HETATM    7  C   UNL     1     -11.688   9.341  72.127  1.00  0.00    -0.217 A  
HETATM    8  C   UNL     1     -11.208   8.196  72.770  1.00  0.00    -0.407 A  
BRANCH   6   9
HETATM    9  C   UNL     1     -11.555  11.030  70.236  1.00  0.00    -0.322 C  
HETATM   10  O   UNL     1     -12.338  11.798  70.801  1.00  0.00    -0.374 OA 
BRANCH   9  11
HETATM   11  C   UNL     1     -11.138  11.274  68.804  1.00  0.00    -0.288 C  
BRANCH  11  12
HETATM   12  C   UNL     1      -9.647  11.328  68.585  1.00  0.00    -0.190 C  
HETATM   13  O   UNL     1      -8.936  12.218  69.047  1.00  0.00     0.196 OA 
BRANCH  12  14
HETATM   14  C   UNL     1      -9.015  10.268  67.755  1.00  0.00    -0.135 A  
HETATM   15  C   UNL     1      -7.639  10.083  67.885  1.00  0.00    -0.089 A  
HETATM   16  C   UNL     1      -6.971   9.155  67.087  1.00  0.00    -0.081 A  
HETATM   17  C   UNL     1      -7.654   8.378  66.138  1.00  0.00    -0.089 A  
HETATM   18  C   UNL     1      -9.729   9.473  66.856  1.00  0.00    -0.237 A  
HETATM   19  C   UNL     1      -9.053   8.536  66.062  1.00  0.00    -0.246 A  
BRANCH  17  20
HETATM   20  C   UNL     1      -6.917   7.415  65.190  1.00  0.00    -0.058 C  
HETATM   21  C   UNL     1      -7.873   6.596  64.291  1.00  0.00    -0.115 C  
HETATM   22  C   UNL     1      -5.967   8.198  64.262  1.00  0.00    -0.057 C  
HETATM   23  C   UNL     1      -6.093   6.400  66.012  1.00  0.00    -0.033 C  
ENDBRANCH  17  20
ENDBRANCH  12  14
ENDBRANCH  11  12
ENDBRANCH   9  11
ENDBRANCH   6   9
ENDBRANCH   2   3
TORSDOF 6
ENDMDL
MODEL      220
REMARK 921   NORMALIZED FREE ENERGY PREDICTED BY IDOCK:   -2.31 KCAL/MOL
REMARK 922        TOTAL FREE ENERGY PREDICTED BY IDOCK:   -4.12 KCAL/MOL
REMARK 923 INTER-LIGAND FREE ENERGY PREDICTED BY IDOCK:   -3.09 KCAL/MOL
REMARK 924 INTRA-LIGAND FREE ENERGY PREDICTED BY IDOCK:   -1.03 KCAL/MOL
REMARK 927      BINDING AFFINITY PREDICTED BY RF-SCORE:    0.00 PKD
ROOT
HETATM    1  C   UNL     1     -11.412  10.931  68.754  1.00  0.00    -0.308 C  
HETATM    2  O   UNL     1     -10.639  10.650  67.590  1.00  0.00    -0.210 OA 
ENDROOT
BRANCH   2   3
HETATM    3  C   UNL     1     -10.110   9.390  67.537  1.00  0.00    -0.215 A  
HETATM    4  C   UNL     1      -9.210   9.155  66.498  1.00  0.00    -0.221 A  
HETATM    5  C   UNL     1      -8.621   7.896  66.341  1.00  0.00    -0.156 A  
HETATM    6  C   UNL     1      -8.920   6.861  67.235  1.00  0.00    -0.118 A  
HETATM    7  C   UNL     1      -9.803   7.111  68.292  1.00  0.00    -0.159 A  
HETATM    8  C   UNL     1     -10.385   8.373  68.448  1.00  0.00    -0.239 A  
BRANCH   6   9
HETATM    9  C   UNL     1      -8.288   5.523  67.017  1.00  0.00    -0.107 C  
HETATM   10  O   UNL     1      -8.992   4.567  66.683  1.00  0.00    -0.111 OA 
BRANCH   9  11
HETATM   11  C   UNL     1      -6.815   5.332  67.295  1.00  0.00    -0.060 C  
BRANCH  11  12
HETATM   12  C   UNL     1      -6.486   4.130  68.143  1.00  0.00    -0.038 C  
HETATM   13  O   UNL     1      -5.622   3.312  67.834  1.00  0.00    -0.017 OA 
BRANCH  12  14
HETATM   14  C   UNL     1      -7.256   3.916  69.397  1.00  0.00    -0.046 A  
HETATM   15  C   UNL     1      -8.187   2.877  69.412  1.00  0.00    -0.071 A  
HETATM   16  C   UNL     1      -8.992   2.665  70.531  1.00  0.00    -0.164 A  
HETATM   17  C   UNL     1      -8.891   3.477  71.672  1.00  0.00    -0.139 A  
HETATM   18  C   UNL     1      -7.097   4.707  70.537  1.00  0.00    -0.048 A  
HETATM   19  C   UNL     1      -7.904   4.484  71.662  1.00  0.00    -0.091 A  
BRANCH  17  20
HETATM   20  C   UNL     1      -9.833   3.310  72.878  1.00  0.00    -0.195 C  
HETATM   21  C   UNL     1      -9.097   2.885  74.170  1.00  0.00    -0.089 C  
HETATM   22  C   UNL     1     -10.564   4.634  73.176  1.00  0.00    -0.283 C  
HETATM   23  C   UNL     1     -10.880   2.215  72.576  1.00  0.00    -0.002 C  
ENDBRANCH  17  20
ENDBRANCH  12  14
ENDBRANCH  11  12
ENDBRANCH   9  11
ENDBRANCH   6   9
ENDBRANCH   2   3
TORSDOF 6
ENDMDL
MODEL      221
REMARK 921   NORMALIZED FREE ENERGY PREDICTED BY IDOCK:   -2.28 KCAL/MOL
REMARK 922        TOTAL FREE ENERGY PREDICTED BY IDOCK:   -4.08 KCAL/MOL
REMARK 923 INTER-LIGAND FREE ENERGY PREDICTED BY IDOCK:   -3.23 KCAL/MOL
REMARK 924 INTRA-LIGAND FREE ENERGY PREDICTED BY IDOCK:   -0.85 KCAL/MOL
REMARK 927      BINDING AFFINITY PREDICTED BY RF-SCORE:    0.00 PKD
ROOT
HETATM    1  C   UNL     1     -13.467   8.848  72.905  1.00  0.00    -0.009 C  
HETATM    2  O   UNL     1     -13.450   8.621  71.498  1.00  0.00    -0.343 OA 
ENDROOT
BRANCH   2   3
HETATM    3  C   UNL     1     -12.496   9.318  70.810  1.00  0.00    -0.043 A  
HETATM    4  C   UNL     1     -11.355   8.596  70.459  1.00  0.00    -0.241 A  
HETATM    5  C   UNL     1     -10.310   9.216  69.766  1.00  0.00    -0.226 A  
HETATM    6  C   UNL     1     -10.404  10.566  69.406  1.00  0.00    -0.258 A  
HETATM    7  C   UNL     1     -11.564  11.276  69.737  1.00  0.00    -0.408 A  
HETATM    8  C   UNL     1     -12.609  10.652  70.424  1.00  0.00    -0.395 A  
BRANCH   6   9
HETATM    9  C   UNL     1      -9.254  11.197  68.688  1.00  0.00    -0.171 C  
HETATM   10  O   UNL     1      -9.429  11.678  67.566  1.00  0.00    -0.168 OA 
BRANCH   9  11
HETATM   11  C   UNL     1      -7.873  11.159  69.301  1.00  0.00    -0.007 C  
BRANCH  11  12
HETATM   12  C   UNL     1      -7.050   9.955  68.920  1.00  0.00    -0.071 C  
HETATM   13  O   UNL     1      -6.458   9.262  69.745  1.00  0.00    -0.038 OA 
BRANCH  12  14
HETATM   14  C   UNL     1      -6.933   9.604  67.479  1.00  0.00    -0.084 A  
HETATM   15  C   UNL     1      -7.316   8.319  67.096  1.00  0.00    -0.088 A  
HETATM   16  C   UNL     1      -7.166   7.901  65.774  1.00  0.00    -0.071 A  
HETATM   17  C   UNL     1      -6.638   8.753  64.790  1.00  0.00    -0.066 A  
HETATM   18  C   UNL     1      -6.453  10.490  66.512  1.00  0.00    -0.099 A  
HETATM   19  C   UNL     1      -6.313  10.067  65.183  1.00  0.00    -0.114 A  
BRANCH  17  20
HETATM   20  C   UNL     1      -6.386   8.275  63.348  1.00  0.00    -0.080 C  
HETATM   21  C   UNL     1      -5.777   9.372  62.444  1.00  0.00    -0.085 C  
HETATM   22  C   UNL     1      -5.416   7.077  63.342  1.00  0.00    -0.032 C  
HETATM   23  C   UNL     1      -7.720   7.846  62.699  1.00  0.00    -0.132 C  
ENDBRANCH  17  20
ENDBRANCH  12  14
ENDBRANCH  11  12
ENDBRANCH   9  11
ENDBRANCH   6   9
ENDBRANCH   2   3
TORSDOF 6
ENDMDL
MODEL      222
REMARK 921   NORMALIZED FREE ENERGY PREDICTED BY IDOCK:   -1.91 KCAL/MOL
REMARK 922        TOTAL FREE ENERGY PREDICTED BY IDOCK:   -3.59 KCAL/MOL
REMARK 923 INTER-LIGAND FREE ENERGY PREDICTED BY IDOCK:   -2.47 KCAL/MOL
REMARK 924 INTRA-LIGAND FREE ENERGY PREDICTED BY IDOCK:   -1.11 KCAL/MOL
REMARK 927      BINDING AFFINITY PREDICTED BY RF-SCORE:    0.00 PKD
ROOT
HETATM    1  C   UNL     1     -11.413  10.931  68.754  1.00  0.00    -0.308 C  
HETATM    2  O   UNL     1     -10.635  10.635  67.597  1.00  0.00    -0.210 OA 
ENDROOT
BRANCH   2   3
HETATM    3  C   UNL     1     -10.119   9.370  67.554  1.00  0.00    -0.215 A  
HETATM    4  C   UNL     1      -9.729   8.918  66.293  1.00  0.00    -0.345 A  
HETATM    5  C   UNL     1      -9.202   7.633  66.133  1.00  0.00    -0.168 A  
HETATM    6  C   UNL     1      -9.048   6.789  67.241  1.00  0.00    -0.121 A  
HETATM    7  C   UNL     1      -9.416   7.259  68.506  1.00  0.00    -0.140 A  
HETATM    8  C   UNL     1      -9.937   8.547  68.663  1.00  0.00    -0.197 A  
BRANCH   6   9
HETATM    9  C   UNL     1      -8.505   5.413  67.022  1.00  0.00    -0.106 C  
HETATM   10  O   UNL     1      -9.238   4.437  67.193  1.00  0.00    -0.124 OA 
BRANCH   9  11
HETATM   11  C   UNL     1      -7.043   5.227  66.684  1.00  0.00    -0.069 C  
BRANCH  11  12
HETATM   12  C   UNL     1      -6.333   4.190  67.516  1.00  0.00    -0.037 C  
HETATM   13  O   UNL     1      -5.640   3.300  67.027  1.00  0.00    -0.020 OA 
BRANCH  12  14
HETATM   14  C   UNL     1      -6.495   4.237  68.994  1.00  0.00    -0.040 A  
HETATM   15  C   UNL     1      -6.170   5.429  69.641  1.00  0.00    -0.026 A  
HETATM   16  C   UNL     1      -6.231   5.519  71.031  1.00  0.00    -0.034 A  
HETATM   17  C   UNL     1      -6.626   4.426  71.820  1.00  0.00    -0.026 A  
HETATM   18  C   UNL     1      -6.941   3.149  69.749  1.00  0.00    -0.041 A  
HETATM   19  C   UNL     1      -7.009   3.249  71.146  1.00  0.00    -0.032 A  
BRANCH  17  20
HETATM   20  C   UNL     1      -6.614   4.486  73.359  1.00  0.00    -0.056 C  
HETATM   21  C   UNL     1      -8.022   4.344  73.983  1.00  0.00    -0.093 C  
HETATM   22  C   UNL     1      -5.737   3.355  73.932  1.00  0.00    -0.003 C  
HETATM   23  C   UNL     1      -6.050   5.845  73.825  1.00  0.00    -0.063 C  
ENDBRANCH  17  20
ENDBRANCH  12  14
ENDBRANCH  11  12
ENDBRANCH   9  11
ENDBRANCH   6   9
ENDBRANCH   2   3
TORSDOF 6
ENDMDL
MODEL      223
REMARK 921   NORMALIZED FREE ENERGY PREDICTED BY IDOCK:   -1.27 KCAL/MOL
REMARK 922        TOTAL FREE ENERGY PREDICTED BY IDOCK:   -2.71 KCAL/MOL
REMARK 923 INTER-LIGAND FREE ENERGY PREDICTED BY IDOCK:   -1.98 KCAL/MOL
REMARK 924 INTRA-LIGAND FREE ENERGY PREDICTED BY IDOCK:   -0.73 KCAL/MOL
REMARK 927      BINDING AFFINITY PREDICTED BY RF-SCORE:    0.00 PKD
ROOT
HETATM    1  C   UNL     1     -12.682  13.875  68.603  1.00  0.00     0.885 C  
HETATM    2  O   UNL     1     -11.645  12.968  68.241  1.00  0.00    -0.295 OA 
ENDROOT
BRANCH   2   3
HETATM    3  C   UNL     1     -11.470  11.915  69.095  1.00  0.00    -0.296 A  
HETATM    4  C   UNL     1     -12.519  11.675  69.982  1.00  0.00    -0.166 A  
HETATM    5  C   UNL     1     -12.438  10.632  70.910  1.00  0.00    -0.495 A  
HETATM    6  C   UNL     1     -11.306   9.808  70.949  1.00  0.00    -0.439 A  
HETATM    7  C   UNL     1     -10.269  10.037  70.037  1.00  0.00    -0.306 A  
HETATM    8  C   UNL     1     -10.357  11.077  69.107  1.00  0.00    -0.210 A  
BRANCH   6   9
HETATM    9  C   UNL     1     -11.248   8.719  71.973  1.00  0.00    -0.373 C  
HETATM   10  O   UNL     1     -10.427   8.792  72.891  1.00  0.00     0.086 OA 
BRANCH   9  11
HETATM   11  C   UNL     1     -12.129   7.500  71.826  1.00  0.00    -0.340 C  
BRANCH  11  12
HETATM   12  C   UNL     1     -11.703   6.544  70.741  1.00  0.00    -0.366 C  
HETATM   13  O   UNL     1     -12.491   6.056  69.933  1.00  0.00     1.289 OA 
BRANCH  12  14
HETATM   14  C   UNL     1     -10.268   6.162  70.658  1.00  0.00    -0.250 A  
HETATM   15  C   UNL     1      -9.568   6.024  71.856  1.00  0.00    -0.166 A  
HETATM   16  C   UNL     1      -8.203   5.736  71.849  1.00  0.00    -0.119 A  
HETATM   17  C   UNL     1      -7.495   5.569  70.648  1.00  0.00    -0.084 A  
HETATM   18  C   UNL     1      -9.601   5.950  69.449  1.00  0.00    -0.171 A  
HETATM   19  C   UNL     1      -8.231   5.653  69.449  1.00  0.00    -0.103 A  
BRANCH  17  20
HETATM   20  C   UNL     1      -5.973   5.339  70.624  1.00  0.00    -0.021 C  
HETATM   21  C   UNL     1      -5.174   6.494  71.273  1.00  0.00    -0.026 C  
HETATM   22  C   UNL     1      -5.615   4.045  71.383  1.00  0.00    -0.008 C  
HETATM   23  C   UNL     1      -5.484   5.218  69.164  1.00  0.00    -0.004 C  
ENDBRANCH  17  20
ENDBRANCH  12  14
ENDBRANCH  11  12
ENDBRANCH   9  11
ENDBRANCH   6   9
ENDBRANCH   2   3
TORSDOF 6
ENDMDL
MODEL      224
REMARK 921   NORMALIZED FREE ENERGY PREDICTED BY IDOCK:   -1.22 KCAL/MOL
REMARK 922        TOTAL FREE ENERGY PREDICTED BY IDOCK:   -2.65 KCAL/MOL
REMARK 923 INTER-LIGAND FREE ENERGY PREDICTED BY IDOCK:   -2.76 KCAL/MOL
REMARK 924 INTRA-LIGAND FREE ENERGY PREDICTED BY IDOCK:    0.11 KCAL/MOL
REMARK 927      BINDING AFFINITY PREDICTED BY RF-SCORE:    0.00 PKD
ROOT
HETATM    1  C   UNL     1      -7.951   5.605  70.527  1.00  0.00    -0.104 C  
HETATM    2  O   UNL     1      -8.466   6.685  71.301  1.00  0.00    -0.124 OA 
ENDROOT
BRANCH   2   3
HETATM    3  C   UNL     1      -8.807   7.800  70.586  1.00  0.00    -0.144 A  
HETATM    4  C   UNL     1      -8.151   7.961  69.367  1.00  0.00    -0.125 A  
HETATM    5  C   UNL     1      -8.414   9.075  68.563  1.00  0.00    -0.128 A  
HETATM    6  C   UNL     1      -9.350  10.034  68.969  1.00  0.00    -0.183 A  
HETATM    7  C   UNL     1     -10.025   9.851  70.181  1.00  0.00    -0.291 A  
HETATM    8  C   UNL     1      -9.764   8.733  70.979  1.00  0.00    -0.292 A  
BRANCH   6   9
HETATM    9  C   UNL     1      -9.583  11.223  68.092  1.00  0.00    -0.186 C  
HETATM   10  O   UNL     1     -10.182  12.202  68.543  1.00  0.00    -0.216 OA 
BRANCH   9  11
HETATM   11  C   UNL     1      -9.166  11.179  66.640  1.00  0.00    -0.188 C  
BRANCH  11  12
HETATM   12  C   UNL     1      -7.765  10.678  66.403  1.00  0.00    -0.141 C  
HETATM   13  O   UNL     1      -6.765  11.290  66.774  1.00  0.00    -0.122 OA 
BRANCH  12  14
HETATM   14  C   UNL     1      -7.585   9.395  65.671  1.00  0.00    -0.095 A  
HETATM   15  C   UNL     1      -6.375   8.723  65.837  1.00  0.00    -0.056 A  
HETATM   16  C   UNL     1      -6.113   7.552  65.126  1.00  0.00    -0.038 A  
HETATM   17  C   UNL     1      -7.053   7.011  64.233  1.00  0.00    -0.059 A  
HETATM   18  C   UNL     1      -8.559   8.853  64.830  1.00  0.00    -0.184 A  
HETATM   19  C   UNL     1      -8.293   7.671  64.124  1.00  0.00     0.100 A  
BRANCH  17  20
HETATM   20  C   UNL     1      -6.742   5.769  63.377  1.00  0.00    -0.036 C  
HETATM   21  C   UNL     1      -7.949   5.295  62.535  1.00  0.00    -0.087 C  
HETATM   22  C   UNL     1      -5.585   6.065  62.403  1.00  0.00    -0.022 C  
HETATM   23  C   UNL     1      -6.340   4.591  64.292  1.00  0.00    -0.033 C  
ENDBRANCH  17  20
ENDBRANCH  12  14
ENDBRANCH  11  12
ENDBRANCH   9  11
ENDBRANCH   6   9
ENDBRANCH   2   3
TORSDOF 6
ENDMDL
MODEL      225
REMARK 921   NORMALIZED FREE ENERGY PREDICTED BY IDOCK:    0.93 KCAL/MOL
REMARK 922        TOTAL FREE ENERGY PREDICTED BY IDOCK:    0.25 KCAL/MOL
REMARK 923 INTER-LIGAND FREE ENERGY PREDICTED BY IDOCK:   -0.06 KCAL/MOL
REMARK 924 INTRA-LIGAND FREE ENERGY PREDICTED BY IDOCK:    0.31 KCAL/MOL
REMARK 927      BINDING AFFINITY PREDICTED BY RF-SCORE:    0.00 PKD
ROOT
HETATM    1  C   UNL     1     -13.011  10.644  70.381  1.00  0.00    -0.145 C  
HETATM    2  O   UNL     1     -11.818  11.423  70.378  1.00  0.00    -0.336 OA 
ENDROOT
BRANCH   2   3
HETATM    3  C   UNL     1     -11.210  11.549  69.160  1.00  0.00    -0.274 A  
HETATM    4  C   UNL     1     -10.019  10.840  69.002  1.00  0.00    -0.214 A  
HETATM    5  C   UNL     1      -9.307  10.910  67.801  1.00  0.00    -0.162 A  
HETATM    6  C   UNL     1      -9.790  11.683  66.737  1.00  0.00    -0.222 A  
HETATM    7  C   UNL     1     -11.000  12.369  66.893  1.00  0.00    -0.307 A  
HETATM    8  C   UNL     1     -11.711  12.292  68.094  1.00  0.00    -0.408 A  
BRANCH   6   9
HETATM    9  C   UNL     1      -8.985  11.750  65.478  1.00  0.00     0.104 C  
HETATM   10  O   UNL     1      -7.941  11.100  65.391  1.00  0.00     0.056 OA 
BRANCH   9  11
HETATM   11  C   UNL     1      -9.406  12.681  64.365  1.00  0.00     0.629 C  
BRANCH  11  12
HETATM   12  C   UNL     1     -10.005  13.985  64.829  1.00  0.00    -0.039 C  
HETATM   13  O   UNL     1     -11.057  14.434  64.379  1.00  0.00    -0.318 OA 
BRANCH  12  14
HETATM   14  C   UNL     1      -9.277  14.771  65.861  1.00  0.00    -0.076 A  
HETATM   15  C   UNL     1     -10.033  15.585  66.703  1.00  0.00    -0.272 A  
HETATM   16  C   UNL     1      -9.409  16.402  67.645  1.00  0.00    -0.212 A  
HETATM   17  C   UNL     1      -8.012  16.427  67.784  1.00  0.00    -0.160 A  
HETATM   18  C   UNL     1      -7.889  14.736  66.010  1.00  0.00     2.391 A  
HETATM   19  C   UNL     1      -7.268  15.553  66.966  1.00  0.00    -0.124 A  
BRANCH  17  20
HETATM   20  C   UNL     1      -7.307  17.387  68.759  1.00  0.00    -0.257 C  
HETATM   21  C   UNL     1      -6.862  16.701  70.071  1.00  0.00     0.448 C  
HETATM   22  C   UNL     1      -6.049  17.990  68.102  1.00  0.00    -0.176 C  
HETATM   23  C   UNL     1      -8.267  18.531  69.152  1.00  0.00     0.013 C  
ENDBRANCH  17  20
ENDBRANCH  12  14
ENDBRANCH  11  12
ENDBRANCH   9  11
ENDBRANCH   6   9
ENDBRANCH   2   3
TORSDOF 6
ENDMDL
MODEL      226
REMARK 921   NORMALIZED FREE ENERGY PREDICTED BY IDOCK:    1.41 KCAL/MOL
REMARK 922        TOTAL FREE ENERGY PREDICTED BY IDOCK:    0.90 KCAL/MOL
REMARK 923 INTER-LIGAND FREE ENERGY PREDICTED BY IDOCK:    0.95 KCAL/MOL
REMARK 924 INTRA-LIGAND FREE ENERGY PREDICTED BY IDOCK:   -0.05 KCAL/MOL
REMARK 927      BINDING AFFINITY PREDICTED BY RF-SCORE:    0.00 PKD
ROOT
HETATM    1  C   UNL     1     -11.655  10.575  68.218  1.00  0.00    -0.101 C  
HETATM    2  O   UNL     1     -10.967  10.526  66.971  1.00  0.00    -0.257 OA 
ENDROOT
BRANCH   2   3
HETATM    3  C   UNL     1     -10.657   9.269  66.528  1.00  0.00    -0.047 A  
HETATM    4  C   UNL     1      -9.712   9.205  65.506  1.00  0.00    -0.171 A  
HETATM    5  C   UNL     1      -9.332   7.970  64.968  1.00  0.00     0.803 A  
HETATM    6  C   UNL     1      -9.890   6.784  65.463  1.00  0.00     1.028 A  
HETATM    7  C   UNL     1     -10.817   6.855  66.508  1.00  0.00     0.138 A  
HETATM    8  C   UNL     1     -11.189   8.091  67.046  1.00  0.00     0.773 A  
BRANCH   6   9
HETATM    9  C   UNL     1      -9.476   5.487  64.843  1.00  0.00     0.441 C  
HETATM   10  O   UNL     1     -10.339   4.672  64.508  1.00  0.00     0.086 OA 
BRANCH   9  11
HETATM   11  C   UNL     1      -8.009   5.148  64.717  1.00  0.00    -0.104 C  
BRANCH  11  12
HETATM   12  C   UNL     1      -7.186   5.451  65.943  1.00  0.00    -0.069 C  
HETATM   13  O   UNL     1      -5.958   5.497  65.929  1.00  0.00    -0.024 OA 
BRANCH  12  14
HETATM   14  C   UNL     1      -7.894   5.686  67.231  1.00  0.00    -0.101 A  
HETATM   15  C   UNL     1      -7.720   6.926  67.845  1.00  0.00    -0.112 A  
HETATM   16  C   UNL     1      -8.298   7.187  69.087  1.00  0.00    -0.129 A  
HETATM   17  C   UNL     1      -9.073   6.223  69.753  1.00  0.00    -0.143 A  
HETATM   18  C   UNL     1      -8.702   4.726  67.845  1.00  0.00    -0.109 A  
HETATM   19  C   UNL     1      -9.287   4.998  69.090  1.00  0.00    -0.174 A  
BRANCH  17  20
HETATM   20  C   UNL     1      -9.642   6.468  71.162  1.00  0.00    -0.181 C  
HETATM   21  C   UNL     1     -10.309   7.855  71.315  1.00  0.00    -0.222 C  
HETATM   22  C   UNL     1     -10.703   5.403  71.504  1.00  0.00    -0.262 C  
HETATM   23  C   UNL     1      -8.505   6.397  72.205  1.00  0.00    -0.111 C  
ENDBRANCH  17  20
ENDBRANCH  12  14
ENDBRANCH  11  12
ENDBRANCH   9  11
ENDBRANCH   6   9
ENDBRANCH   2   3
TORSDOF 6
ENDMDL
MODEL      227
REMARK 921   NORMALIZED FREE ENERGY PREDICTED BY IDOCK:   32.39 KCAL/MOL
REMARK 922        TOTAL FREE ENERGY PREDICTED BY IDOCK:   42.75 KCAL/MOL
REMARK 923 INTER-LIGAND FREE ENERGY PREDICTED BY IDOCK:   14.00 KCAL/MOL
REMARK 924 INTRA-LIGAND FREE ENERGY PREDICTED BY IDOCK:   28.75 KCAL/MOL
REMARK 927      BINDING AFFINITY PREDICTED BY RF-SCORE:    0.00 PKD
ROOT
HETATM    1  C   UNL     1      -7.980   5.566  70.516  1.00  0.00    -0.103 C  
HETATM    2  O   UNL     1      -8.712   6.610  71.153  1.00  0.00    -0.136 OA 
ENDROOT
BRANCH   2   3
HETATM    3  C   UNL     1      -9.402   7.434  70.308  1.00  0.00    -0.162 A  
HETATM    4  C   UNL     1      -9.020   8.775  70.325  1.00  0.00    -0.174 A  
HETATM    5  C   UNL     1      -9.670   9.708  69.511  1.00  0.00    -0.216 A  
HETATM    6  C   UNL     1     -10.706   9.301  68.659  1.00  0.00    -0.180 A  
HETATM    7  C   UNL     1     -11.065   7.949  68.628  1.00  0.00     0.278 A  
HETATM    8  C   UNL     1     -10.409   7.019  69.439  1.00  0.00    -0.218 A  
BRANCH   6   9
HETATM    9  C   UNL     1     -11.392  10.334  67.824  1.00  0.00    -0.059 C  
HETATM   10  O   UNL     1     -12.421  10.035  67.213  1.00  0.00     3.696 OA 
BRANCH   9  11
HETATM   11  C   UNL     1     -10.773  11.704  67.662  1.00  0.00    -0.249 C  
BRANCH  11  12
HETATM   12  C   UNL     1     -10.013  12.196  68.868  1.00  0.00     0.043 C  
HETATM   13  O   UNL     1     -10.108  13.345  69.293  1.00  0.00     0.152 OA 
BRANCH  12  14
HETATM   14  C   UNL     1      -9.093  11.252  69.559  1.00  0.00     0.609 A  
HETATM   15  C   UNL     1      -9.051  11.298  70.952  1.00  0.00     5.986 A  
HETATM   16  C   UNL     1      -8.161  10.491  71.659  1.00  0.00     5.074 A  
HETATM   17  C   UNL     1      -7.289   9.608  71.001  1.00  0.00     0.108 A  
HETATM   18  C   UNL     1      -8.275  10.347  68.879  1.00  0.00    -0.132 A  
HETATM   19  C   UNL     1      -7.387   9.533  69.597  1.00  0.00    -0.084 A  
BRANCH  17  20
HETATM   20  C   UNL     1      -6.241   8.778  71.764  1.00  0.00    -0.073 C  
HETATM   21  C   UNL     1      -5.174   9.647  72.470  1.00  0.00    -0.037 C  
HETATM   22  C   UNL     1      -6.924   7.915  72.845  1.00  0.00    -0.097 C  
HETATM   23  C   UNL     1      -5.490   7.852  70.782  1.00  0.00    -0.026 C  
ENDBRANCH  17  20
ENDBRANCH  12  14
ENDBRANCH  11  12
ENDBRANCH   9  11
ENDBRANCH   6   9
ENDBRANCH   2   3
TORSDOF 6
ENDMDL
MODEL      228
REMARK 921   NORMALIZED FREE ENERGY PREDICTED BY IDOCK:   60.79 KCAL/MOL
REMARK 922        TOTAL FREE ENERGY PREDICTED BY IDOCK:   81.12 KCAL/MOL
REMARK 923 INTER-LIGAND FREE ENERGY PREDICTED BY IDOCK:   78.78 KCAL/MOL
REMARK 924 INTRA-LIGAND FREE ENERGY PREDICTED BY IDOCK:    2.33 KCAL/MOL
REMARK 927      BINDING AFFINITY PREDICTED BY RF-SCORE:    0.00 PKD
ROOT
HETATM    1  C   UNL     1     -13.113  17.293  67.784  1.00  0.00     6.245 C  
HETATM    2  O   UNL     1     -13.441  15.941  67.475  1.00  0.00     4.226 OA 
ENDROOT
BRANCH   2   3
HETATM    3  C   UNL     1     -12.382  15.155  67.113  1.00  0.00     0.653 A  
HETATM    4  C   UNL     1     -11.786  14.430  68.144  1.00  0.00    -0.377 A  
HETATM    5  C   UNL     1     -10.685  13.606  67.888  1.00  0.00    -0.257 A  
HETATM    6  C   UNL     1     -10.178  13.491  66.587  1.00  0.00    -0.275 A  
HETATM    7  C   UNL     1     -10.799  14.200  65.552  1.00  0.00    -0.312 A  
HETATM    8  C   UNL     1     -11.902  15.018  65.812  1.00  0.00    -0.029 A  
BRANCH   6   9
HETATM    9  C   UNL     1      -8.984  12.619  66.360  1.00  0.00    -0.050 C  
HETATM   10  O   UNL     1      -8.672  12.306  65.208  1.00  0.00     0.585 OA 
BRANCH   9  11
HETATM   11  C   UNL     1      -8.227  12.057  67.541  1.00  0.00    -0.159 C  
BRANCH  11  12
HETATM   12  C   UNL     1      -9.010  12.020  68.829  1.00  0.00     0.085 C  
HETATM   13  O   UNL     1      -9.714  11.067  69.155  1.00  0.00    -0.173 OA 
BRANCH  12  14
HETATM   14  C   UNL     1      -8.942  13.199  69.733  1.00  0.00     2.324 A  
HETATM   15  C   UNL     1      -9.609  13.114  70.955  1.00  0.00     7.923 A  
HETATM   16  C   UNL     1      -9.644  14.207  71.820  1.00  0.00     6.930 A  
HETATM   17  C   UNL     1      -9.010  15.418  71.497  1.00  0.00     4.266 A  
HETATM   18  C   UNL     1      -8.258  14.373  69.408  1.00  0.00     0.217 A  
HETATM   19  C   UNL     1      -8.291  15.467  70.286  1.00  0.00     0.858 A  
BRANCH  17  20
HETATM   20  C   UNL     1      -9.116  16.659  72.402  1.00  0.00    12.514 C  
HETATM   21  C   UNL     1      -8.014  16.717  73.485  1.00  0.00    17.832 C  
HETATM   22  C   UNL     1      -9.006  17.947  71.561  1.00  0.00    10.104 C  
HETATM   23  C   UNL     1     -10.473  16.655  73.140  1.00  0.00     5.653 C  
ENDBRANCH  17  20
ENDBRANCH  12  14
ENDBRANCH  11  12
ENDBRANCH   9  11
ENDBRANCH   6   9
ENDBRANCH   2   3
TORSDOF 6
ENDMDL
