MODEL        1
REMARK 921   NORMALIZED FREE ENERGY PREDICTED BY IDOCK:   -7.36 KCAL/MOL
REMARK 922        TOTAL FREE ENERGY PREDICTED BY IDOCK:  -10.54 KCAL/MOL
REMARK 923 INTER-LIGAND FREE ENERGY PREDICTED BY IDOCK:   -9.52 KCAL/MOL
REMARK 924 INTRA-LIGAND FREE ENERGY PREDICTED BY IDOCK:   -1.02 KCAL/MOL
REMARK 927      BINDING AFFINITY PREDICTED BY RF-SCORE:    0.00 PKD
ROOT
HETATM    1  C   UNL     1      -7.408  15.107  69.514  1.00  0.00    -0.210 C  
HETATM    2  N   UNL     1      -8.022  16.315  69.034  1.00  0.00    -0.234 N  
HETATM    3  C   UNL     1      -7.769  16.794  67.767  1.00  0.00    -0.168 C  
HETATM    4  H   UNL     1      -8.660  16.828  69.643  1.00  0.00     0.000 HD 
HETATM    5  O   UNL     1      -6.887  16.349  67.038  1.00  0.00    -0.184 OA 
ENDROOT
BRANCH   3   6
HETATM    6  C   UNL     1      -8.597  17.960  67.327  1.00  0.00    -0.241 A  
HETATM    7  C   UNL     1      -9.870  17.843  66.719  1.00  0.00    -0.333 A  
HETATM    8  C   UNL     1     -10.576  19.021  66.426  1.00  0.00    -0.492 A  
HETATM    9  C   UNL     1      -8.733  20.381  67.216  1.00  0.00    -0.429 A  
HETATM   10  C   UNL     1     -10.014  20.279  66.683  1.00  0.00    -0.561 A  
HETATM   11  C   UNL     1      -8.028  19.225  67.542  1.00  0.00    -0.290 A  
BRANCH   7  12
HETATM   12  S   UNL     1     -10.440  16.263  66.099  1.00  0.00    -0.298 SA 
BRANCH  12  13
HETATM   13  C   UNL     1     -11.244  15.385  67.417  1.00  0.00    -0.287 A  
HETATM   14  C   UNL     1     -11.390  14.005  67.254  1.00  0.00    -0.350 A  
HETATM   15  C   UNL     1     -11.805  13.181  68.306  1.00  0.00    -0.384 A  
HETATM   16  C   UNL     1     -12.070  13.754  69.564  1.00  0.00    -0.386 A  
HETATM   17  C   UNL     1     -11.910  15.131  69.707  1.00  0.00    -0.333 A  
HETATM   18  C   UNL     1     -11.520  15.980  68.656  1.00  0.00    -0.377 A  
HETATM   19  N   UNL     1     -12.165  15.378  71.028  1.00  0.00    -0.341 NA 
HETATM   20  N   UNL     1     -12.482  14.290  71.745  1.00  0.00    -0.337 NA 
HETATM   21  H   UNL     1     -12.118  16.312  71.434  1.00  0.00     0.000 HD 
HETATM   22  C   UNL     1     -12.465  13.287  70.858  1.00  0.00    -0.342 A  
BRANCH  22  23
HETATM   23  C   UNL     1     -12.808  11.949  71.241  1.00  0.00    -0.391 C  
HETATM   24  C   UNL     1     -12.162  10.827  70.872  1.00  0.00    -0.487 C  
BRANCH  24  25
HETATM   25  C   UNL     1     -12.604   9.465  71.199  1.00  0.00    -0.282 A  
HETATM   26  C   UNL     1     -11.730   8.394  71.035  1.00  0.00    -0.296 A  
HETATM   27  C   UNL     1     -12.192   7.103  71.277  1.00  0.00    -0.403 A  
HETATM   28  C   UNL     1     -13.508   6.917  71.680  1.00  0.00    -0.284 A  
HETATM   29  C   UNL     1     -14.305   8.037  71.835  1.00  0.00    -0.457 A  
HETATM   30  N   UNL     1     -13.883   9.301  71.609  1.00  0.00    -0.340 NA 
ENDBRANCH  24  25
ENDBRANCH  22  23
ENDBRANCH  12  13
ENDBRANCH   7  12
ENDBRANCH   3   6
TORSDOF 5
ENDMDL
MODEL        2
REMARK 921   NORMALIZED FREE ENERGY PREDICTED BY IDOCK:   -7.16 KCAL/MOL
REMARK 922        TOTAL FREE ENERGY PREDICTED BY IDOCK:  -10.28 KCAL/MOL
REMARK 923 INTER-LIGAND FREE ENERGY PREDICTED BY IDOCK:   -9.24 KCAL/MOL
REMARK 924 INTRA-LIGAND FREE ENERGY PREDICTED BY IDOCK:   -1.04 KCAL/MOL
REMARK 927      BINDING AFFINITY PREDICTED BY RF-SCORE:    0.00 PKD
ROOT
HETATM    1  C   UNL     1     -12.078  14.774  64.394  1.00  0.00    -0.440 C  
HETATM    2  N   UNL     1     -10.954  15.020  65.256  1.00  0.00    -0.359 N  
HETATM    3  C   UNL     1     -10.533  16.302  65.538  1.00  0.00    -0.362 C  
HETATM    4  H   UNL     1     -10.456  14.230  65.667  1.00  0.00     0.000 HD 
HETATM    5  O   UNL     1     -10.951  17.296  64.952  1.00  0.00    -0.815 OA 
ENDROOT
BRANCH   3   6
HETATM    6  C   UNL     1      -9.465  16.430  66.578  1.00  0.00    -0.296 A  
HETATM    7  C   UNL     1      -9.707  16.388  67.972  1.00  0.00    -0.235 A  
HETATM    8  C   UNL     1      -8.604  16.441  68.839  1.00  0.00    -0.250 A  
HETATM    9  C   UNL     1      -7.084  16.691  66.969  1.00  0.00    -0.238 A  
HETATM   10  C   UNL     1      -7.302  16.581  68.338  1.00  0.00    -0.179 A  
HETATM   11  C   UNL     1      -8.161  16.610  66.090  1.00  0.00    -0.273 A  
BRANCH   7  12
HETATM   12  S   UNL     1     -11.373  16.537  68.610  1.00  0.00    -0.130 SA 
BRANCH  12  13
HETATM   13  C   UNL     1     -11.892  14.958  69.237  1.00  0.00    -0.318 A  
HETATM   14  C   UNL     1     -11.279  13.831  68.683  1.00  0.00    -0.308 A  
HETATM   15  C   UNL     1     -11.443  12.558  69.241  1.00  0.00    -0.353 A  
HETATM   16  C   UNL     1     -12.234  12.410  70.395  1.00  0.00    -0.370 A  
HETATM   17  C   UNL     1     -12.830  13.548  70.934  1.00  0.00    -0.226 A  
HETATM   18  C   UNL     1     -12.700  14.832  70.375  1.00  0.00    -0.368 A  
HETATM   19  N   UNL     1     -13.462  13.110  72.066  1.00  0.00    -0.502 NA 
HETATM   20  N   UNL     1     -13.337  11.795  72.299  1.00  0.00    -0.303 NA 
HETATM   21  H   UNL     1     -13.986  13.731  72.682  1.00  0.00     0.000 HD 
HETATM   22  C   UNL     1     -12.616  11.340  71.265  1.00  0.00    -0.382 A  
BRANCH  22  23
HETATM   23  C   UNL     1     -12.310   9.946  71.129  1.00  0.00    -0.466 C  
HETATM   24  C   UNL     1     -11.174   9.341  71.523  1.00  0.00    -0.457 C  
BRANCH  24  25
HETATM   25  C   UNL     1     -10.852   7.930  71.272  1.00  0.00    -0.235 A  
HETATM   26  C   UNL     1     -11.280   7.319  70.095  1.00  0.00    -0.264 A  
HETATM   27  C   UNL     1     -11.032   5.961  69.911  1.00  0.00    -0.444 A  
HETATM   28  C   UNL     1     -10.363   5.253  70.900  1.00  0.00    -0.303 A  
HETATM   29  C   UNL     1      -9.958   5.939  72.032  1.00  0.00    -0.175 A  
HETATM   30  N   UNL     1     -10.183   7.256  72.236  1.00  0.00    -0.191 NA 
ENDBRANCH  24  25
ENDBRANCH  22  23
ENDBRANCH  12  13
ENDBRANCH   7  12
ENDBRANCH   3   6
TORSDOF 5
ENDMDL
MODEL        3
REMARK 921   NORMALIZED FREE ENERGY PREDICTED BY IDOCK:   -7.12 KCAL/MOL
REMARK 922        TOTAL FREE ENERGY PREDICTED BY IDOCK:  -10.22 KCAL/MOL
REMARK 923 INTER-LIGAND FREE ENERGY PREDICTED BY IDOCK:   -9.49 KCAL/MOL
REMARK 924 INTRA-LIGAND FREE ENERGY PREDICTED BY IDOCK:   -0.74 KCAL/MOL
REMARK 927      BINDING AFFINITY PREDICTED BY RF-SCORE:    0.00 PKD
ROOT
HETATM    1  C   UNL     1     -10.689   5.353  66.340  1.00  0.00    -0.217 C  
HETATM    2  N   UNL     1     -11.181   6.094  67.470  1.00  0.00    -0.533 N  
HETATM    3  C   UNL     1     -10.558   6.027  68.698  1.00  0.00    -0.266 C  
HETATM    4  H   UNL     1     -12.008   6.681  67.362  1.00  0.00     0.000 HD 
HETATM    5  O   UNL     1      -9.677   5.215  68.967  1.00  0.00    -0.136 OA 
ENDROOT
BRANCH   3   6
HETATM    6  C   UNL     1     -11.062   6.970  69.743  1.00  0.00    -0.278 A  
HETATM    7  C   UNL     1     -10.850   8.370  69.715  1.00  0.00    -0.183 A  
HETATM    8  C   UNL     1     -11.445   9.151  70.718  1.00  0.00    -0.337 A  
HETATM    9  C   UNL     1     -12.330   7.173  71.803  1.00  0.00    -0.385 A  
HETATM   10  C   UNL     1     -12.188   8.556  71.748  1.00  0.00    -0.388 A  
HETATM   11  C   UNL     1     -11.773   6.383  70.801  1.00  0.00    -0.378 A  
BRANCH   7  12
HETATM   12  S   UNL     1      -9.646   9.085  68.600  1.00  0.00    -0.155 SA 
BRANCH  12  13
HETATM   13  C   UNL     1     -10.233  10.673  68.061  1.00  0.00    -0.175 A  
HETATM   14  C   UNL     1      -9.459  11.781  68.414  1.00  0.00    -0.188 A  
HETATM   15  C   UNL     1      -9.698  13.048  67.868  1.00  0.00    -0.218 A  
HETATM   16  C   UNL     1     -10.734  13.206  66.930  1.00  0.00    -0.270 A  
HETATM   17  C   UNL     1     -11.488  12.086  66.586  1.00  0.00    -0.346 A  
HETATM   18  C   UNL     1     -11.283  10.811  67.142  1.00  0.00    -0.222 A  
HETATM   19  N   UNL     1     -12.353  12.528  65.622  1.00  0.00    -0.638 NA 
HETATM   20  N   UNL     1     -12.232  13.829  65.321  1.00  0.00    -0.412 NA 
HETATM   21  H   UNL     1     -13.034  11.919  65.170  1.00  0.00     0.000 HD 
HETATM   22  C   UNL     1     -11.268  14.273  66.139  1.00  0.00    -0.331 A  
BRANCH  22  23
HETATM   23  C   UNL     1     -10.880  15.654  66.151  1.00  0.00    -0.264 C  
HETATM   24  C   UNL     1     -10.558  16.378  67.239  1.00  0.00    -0.293 C  
BRANCH  24  25
HETATM   25  C   UNL     1     -10.267  17.818  67.224  1.00  0.00    -0.350 A  
HETATM   26  C   UNL     1     -10.142  18.512  68.425  1.00  0.00    -0.423 A  
HETATM   27  C   UNL     1      -9.943  19.890  68.390  1.00  0.00    -0.531 A  
HETATM   28  C   UNL     1      -9.869  20.535  67.162  1.00  0.00    -0.567 A  
HETATM   29  C   UNL     1      -9.988  19.768  66.016  1.00  0.00    -0.447 A  
HETATM   30  N   UNL     1     -10.180  18.429  66.020  1.00  0.00    -0.557 NA 
ENDBRANCH  24  25
ENDBRANCH  22  23
ENDBRANCH  12  13
ENDBRANCH   7  12
ENDBRANCH   3   6
TORSDOF 5
ENDMDL
MODEL        4
REMARK 921   NORMALIZED FREE ENERGY PREDICTED BY IDOCK:   -7.07 KCAL/MOL
REMARK 922        TOTAL FREE ENERGY PREDICTED BY IDOCK:  -10.16 KCAL/MOL
REMARK 923 INTER-LIGAND FREE ENERGY PREDICTED BY IDOCK:   -9.38 KCAL/MOL
REMARK 924 INTRA-LIGAND FREE ENERGY PREDICTED BY IDOCK:   -0.78 KCAL/MOL
REMARK 927      BINDING AFFINITY PREDICTED BY RF-SCORE:    0.00 PKD
ROOT
HETATM    1  C   UNL     1     -10.593   7.239  67.353  1.00  0.00    -0.300 C  
HETATM    2  N   UNL     1     -10.177   7.846  66.118  1.00  0.00    -0.369 N  
HETATM    3  C   UNL     1      -9.854   9.185  66.050  1.00  0.00    -0.272 C  
HETATM    4  H   UNL     1     -10.120   7.275  65.275  1.00  0.00     0.000 HD 
HETATM    5  O   UNL     1     -10.067   9.980  66.960  1.00  0.00    -0.197 OA 
ENDROOT
BRANCH   3   6
HETATM    6  C   UNL     1      -9.276   9.656  64.753  1.00  0.00    -0.298 A  
HETATM    7  C   UNL     1      -9.801  10.732  63.996  1.00  0.00    -0.332 A  
HETATM    8  C   UNL     1      -9.115  11.123  62.836  1.00  0.00    -0.324 A  
HETATM    9  C   UNL     1      -7.506   9.335  63.124  1.00  0.00    -0.106 A  
HETATM   10  C   UNL     1      -7.971  10.435  62.410  1.00  0.00    -0.189 A  
HETATM   11  C   UNL     1      -8.153   8.950  64.295  1.00  0.00    -0.158 A  
BRANCH   7  12
HETATM   12  S   UNL     1     -11.425  11.391  64.359  1.00  0.00     0.062 SA 
BRANCH  12  13
HETATM   13  C   UNL     1     -11.252  13.061  64.939  1.00  0.00    -0.302 A  
HETATM   14  C   UNL     1     -10.296  13.283  65.933  1.00  0.00    -0.293 A  
HETATM   15  C   UNL     1      -9.918  14.577  66.312  1.00  0.00    -0.320 A  
HETATM   16  C   UNL     1     -10.505  15.681  65.667  1.00  0.00    -0.402 A  
HETATM   17  C   UNL     1     -11.450  15.436  64.673  1.00  0.00    -0.337 A  
HETATM   18  C   UNL     1     -11.864  14.146  64.296  1.00  0.00    -0.420 A  
HETATM   19  N   UNL     1     -11.781  16.673  64.192  1.00  0.00    -1.257 NA 
HETATM   20  N   UNL     1     -11.145  17.690  64.790  1.00  0.00    -0.717 NA 
HETATM   21  H   UNL     1     -12.457  16.811  63.441  1.00  0.00     0.000 HD 
HETATM   22  C   UNL     1     -10.383  17.105  65.724  1.00  0.00    -0.240 A  
BRANCH  22  23
HETATM   23  C   UNL     1      -9.576  17.882  66.619  1.00  0.00    -0.311 C  
HETATM   24  C   UNL     1      -8.641  18.784  66.266  1.00  0.00    -0.247 C  
BRANCH  24  25
HETATM   25  C   UNL     1      -7.761  19.484  67.211  1.00  0.00    -0.255 A  
HETATM   26  C   UNL     1      -6.942  20.517  66.760  1.00  0.00    -0.330 A  
HETATM   27  C   UNL     1      -6.059  21.117  67.654  1.00  0.00    -0.425 A  
HETATM   28  C   UNL     1      -6.021  20.675  68.970  1.00  0.00    -0.380 A  
HETATM   29  C   UNL     1      -6.880  19.655  69.340  1.00  0.00    -0.342 A  
HETATM   30  N   UNL     1      -7.748  19.056  68.494  1.00  0.00    -0.320 NA 
ENDBRANCH  24  25
ENDBRANCH  22  23
ENDBRANCH  12  13
ENDBRANCH   7  12
ENDBRANCH   3   6
TORSDOF 5
ENDMDL
MODEL        5
REMARK 921   NORMALIZED FREE ENERGY PREDICTED BY IDOCK:   -7.00 KCAL/MOL
REMARK 922        TOTAL FREE ENERGY PREDICTED BY IDOCK:  -10.07 KCAL/MOL
REMARK 923 INTER-LIGAND FREE ENERGY PREDICTED BY IDOCK:   -9.28 KCAL/MOL
REMARK 924 INTRA-LIGAND FREE ENERGY PREDICTED BY IDOCK:   -0.78 KCAL/MOL
REMARK 927      BINDING AFFINITY PREDICTED BY RF-SCORE:    0.00 PKD
ROOT
HETATM    1  C   UNL     1     -10.010  18.628  68.166  1.00  0.00    -0.358 C  
HETATM    2  N   UNL     1     -10.709  17.561  67.502  1.00  0.00    -0.324 N  
HETATM    3  C   UNL     1     -10.031  16.507  66.928  1.00  0.00    -0.271 C  
HETATM    4  H   UNL     1     -11.728  17.583  67.456  1.00  0.00     0.000 HD 
HETATM    5  O   UNL     1      -8.813  16.488  66.776  1.00  0.00    -0.194 OA 
ENDROOT
BRANCH   3   6
HETATM    6  C   UNL     1     -10.875  15.381  66.420  1.00  0.00    -0.303 A  
HETATM    7  C   UNL     1     -11.430  14.373  67.246  1.00  0.00    -0.359 A  
HETATM    8  C   UNL     1     -12.269  13.417  66.652  1.00  0.00    -0.391 A  
HETATM    9  C   UNL     1     -11.901  14.383  64.460  1.00  0.00    -0.463 A  
HETATM   10  C   UNL     1     -12.510  13.430  65.271  1.00  0.00    -0.532 A  
HETATM   11  C   UNL     1     -11.090  15.359  65.034  1.00  0.00    -0.428 A  
BRANCH   7  12
HETATM   12  S   UNL     1     -10.867  14.166  68.933  1.00  0.00    -0.255 SA 
BRANCH  12  13
HETATM   13  C   UNL     1     -11.420  12.589  69.534  1.00  0.00    -0.230 A  
HETATM   14  C   UNL     1     -10.679  11.472  69.140  1.00  0.00    -0.210 A  
HETATM   15  C   UNL     1     -10.883  10.214  69.719  1.00  0.00    -0.320 A  
HETATM   16  C   UNL     1     -11.849  10.073  70.732  1.00  0.00    -0.435 A  
HETATM   17  C   UNL     1     -12.571  11.201  71.115  1.00  0.00    -0.409 A  
HETATM   18  C   UNL     1     -12.401  12.468  70.528  1.00  0.00    -0.345 A  
HETATM   19  N   UNL     1     -13.365  10.776  72.145  1.00  0.00    -0.579 NA 
HETATM   20  N   UNL     1     -13.228   9.479  72.454  1.00  0.00    -0.415 NA 
HETATM   21  H   UNL     1     -14.009  11.395  72.638  1.00  0.00     0.000 HD 
HETATM   22  C   UNL     1     -12.328   9.019  71.574  1.00  0.00    -0.331 A  
BRANCH  22  23
HETATM   23  C   UNL     1     -11.948   7.637  71.552  1.00  0.00    -0.331 C  
HETATM   24  C   UNL     1     -11.352   6.961  72.553  1.00  0.00    -0.291 C  
BRANCH  24  25
HETATM   25  C   UNL     1     -10.883   5.573  72.456  1.00  0.00    -0.252 A  
HETATM   26  C   UNL     1     -10.147   5.165  71.346  1.00  0.00    -0.265 A  
HETATM   27  C   UNL     1      -9.778   3.827  71.235  1.00  0.00    -0.245 A  
HETATM   28  C   UNL     1     -10.147   2.936  72.234  1.00  0.00    -0.222 A  
HETATM   29  C   UNL     1     -10.863   3.427  73.312  1.00  0.00    -0.186 A  
HETATM   30  N   UNL     1     -11.234   4.720  73.446  1.00  0.00    -0.338 NA 
ENDBRANCH  24  25
ENDBRANCH  22  23
ENDBRANCH  12  13
ENDBRANCH   7  12
ENDBRANCH   3   6
TORSDOF 5
ENDMDL
MODEL        6
REMARK 921   NORMALIZED FREE ENERGY PREDICTED BY IDOCK:   -6.92 KCAL/MOL
REMARK 922        TOTAL FREE ENERGY PREDICTED BY IDOCK:   -9.97 KCAL/MOL
REMARK 923 INTER-LIGAND FREE ENERGY PREDICTED BY IDOCK:   -9.09 KCAL/MOL
REMARK 924 INTRA-LIGAND FREE ENERGY PREDICTED BY IDOCK:   -0.88 KCAL/MOL
REMARK 927      BINDING AFFINITY PREDICTED BY RF-SCORE:    0.00 PKD
ROOT
HETATM    1  C   UNL     1      -7.291  10.067  64.655  1.00  0.00    -0.143 C  
HETATM    2  N   UNL     1      -8.293  11.080  64.461  1.00  0.00    -0.364 N  
HETATM    3  C   UNL     1      -9.580  10.913  64.924  1.00  0.00    -0.248 C  
HETATM    4  H   UNL     1      -8.046  11.940  63.971  1.00  0.00     0.000 HD 
HETATM    5  O   UNL     1     -10.011   9.848  65.358  1.00  0.00    -0.313 OA 
ENDROOT
BRANCH   3   6
HETATM    6  C   UNL     1     -10.479  12.103  64.811  1.00  0.00    -0.332 A  
HETATM    7  C   UNL     1     -10.432  13.217  65.684  1.00  0.00    -0.281 A  
HETATM    8  C   UNL     1     -11.280  14.304  65.418  1.00  0.00    -0.329 A  
HETATM    9  C   UNL     1     -12.269  13.137  63.539  1.00  0.00    -0.552 A  
HETATM   10  C   UNL     1     -12.183  14.267  64.347  1.00  0.00    -0.471 A  
HETATM   11  C   UNL     1     -11.416  12.061  63.766  1.00  0.00    -0.547 A  
BRANCH   7  12
HETATM   12  S   UNL     1      -9.522  13.128  67.223  1.00  0.00    -0.234 SA 
BRANCH  12  13
HETATM   13  C   UNL     1     -10.375  12.033  68.332  1.00  0.00    -0.214 A  
HETATM   14  C   UNL     1      -9.711  10.854  68.683  1.00  0.00    -0.188 A  
HETATM   15  C   UNL     1     -10.180  10.025  69.708  1.00  0.00    -0.286 A  
HETATM   16  C   UNL     1     -11.341  10.393  70.412  1.00  0.00    -0.417 A  
HETATM   17  C   UNL     1     -11.983  11.576  70.051  1.00  0.00    -0.357 A  
HETATM   18  C   UNL     1     -11.544  12.410  69.007  1.00  0.00    -0.362 A  
HETATM   19  N   UNL     1     -13.015  11.701  70.941  1.00  0.00    -0.149 NA 
HETATM   20  N   UNL     1     -13.102  10.704  71.833  1.00  0.00    -0.487 NA 
HETATM   21  H   UNL     1     -13.664  12.487  70.927  1.00  0.00     0.000 HD 
HETATM   22  C   UNL     1     -12.106   9.872  71.504  1.00  0.00    -0.410 A  
BRANCH  22  23
HETATM   23  C   UNL     1     -11.901   8.640  72.210  1.00  0.00    -0.436 C  
HETATM   24  C   UNL     1     -10.723   8.014  72.388  1.00  0.00    -0.386 C  
BRANCH  24  25
HETATM   25  C   UNL     1     -10.567   6.701  73.027  1.00  0.00    -0.256 A  
HETATM   26  C   UNL     1     -11.481   5.685  72.756  1.00  0.00    -0.328 A  
HETATM   27  C   UNL     1     -11.361   4.472  73.430  1.00  0.00    -0.376 A  
HETATM   28  C   UNL     1     -10.334   4.305  74.349  1.00  0.00    -0.296 A  
HETATM   29  C   UNL     1      -9.459   5.359  74.547  1.00  0.00    -0.146 A  
HETATM   30  N   UNL     1      -9.551   6.546  73.906  1.00  0.00    -0.181 NA 
ENDBRANCH  24  25
ENDBRANCH  22  23
ENDBRANCH  12  13
ENDBRANCH   7  12
ENDBRANCH   3   6
TORSDOF 5
ENDMDL
MODEL        7
REMARK 921   NORMALIZED FREE ENERGY PREDICTED BY IDOCK:   -6.91 KCAL/MOL
REMARK 922        TOTAL FREE ENERGY PREDICTED BY IDOCK:   -9.95 KCAL/MOL
REMARK 923 INTER-LIGAND FREE ENERGY PREDICTED BY IDOCK:   -9.22 KCAL/MOL
REMARK 924 INTRA-LIGAND FREE ENERGY PREDICTED BY IDOCK:   -0.72 KCAL/MOL
REMARK 927      BINDING AFFINITY PREDICTED BY RF-SCORE:    0.00 PKD
ROOT
HETATM    1  C   UNL     1     -10.580   6.070  66.745  1.00  0.00    -0.291 C  
HETATM    2  N   UNL     1     -11.058   7.102  67.626  1.00  0.00    -0.554 N  
HETATM    3  C   UNL     1     -10.193   7.999  68.215  1.00  0.00    -0.205 C  
HETATM    4  H   UNL     1     -12.057   7.171  67.819  1.00  0.00     0.000 HD 
HETATM    5  O   UNL     1      -8.972   7.881  68.187  1.00  0.00    -0.132 OA 
ENDROOT
BRANCH   3   6
HETATM    6  C   UNL     1     -10.828   9.123  68.971  1.00  0.00    -0.115 A  
HETATM    7  C   UNL     1     -11.234  10.345  68.381  1.00  0.00    -0.258 A  
HETATM    8  C   UNL     1     -11.889  11.287  69.190  1.00  0.00    -0.423 A  
HETATM    9  C   UNL     1     -11.624   9.871  71.138  1.00  0.00    -0.468 A  
HETATM   10  C   UNL     1     -12.091  11.045  70.556  1.00  0.00    -0.470 A  
HETATM   11  C   UNL     1     -10.999   8.910  70.348  1.00  0.00    -0.275 A  
BRANCH   7  12
HETATM   12  S   UNL     1     -10.691  10.783  66.732  1.00  0.00    -0.196 SA 
BRANCH  12  13
HETATM   13  C   UNL     1     -10.679  12.553  66.582  1.00  0.00    -0.236 A  
HETATM   14  C   UNL     1      -9.772  13.245  67.389  1.00  0.00    -0.221 A  
HETATM   15  C   UNL     1      -9.518  14.609  67.206  1.00  0.00    -0.221 A  
HETATM   16  C   UNL     1     -10.182  15.298  66.174  1.00  0.00    -0.320 A  
HETATM   17  C   UNL     1     -11.076  14.587  65.376  1.00  0.00    -0.345 A  
HETATM   18  C   UNL     1     -11.366  13.223  65.561  1.00  0.00    -0.315 A  
HETATM   19  N   UNL     1     -11.500  15.488  64.438  1.00  0.00    -0.706 NA 
HETATM   20  N   UNL     1     -10.971  16.713  64.563  1.00  0.00    -0.898 NA 
HETATM   21  H   UNL     1     -12.165  15.247  63.703  1.00  0.00     0.000 HD 
HETATM   22  C   UNL     1     -10.186  16.628  65.646  1.00  0.00    -0.262 A  
BRANCH  22  23
HETATM   23  C   UNL     1      -9.473  17.771  66.139  1.00  0.00    -0.177 C  
HETATM   24  C   UNL     1      -8.143  17.856  66.329  1.00  0.00    -0.266 C  
BRANCH  24  25
HETATM   25  C   UNL     1      -7.461  19.007  66.934  1.00  0.00    -0.219 A  
HETATM   26  C   UNL     1      -7.062  20.076  66.135  1.00  0.00    -0.291 A  
HETATM   27  C   UNL     1      -6.349  21.122  66.715  1.00  0.00    -0.385 A  
HETATM   28  C   UNL     1      -6.057  21.076  68.071  1.00  0.00    -0.398 A  
HETATM   29  C   UNL     1      -6.505  19.985  68.796  1.00  0.00    -0.314 A  
HETATM   30  N   UNL     1      -7.200  18.957  68.261  1.00  0.00    -0.262 NA 
ENDBRANCH  24  25
ENDBRANCH  22  23
ENDBRANCH  12  13
ENDBRANCH   7  12
ENDBRANCH   3   6
TORSDOF 5
ENDMDL
MODEL        8
REMARK 921   NORMALIZED FREE ENERGY PREDICTED BY IDOCK:   -6.89 KCAL/MOL
REMARK 922        TOTAL FREE ENERGY PREDICTED BY IDOCK:   -9.92 KCAL/MOL
REMARK 923 INTER-LIGAND FREE ENERGY PREDICTED BY IDOCK:   -9.14 KCAL/MOL
REMARK 924 INTRA-LIGAND FREE ENERGY PREDICTED BY IDOCK:   -0.79 KCAL/MOL
REMARK 927      BINDING AFFINITY PREDICTED BY RF-SCORE:    0.00 PKD
ROOT
HETATM    1  C   UNL     1     -10.419   7.793  67.159  1.00  0.00    -0.343 C  
HETATM    2  N   UNL     1     -10.308   7.938  68.585  1.00  0.00    -0.206 N  
HETATM    3  C   UNL     1     -10.671   6.919  69.440  1.00  0.00    -0.246 C  
HETATM    4  H   UNL     1      -9.953   8.812  68.973  1.00  0.00     0.000 HD 
HETATM    5  O   UNL     1     -11.272   5.913  69.077  1.00  0.00    -0.315 OA 
ENDROOT
BRANCH   3   6
HETATM    6  C   UNL     1     -10.350   7.129  70.886  1.00  0.00    -0.214 A  
HETATM    7  C   UNL     1     -11.272   7.627  71.839  1.00  0.00    -0.257 A  
HETATM    8  C   UNL     1     -10.865   7.701  73.180  1.00  0.00    -0.440 A  
HETATM    9  C   UNL     1      -8.646   6.918  72.602  1.00  0.00    -0.131 A  
HETATM   10  C   UNL     1      -9.565   7.339  73.558  1.00  0.00    -0.293 A  
HETATM   11  C   UNL     1      -9.038   6.808  71.271  1.00  0.00    -0.150 A  
BRANCH   7  12
HETATM   12  S   UNL     1     -12.804   8.387  71.309  1.00  0.00    -0.104 SA 
BRANCH  12  13
HETATM   13  C   UNL     1     -12.594  10.151  71.292  1.00  0.00    -0.404 A  
HETATM   14  C   UNL     1     -11.884  10.688  70.215  1.00  0.00    -0.430 A  
HETATM   15  C   UNL     1     -11.841  12.067  69.978  1.00  0.00    -0.392 A  
HETATM   16  C   UNL     1     -12.542  12.933  70.837  1.00  0.00    -0.355 A  
HETATM   17  C   UNL     1     -13.249  12.376  71.900  1.00  0.00    -0.382 A  
HETATM   18  C   UNL     1     -13.283  10.996  72.172  1.00  0.00    -0.316 A  
HETATM   19  N   UNL     1     -13.871  13.436  72.501  1.00  0.00    -0.738 NA 
HETATM   20  N   UNL     1     -13.622  14.623  71.930  1.00  0.00    -0.358 NA 
HETATM   21  H   UNL     1     -14.474  13.332  73.317  1.00  0.00     0.000 HD 
HETATM   22  C   UNL     1     -12.778  14.342  70.928  1.00  0.00    -0.357 A  
BRANCH  22  23
HETATM   23  C   UNL     1     -12.234  15.379  70.100  1.00  0.00    -0.407 C  
HETATM   24  C   UNL     1     -11.367  15.210  69.084  1.00  0.00    -0.311 C  
BRANCH  24  25
HETATM   25  C   UNL     1     -10.751  16.307  68.326  1.00  0.00    -0.322 A  
HETATM   26  C   UNL     1     -10.351  17.466  68.984  1.00  0.00    -0.319 A  
HETATM   27  C   UNL     1      -9.840  18.525  68.237  1.00  0.00    -0.394 A  
HETATM   28  C   UNL     1      -9.739  18.396  66.858  1.00  0.00    -0.324 A  
HETATM   29  C   UNL     1     -10.144  17.204  66.285  1.00  0.00    -0.320 A  
HETATM   30  N   UNL     1     -10.642  16.160  66.985  1.00  0.00    -0.310 NA 
ENDBRANCH  24  25
ENDBRANCH  22  23
ENDBRANCH  12  13
ENDBRANCH   7  12
ENDBRANCH   3   6
TORSDOF 5
ENDMDL
MODEL        9
REMARK 921   NORMALIZED FREE ENERGY PREDICTED BY IDOCK:   -6.87 KCAL/MOL
REMARK 922        TOTAL FREE ENERGY PREDICTED BY IDOCK:   -9.90 KCAL/MOL
REMARK 923 INTER-LIGAND FREE ENERGY PREDICTED BY IDOCK:   -9.17 KCAL/MOL
REMARK 924 INTRA-LIGAND FREE ENERGY PREDICTED BY IDOCK:   -0.73 KCAL/MOL
REMARK 927      BINDING AFFINITY PREDICTED BY RF-SCORE:    0.00 PKD
ROOT
HETATM    1  C   UNL     1     -14.204   8.461  71.697  1.00  0.00    -0.440 C  
HETATM    2  N   UNL     1     -12.968   8.704  71.004  1.00  0.00    -0.502 N  
HETATM    3  C   UNL     1     -12.290   9.896  71.144  1.00  0.00    -0.370 C  
HETATM    4  H   UNL     1     -12.584   7.980  70.396  1.00  0.00     0.000 HD 
HETATM    5  O   UNL     1     -12.761  10.882  71.702  1.00  0.00    -0.405 OA 
ENDROOT
BRANCH   3   6
HETATM    6  C   UNL     1     -10.937   9.962  70.508  1.00  0.00    -0.391 A  
HETATM    7  C   UNL     1     -10.668  10.623  69.285  1.00  0.00    -0.238 A  
HETATM    8  C   UNL     1      -9.338  10.676  68.838  1.00  0.00    -0.191 A  
HETATM    9  C   UNL     1      -8.600   9.342  70.722  1.00  0.00    -0.254 A  
HETATM   10  C   UNL     1      -8.312  10.048  69.558  1.00  0.00    -0.180 A  
HETATM   11  C   UNL     1      -9.908   9.303  71.198  1.00  0.00    -0.342 A  
BRANCH   7  12
HETATM   12  S   UNL     1     -12.008  11.135  68.214  1.00  0.00     0.063 SA 
BRANCH  12  13
HETATM   13  C   UNL     1     -11.675  12.777  67.622  1.00  0.00    -0.367 A  
HETATM   14  C   UNL     1     -10.907  13.599  68.451  1.00  0.00    -0.274 A  
HETATM   15  C   UNL     1     -10.400  14.825  68.003  1.00  0.00    -0.237 A  
HETATM   16  C   UNL     1     -10.659  15.233  66.681  1.00  0.00    -0.304 A  
HETATM   17  C   UNL     1     -11.421  14.394  65.871  1.00  0.00    -0.341 A  
HETATM   18  C   UNL     1     -11.962  13.172  66.308  1.00  0.00    -0.473 A  
HETATM   19  N   UNL     1     -11.442  15.012  64.650  1.00  0.00    -0.568 NA 
HETATM   20  N   UNL     1     -10.773  16.173  64.603  1.00  0.00    -0.596 NA 
HETATM   21  H   UNL     1     -11.926  14.621  63.842  1.00  0.00     0.000 HD 
HETATM   22  C   UNL     1     -10.316  16.346  65.850  1.00  0.00    -0.362 A  
BRANCH  22  23
HETATM   23  C   UNL     1      -9.580  17.522  66.216  1.00  0.00    -0.253 C  
HETATM   24  C   UNL     1      -8.292  17.563  66.605  1.00  0.00    -0.291 C  
BRANCH  24  25
HETATM   25  C   UNL     1      -7.603  18.773  67.073  1.00  0.00    -0.229 A  
HETATM   26  C   UNL     1      -7.239  19.760  66.161  1.00  0.00    -0.291 A  
HETATM   27  C   UNL     1      -6.518  20.863  66.612  1.00  0.00    -0.347 A  
HETATM   28  C   UNL     1      -6.185  20.952  67.957  1.00  0.00    -0.389 A  
HETATM   29  C   UNL     1      -6.599  19.935  68.799  1.00  0.00    -0.320 A  
HETATM   30  N   UNL     1      -7.300  18.855  68.389  1.00  0.00    -0.277 NA 
ENDBRANCH  24  25
ENDBRANCH  22  23
ENDBRANCH  12  13
ENDBRANCH   7  12
ENDBRANCH   3   6
TORSDOF 5
ENDMDL
MODEL       10
REMARK 921   NORMALIZED FREE ENERGY PREDICTED BY IDOCK:   -6.83 KCAL/MOL
REMARK 922        TOTAL FREE ENERGY PREDICTED BY IDOCK:   -9.85 KCAL/MOL
REMARK 923 INTER-LIGAND FREE ENERGY PREDICTED BY IDOCK:   -8.68 KCAL/MOL
REMARK 924 INTRA-LIGAND FREE ENERGY PREDICTED BY IDOCK:   -1.17 KCAL/MOL
REMARK 927      BINDING AFFINITY PREDICTED BY RF-SCORE:    0.00 PKD
ROOT
HETATM    1  C   UNL     1     -10.532   5.928  69.023  1.00  0.00    -0.265 C  
HETATM    2  N   UNL     1     -10.610   5.105  70.199  1.00  0.00    -0.236 N  
HETATM    3  C   UNL     1      -9.499   4.463  70.701  1.00  0.00    -0.172 C  
HETATM    4  H   UNL     1     -11.507   4.995  70.673  1.00  0.00     0.000 HD 
HETATM    5  O   UNL     1      -8.430   4.391  70.101  1.00  0.00    -0.068 OA 
ENDROOT
BRANCH   3   6
HETATM    6  C   UNL     1      -9.674   3.779  72.019  1.00  0.00    -0.236 A  
HETATM    7  C   UNL     1      -9.406   4.388  73.270  1.00  0.00    -0.119 A  
HETATM    8  C   UNL     1      -9.688   3.659  74.436  1.00  0.00    -0.151 A  
HETATM    9  C   UNL     1     -10.367   1.734  73.129  1.00  0.00    -0.194 A  
HETATM   10  C   UNL     1     -10.175   2.346  74.364  1.00  0.00    -0.181 A  
HETATM   11  C   UNL     1     -10.122   2.450  71.960  1.00  0.00    -0.204 A  
BRANCH   7  12
HETATM   12  S   UNL     1      -8.490   5.923  73.355  1.00  0.00    -0.116 SA 
BRANCH  12  13
HETATM   13  C   UNL     1      -9.551   7.255  72.851  1.00  0.00    -0.164 A  
HETATM   14  C   UNL     1      -9.057   8.110  71.862  1.00  0.00    -0.230 A  
HETATM   15  C   UNL     1      -9.877   9.055  71.233  1.00  0.00    -0.376 A  
HETATM   16  C   UNL     1     -11.234   9.137  71.595  1.00  0.00    -0.447 A  
HETATM   17  C   UNL     1     -11.706   8.269  72.577  1.00  0.00    -0.383 A  
HETATM   18  C   UNL     1     -10.895   7.331  73.241  1.00  0.00    -0.404 A  
HETATM   19  N   UNL     1     -13.047   8.531  72.660  1.00  0.00    -0.634 NA 
HETATM   20  N   UNL     1     -13.478   9.492  71.831  1.00  0.00    -0.415 NA 
HETATM   21  H   UNL     1     -13.667   8.036  73.301  1.00  0.00     0.000 HD 
HETATM   22  C   UNL     1     -12.374   9.903  71.193  1.00  0.00    -0.370 A  
BRANCH  22  23
HETATM   23  C   UNL     1     -12.420  10.975  70.242  1.00  0.00    -0.365 C  
HETATM   24  C   UNL     1     -11.749  11.031  69.076  1.00  0.00    -0.402 C  
BRANCH  24  25
HETATM   25  C   UNL     1     -11.740  12.192  68.176  1.00  0.00    -0.341 A  
HETATM   26  C   UNL     1     -11.639  13.477  68.704  1.00  0.00    -0.365 A  
HETATM   27  C   UNL     1     -11.710  14.568  67.841  1.00  0.00    -0.381 A  
HETATM   28  C   UNL     1     -11.873  14.348  66.480  1.00  0.00    -0.406 A  
HETATM   29  C   UNL     1     -11.948  13.039  66.036  1.00  0.00    -0.440 A  
HETATM   30  N   UNL     1     -11.881  11.962  66.850  1.00  0.00    -0.610 NA 
ENDBRANCH  24  25
ENDBRANCH  22  23
ENDBRANCH  12  13
ENDBRANCH   7  12
ENDBRANCH   3   6
TORSDOF 5
ENDMDL
MODEL       11
REMARK 921   NORMALIZED FREE ENERGY PREDICTED BY IDOCK:   -6.81 KCAL/MOL
REMARK 922        TOTAL FREE ENERGY PREDICTED BY IDOCK:   -9.82 KCAL/MOL
REMARK 923 INTER-LIGAND FREE ENERGY PREDICTED BY IDOCK:   -8.93 KCAL/MOL
REMARK 924 INTRA-LIGAND FREE ENERGY PREDICTED BY IDOCK:   -0.88 KCAL/MOL
REMARK 927      BINDING AFFINITY PREDICTED BY RF-SCORE:    0.00 PKD
ROOT
HETATM    1  C   UNL     1      -8.550   7.922  74.137  1.00  0.00    -0.239 C  
HETATM    2  N   UNL     1      -8.791   7.400  72.819  1.00  0.00    -0.126 N  
HETATM    3  C   UNL     1      -9.631   6.325  72.616  1.00  0.00    -0.151 C  
HETATM    4  H   UNL     1      -8.332   7.833  72.018  1.00  0.00     0.000 HD 
HETATM    5  O   UNL     1     -10.078   5.634  73.526  1.00  0.00    -0.171 OA 
ENDROOT
BRANCH   3   6
HETATM    6  C   UNL     1      -9.931   5.987  71.190  1.00  0.00    -0.227 A  
HETATM    7  C   UNL     1     -11.068   6.455  70.487  1.00  0.00    -0.328 A  
HETATM    8  C   UNL     1     -11.190   6.125  69.129  1.00  0.00    -0.409 A  
HETATM    9  C   UNL     1      -9.162   4.801  69.217  1.00  0.00    -0.172 A  
HETATM   10  C   UNL     1     -10.237   5.313  68.497  1.00  0.00    -0.214 A  
HETATM   11  C   UNL     1      -9.006   5.141  70.558  1.00  0.00    -0.165 A  
BRANCH   7  12
HETATM   12  S   UNL     1     -12.433   7.209  71.366  1.00  0.00    -0.394 SA 
BRANCH  12  13
HETATM   13  C   UNL     1     -12.238   8.974  71.326  1.00  0.00    -0.312 A  
HETATM   14  C   UNL     1     -11.488   9.499  70.270  1.00  0.00    -0.256 A  
HETATM   15  C   UNL     1     -11.447  10.873  70.010  1.00  0.00    -0.411 A  
HETATM   16  C   UNL     1     -12.190  11.748  70.824  1.00  0.00    -0.424 A  
HETATM   17  C   UNL     1     -12.936  11.204  71.866  1.00  0.00    -0.372 A  
HETATM   18  C   UNL     1     -12.970   9.829  72.161  1.00  0.00    -0.483 A  
HETATM   19  N   UNL     1     -13.591  12.269  72.422  1.00  0.00    -0.543 NA 
HETATM   20  N   UNL     1     -13.328  13.448  71.840  1.00  0.00    -0.434 NA 
HETATM   21  H   UNL     1     -14.227  12.174  73.213  1.00  0.00     0.000 HD 
HETATM   22  C   UNL     1     -12.441  13.156  70.880  1.00  0.00    -0.323 A  
BRANCH  22  23
HETATM   23  C   UNL     1     -11.872  14.183  70.056  1.00  0.00    -0.388 C  
HETATM   24  C   UNL     1     -11.804  14.176  68.712  1.00  0.00    -0.384 C  
BRANCH  24  25
HETATM   25  C   UNL     1     -11.120  15.197  67.908  1.00  0.00    -0.321 A  
HETATM   26  C   UNL     1     -10.447  14.828  66.745  1.00  0.00    -0.282 A  
HETATM   27  C   UNL     1      -9.740  15.798  66.038  1.00  0.00    -0.377 A  
HETATM   28  C   UNL     1      -9.727  17.105  66.507  1.00  0.00    -0.299 A  
HETATM   29  C   UNL     1     -10.435  17.390  67.661  1.00  0.00    -0.368 A  
HETATM   30  N   UNL     1     -11.131  16.470  68.366  1.00  0.00    -0.359 NA 
ENDBRANCH  24  25
ENDBRANCH  22  23
ENDBRANCH  12  13
ENDBRANCH   7  12
ENDBRANCH   3   6
TORSDOF 5
ENDMDL
MODEL       12
REMARK 921   NORMALIZED FREE ENERGY PREDICTED BY IDOCK:   -6.72 KCAL/MOL
REMARK 922        TOTAL FREE ENERGY PREDICTED BY IDOCK:   -9.70 KCAL/MOL
REMARK 923 INTER-LIGAND FREE ENERGY PREDICTED BY IDOCK:   -8.68 KCAL/MOL
REMARK 924 INTRA-LIGAND FREE ENERGY PREDICTED BY IDOCK:   -1.03 KCAL/MOL
REMARK 927      BINDING AFFINITY PREDICTED BY RF-SCORE:    0.00 PKD
ROOT
HETATM    1  C   UNL     1     -13.088  10.425  70.907  1.00  0.00    -0.330 C  
HETATM    2  N   UNL     1     -11.713  10.132  71.209  1.00  0.00    -0.365 N  
HETATM    3  C   UNL     1     -11.232   8.841  71.186  1.00  0.00    -0.277 C  
HETATM    4  H   UNL     1     -11.080  10.897  71.445  1.00  0.00     0.000 HD 
HETATM    5  O   UNL     1     -11.952   7.852  71.093  1.00  0.00    -0.296 OA 
ENDROOT
BRANCH   3   6
HETATM    6  C   UNL     1      -9.753   8.687  71.352  1.00  0.00    -0.314 A  
HETATM    7  C   UNL     1      -8.823   8.779  70.287  1.00  0.00    -0.160 A  
HETATM    8  C   UNL     1      -7.456   8.693  70.592  1.00  0.00    -0.074 A  
HETATM    9  C   UNL     1      -7.951   8.315  72.934  1.00  0.00    -0.199 A  
HETATM   10  C   UNL     1      -7.025   8.473  71.907  1.00  0.00    -0.101 A  
HETATM   11  C   UNL     1      -9.311   8.427  72.658  1.00  0.00    -0.334 A  
BRANCH   7  12
HETATM   12  S   UNL     1      -9.381   8.733  68.587  1.00  0.00    -0.141 SA 
BRANCH  12  13
HETATM   13  C   UNL     1      -9.996  10.338  68.140  1.00  0.00    -0.146 A  
HETATM   14  C   UNL     1      -9.190  11.432  68.466  1.00  0.00    -0.174 A  
HETATM   15  C   UNL     1      -9.460  12.715  67.976  1.00  0.00    -0.209 A  
HETATM   16  C   UNL     1     -10.564  12.906  67.124  1.00  0.00    -0.246 A  
HETATM   17  C   UNL     1     -11.350  11.801  66.806  1.00  0.00    -0.320 A  
HETATM   18  C   UNL     1     -11.111  10.509  67.308  1.00  0.00    -0.284 A  
HETATM   19  N   UNL     1     -12.282  12.276  65.924  1.00  0.00    -0.600 NA 
HETATM   20  N   UNL     1     -12.174  13.584  65.653  1.00  0.00    -0.428 NA 
HETATM   21  H   UNL     1     -12.999  11.683  65.507  1.00  0.00     0.000 HD 
HETATM   22  C   UNL     1     -11.148  13.999  66.408  1.00  0.00    -0.316 A  
BRANCH  22  23
HETATM   23  C   UNL     1     -10.750  15.377  66.430  1.00  0.00    -0.311 C  
HETATM   24  C   UNL     1     -10.605  16.143  67.527  1.00  0.00    -0.314 C  
BRANCH  24  25
HETATM   25  C   UNL     1     -10.297  17.579  67.505  1.00  0.00    -0.356 A  
HETATM   26  C   UNL     1     -10.087  18.262  68.701  1.00  0.00    -0.407 A  
HETATM   27  C   UNL     1      -9.873  19.637  68.663  1.00  0.00    -0.519 A  
HETATM   28  C   UNL     1      -9.871  20.291  67.439  1.00  0.00    -0.586 A  
HETATM   29  C   UNL     1     -10.072  19.535  66.297  1.00  0.00    -0.468 A  
HETATM   30  N   UNL     1     -10.280  18.200  66.303  1.00  0.00    -0.399 NA 
ENDBRANCH  24  25
ENDBRANCH  22  23
ENDBRANCH  12  13
ENDBRANCH   7  12
ENDBRANCH   3   6
TORSDOF 5
ENDMDL
MODEL       13
REMARK 921   NORMALIZED FREE ENERGY PREDICTED BY IDOCK:   -6.70 KCAL/MOL
REMARK 922        TOTAL FREE ENERGY PREDICTED BY IDOCK:   -9.68 KCAL/MOL
REMARK 923 INTER-LIGAND FREE ENERGY PREDICTED BY IDOCK:   -9.17 KCAL/MOL
REMARK 924 INTRA-LIGAND FREE ENERGY PREDICTED BY IDOCK:   -0.51 KCAL/MOL
REMARK 927      BINDING AFFINITY PREDICTED BY RF-SCORE:    0.00 PKD
ROOT
HETATM    1  C   UNL     1     -10.834   4.447  64.837  1.00  0.00    -0.050 C  
HETATM    2  N   UNL     1     -10.959   5.269  66.010  1.00  0.00    -0.775 N  
HETATM    3  C   UNL     1      -9.901   6.019  66.476  1.00  0.00    -0.145 C  
HETATM    4  H   UNL     1     -11.850   5.299  66.506  1.00  0.00     0.000 HD 
HETATM    5  O   UNL     1      -8.754   5.907  66.056  1.00  0.00    -0.138 OA 
ENDROOT
BRANCH   3   6
HETATM    6  C   UNL     1     -10.207   6.960  67.599  1.00  0.00    -0.235 A  
HETATM    7  C   UNL     1     -10.209   8.370  67.473  1.00  0.00    -0.243 A  
HETATM    8  C   UNL     1     -10.591   9.135  68.586  1.00  0.00    -0.207 A  
HETATM    9  C   UNL     1     -10.837   7.138  69.936  1.00  0.00    -0.276 A  
HETATM   10  C   UNL     1     -10.911   8.521  69.805  1.00  0.00    -0.131 A  
HETATM   11  C   UNL     1     -10.491   6.359  68.835  1.00  0.00    -0.264 A  
BRANCH   7  12
HETATM   12  S   UNL     1      -9.493   9.155  66.032  1.00  0.00    -0.265 SA 
BRANCH  12  13
HETATM   13  C   UNL     1     -10.147  10.801  65.889  1.00  0.00    -0.256 A  
HETATM   14  C   UNL     1      -9.383  11.830  66.444  1.00  0.00    -0.229 A  
HETATM   15  C   UNL     1      -9.682  13.177  66.206  1.00  0.00    -0.269 A  
HETATM   16  C   UNL     1     -10.771  13.502  65.377  1.00  0.00    -0.308 A  
HETATM   17  C   UNL     1     -11.515  12.460  64.828  1.00  0.00    -0.325 A  
HETATM   18  C   UNL     1     -11.249  11.101  65.075  1.00  0.00    -0.007 A  
HETATM   19  N   UNL     1     -12.441  13.073  64.029  1.00  0.00    -0.640 NA 
HETATM   20  N   UNL     1     -12.368  14.412  64.021  1.00  0.00    -0.748 NA 
HETATM   21  H   UNL     1     -13.130  12.555  63.484  1.00  0.00     0.000 HD 
HETATM   22  C   UNL     1     -11.373  14.698  64.870  1.00  0.00    -0.403 A  
BRANCH  22  23
HETATM   23  C   UNL     1     -11.019  16.055  65.172  1.00  0.00    -0.360 C  
HETATM   24  C   UNL     1     -10.055  16.453  66.022  1.00  0.00    -0.373 C  
BRANCH  24  25
HETATM   25  C   UNL     1      -9.791  17.851  66.385  1.00  0.00    -0.337 A  
HETATM   26  C   UNL     1     -10.669  18.526  67.230  1.00  0.00    -0.417 A  
HETATM   27  C   UNL     1     -10.443  19.873  67.501  1.00  0.00    -0.535 A  
HETATM   28  C   UNL     1      -9.350  20.508  66.926  1.00  0.00    -0.435 A  
HETATM   29  C   UNL     1      -8.518  19.760  66.111  1.00  0.00    -0.341 A  
HETATM   30  N   UNL     1      -8.711  18.451  65.833  1.00  0.00    -0.461 NA 
ENDBRANCH  24  25
ENDBRANCH  22  23
ENDBRANCH  12  13
ENDBRANCH   7  12
ENDBRANCH   3   6
TORSDOF 5
ENDMDL
MODEL       14
REMARK 921   NORMALIZED FREE ENERGY PREDICTED BY IDOCK:   -6.62 KCAL/MOL
REMARK 922        TOTAL FREE ENERGY PREDICTED BY IDOCK:   -9.58 KCAL/MOL
REMARK 923 INTER-LIGAND FREE ENERGY PREDICTED BY IDOCK:   -8.59 KCAL/MOL
REMARK 924 INTRA-LIGAND FREE ENERGY PREDICTED BY IDOCK:   -0.99 KCAL/MOL
REMARK 927      BINDING AFFINITY PREDICTED BY RF-SCORE:    0.00 PKD
ROOT
HETATM    1  C   UNL     1     -12.121   8.823  71.852  1.00  0.00    -0.363 C  
HETATM    2  N   UNL     1     -11.591   8.534  70.547  1.00  0.00    -0.435 N  
HETATM    3  C   UNL     1     -10.588   7.606  70.369  1.00  0.00    -0.230 C  
HETATM    4  H   UNL     1     -11.964   9.027  69.735  1.00  0.00     0.000 HD 
HETATM    5  O   UNL     1      -9.958   7.103  71.295  1.00  0.00    -0.189 OA 
ENDROOT
BRANCH   3   6
HETATM    6  C   UNL     1     -10.243   7.274  68.951  1.00  0.00    -0.196 A  
HETATM    7  C   UNL     1      -9.142   7.829  68.254  1.00  0.00    -0.130 A  
HETATM    8  C   UNL     1      -8.884   7.373  66.952  1.00  0.00    -0.140 A  
HETATM    9  C   UNL     1     -10.841   5.945  67.011  1.00  0.00    -0.379 A  
HETATM   10  C   UNL     1      -9.723   6.430  66.340  1.00  0.00    -0.140 A  
HETATM   11  C   UNL     1     -11.098   6.362  68.314  1.00  0.00    -0.359 A  
BRANCH   7  12
HETATM   12  S   UNL     1      -8.277   9.254  68.906  1.00  0.00    -0.113 SA 
BRANCH  12  13
HETATM   13  C   UNL     1      -9.164  10.724  68.452  1.00  0.00    -0.164 A  
HETATM   14  C   UNL     1      -8.465  11.930  68.537  1.00  0.00    -0.113 A  
HETATM   15  C   UNL     1      -8.981  13.117  68.004  1.00  0.00    -0.195 A  
HETATM   16  C   UNL     1     -10.229  13.092  67.354  1.00  0.00    -0.232 A  
HETATM   17  C   UNL     1     -10.905  11.877  67.274  1.00  0.00    -0.247 A  
HETATM   18  C   UNL     1     -10.418  10.679  67.825  1.00  0.00    -0.258 A  
HETATM   19  N   UNL     1     -12.028  12.149  66.540  1.00  0.00    -0.631 NA 
HETATM   20  N   UNL     1     -12.141  13.427  66.150  1.00  0.00    -0.420 NA 
HETATM   21  H   UNL     1     -12.722  11.438  66.309  1.00  0.00     0.000 HD 
HETATM   22  C   UNL     1     -11.065  14.031  66.670  1.00  0.00    -0.309 A  
BRANCH  22  23
HETATM   23  C   UNL     1     -10.854  15.441  66.510  1.00  0.00    -0.298 C  
HETATM   24  C   UNL     1     -10.288  16.266  67.411  1.00  0.00    -0.285 C  
BRANCH  24  25
HETATM   25  C   UNL     1     -10.183  17.723  67.255  1.00  0.00    -0.350 A  
HETATM   26  C   UNL     1      -9.891  18.519  68.359  1.00  0.00    -0.404 A  
HETATM   27  C   UNL     1      -9.872  19.903  68.207  1.00  0.00    -0.514 A  
HETATM   28  C   UNL     1     -10.140  20.453  66.960  1.00  0.00    -0.507 A  
HETATM   29  C   UNL     1     -10.405  19.590  65.911  1.00  0.00    -0.470 A  
HETATM   30  N   UNL     1     -10.428  18.243  66.030  1.00  0.00    -0.521 NA 
ENDBRANCH  24  25
ENDBRANCH  22  23
ENDBRANCH  12  13
ENDBRANCH   7  12
ENDBRANCH   3   6
TORSDOF 5
ENDMDL
MODEL       15
REMARK 921   NORMALIZED FREE ENERGY PREDICTED BY IDOCK:   -6.62 KCAL/MOL
REMARK 922        TOTAL FREE ENERGY PREDICTED BY IDOCK:   -9.57 KCAL/MOL
REMARK 923 INTER-LIGAND FREE ENERGY PREDICTED BY IDOCK:   -8.60 KCAL/MOL
REMARK 924 INTRA-LIGAND FREE ENERGY PREDICTED BY IDOCK:   -0.97 KCAL/MOL
REMARK 927      BINDING AFFINITY PREDICTED BY RF-SCORE:    0.00 PKD
ROOT
HETATM    1  C   UNL     1      -6.786  10.642  69.167  1.00  0.00    -0.073 C  
HETATM    2  N   UNL     1      -7.665  10.173  70.204  1.00  0.00    -0.281 N  
HETATM    3  C   UNL     1      -8.202   8.904  70.169  1.00  0.00    -0.125 C  
HETATM    4  H   UNL     1      -7.897  10.792  70.980  1.00  0.00     0.000 HD 
HETATM    5  O   UNL     1      -8.126   8.163  69.194  1.00  0.00    -0.117 OA 
ENDROOT
BRANCH   3   6
HETATM    6  C   UNL     1      -8.962   8.479  71.386  1.00  0.00    -0.262 A  
HETATM    7  C   UNL     1     -10.360   8.254  71.408  1.00  0.00    -0.213 A  
HETATM    8  C   UNL     1     -10.936   7.781  72.597  1.00  0.00    -0.422 A  
HETATM    9  C   UNL     1      -8.797   7.876  73.731  1.00  0.00    -0.332 A  
HETATM   10  C   UNL     1     -10.157   7.584  73.746  1.00  0.00    -0.265 A  
HETATM   11  C   UNL     1      -8.200   8.316  72.553  1.00  0.00    -0.224 A  
BRANCH   7  12
HETATM   12  S   UNL     1     -11.392   8.810  70.055  1.00  0.00     0.062 SA 
BRANCH  12  13
HETATM   13  C   UNL     1     -11.407  10.587  70.037  1.00  0.00    -0.318 A  
HETATM   14  C   UNL     1     -10.785  11.209  68.953  1.00  0.00    -0.246 A  
HETATM   15  C   UNL     1     -10.920  12.582  68.716  1.00  0.00    -0.294 A  
HETATM   16  C   UNL     1     -11.714  13.353  69.586  1.00  0.00    -0.375 A  
HETATM   17  C   UNL     1     -12.331  12.711  70.657  1.00  0.00    -0.290 A  
HETATM   18  C   UNL     1     -12.187  11.338  70.927  1.00  0.00    -0.460 A  
HETATM   19  N   UNL     1     -13.075  13.684  71.267  1.00  0.00    -0.312 NA 
HETATM   20  N   UNL     1     -12.985  14.893  70.694  1.00  0.00    -0.358 NA 
HETATM   21  H   UNL     1     -13.650  13.505  72.090  1.00  0.00     0.000 HD 
HETATM   22  C   UNL     1     -12.125  14.720  69.682  1.00  0.00    -0.304 A  
BRANCH  22  23
HETATM   23  C   UNL     1     -11.728  15.818  68.848  1.00  0.00    -0.404 C  
HETATM   24  C   UNL     1     -10.702  16.658  69.079  1.00  0.00    -0.343 C  
BRANCH  24  25
HETATM   25  C   UNL     1     -10.389  17.835  68.257  1.00  0.00    -0.385 A  
HETATM   26  C   UNL     1      -9.979  19.017  68.867  1.00  0.00    -0.460 A  
HETATM   27  C   UNL     1      -9.761  20.144  68.077  1.00  0.00    -0.464 A  
HETATM   28  C   UNL     1      -9.954  20.058  66.704  1.00  0.00    -0.598 A  
HETATM   29  C   UNL     1     -10.347  18.841  66.177  1.00  0.00    -0.448 A  
HETATM   30  N   UNL     1     -10.563  17.731  66.919  1.00  0.00    -0.292 NA 
ENDBRANCH  24  25
ENDBRANCH  22  23
ENDBRANCH  12  13
ENDBRANCH   7  12
ENDBRANCH   3   6
TORSDOF 5
ENDMDL
MODEL       16
REMARK 921   NORMALIZED FREE ENERGY PREDICTED BY IDOCK:   -6.61 KCAL/MOL
REMARK 922        TOTAL FREE ENERGY PREDICTED BY IDOCK:   -9.56 KCAL/MOL
REMARK 923 INTER-LIGAND FREE ENERGY PREDICTED BY IDOCK:   -8.89 KCAL/MOL
REMARK 924 INTRA-LIGAND FREE ENERGY PREDICTED BY IDOCK:   -0.67 KCAL/MOL
REMARK 927      BINDING AFFINITY PREDICTED BY RF-SCORE:    0.00 PKD
ROOT
HETATM    1  C   UNL     1     -12.027   7.255  71.497  1.00  0.00    -0.316 C  
HETATM    2  N   UNL     1     -11.748   7.741  70.173  1.00  0.00    -0.474 N  
HETATM    3  C   UNL     1     -10.756   8.670  69.945  1.00  0.00    -0.225 C  
HETATM    4  H   UNL     1     -12.295   7.391  69.387  1.00  0.00     0.000 HD 
HETATM    5  O   UNL     1     -10.177   9.276  70.841  1.00  0.00    -0.254 OA 
ENDROOT
BRANCH   3   6
HETATM    6  C   UNL     1     -10.451   8.967  68.511  1.00  0.00    -0.232 A  
HETATM    7  C   UNL     1     -10.788  10.181  67.864  1.00  0.00    -0.284 A  
HETATM    8  C   UNL     1     -10.374  10.362  66.535  1.00  0.00    -0.287 A  
HETATM    9  C   UNL     1      -9.425   8.133  66.475  1.00  0.00    -0.286 A  
HETATM   10  C   UNL     1      -9.688   9.348  65.851  1.00  0.00    -0.355 A  
HETATM   11  C   UNL     1      -9.800   7.945  67.803  1.00  0.00    -0.204 A  
BRANCH   7  12
HETATM   12  S   UNL     1     -11.933  11.328  68.624  1.00  0.00    -0.134 SA 
BRANCH  12  13
HETATM   13  C   UNL     1     -11.636  12.954  67.972  1.00  0.00    -0.342 A  
HETATM   14  C   UNL     1     -10.860  13.812  68.756  1.00  0.00    -0.281 A  
HETATM   15  C   UNL     1     -10.379  15.028  68.258  1.00  0.00    -0.236 A  
HETATM   16  C   UNL     1     -10.674  15.391  66.930  1.00  0.00    -0.314 A  
HETATM   17  C   UNL     1     -11.443  14.518  66.165  1.00  0.00    -0.357 A  
HETATM   18  C   UNL     1     -11.958  13.303  66.654  1.00  0.00    -0.446 A  
HETATM   19  N   UNL     1     -11.500  15.095  64.926  1.00  0.00    -0.389 NA 
HETATM   20  N   UNL     1     -10.848  16.263  64.826  1.00  0.00    -0.699 NA 
HETATM   21  H   UNL     1     -11.998  14.673  64.142  1.00  0.00     0.000 HD 
HETATM   22  C   UNL     1     -10.364  16.481  66.056  1.00  0.00    -0.345 A  
BRANCH  22  23
HETATM   23  C   UNL     1      -9.636  17.677  66.368  1.00  0.00    -0.285 C  
HETATM   24  C   UNL     1      -8.298  17.789  66.462  1.00  0.00    -0.294 C  
BRANCH  24  25
HETATM   25  C   UNL     1      -7.593  19.006  66.886  1.00  0.00    -0.232 A  
HETATM   26  C   UNL     1      -7.256  19.975  65.944  1.00  0.00    -0.327 A  
HETATM   27  C   UNL     1      -6.520  21.085  66.352  1.00  0.00    -0.303 A  
HETATM   28  C   UNL     1      -6.146  21.200  67.684  1.00  0.00    -0.425 A  
HETATM   29  C   UNL     1      -6.536  20.200  68.558  1.00  0.00    -0.307 A  
HETATM   30  N   UNL     1      -7.251  19.113  68.190  1.00  0.00    -0.258 NA 
ENDBRANCH  24  25
ENDBRANCH  22  23
ENDBRANCH  12  13
ENDBRANCH   7  12
ENDBRANCH   3   6
TORSDOF 5
ENDMDL
MODEL       17
REMARK 921   NORMALIZED FREE ENERGY PREDICTED BY IDOCK:   -6.61 KCAL/MOL
REMARK 922        TOTAL FREE ENERGY PREDICTED BY IDOCK:   -9.56 KCAL/MOL
REMARK 923 INTER-LIGAND FREE ENERGY PREDICTED BY IDOCK:   -8.99 KCAL/MOL
REMARK 924 INTRA-LIGAND FREE ENERGY PREDICTED BY IDOCK:   -0.57 KCAL/MOL
REMARK 927      BINDING AFFINITY PREDICTED BY RF-SCORE:    0.00 PKD
ROOT
HETATM    1  C   UNL     1     -11.455  16.365  64.465  1.00  0.00    -0.073 C  
HETATM    2  N   UNL     1     -10.788  15.096  64.574  1.00  0.00    -0.637 N  
HETATM    3  C   UNL     1     -11.495  13.913  64.596  1.00  0.00    -0.377 C  
HETATM    4  H   UNL     1      -9.770  15.070  64.636  1.00  0.00     0.000 HD 
HETATM    5  O   UNL     1     -12.716  13.857  64.710  1.00  0.00    -0.650 OA 
ENDROOT
BRANCH   3   6
HETATM    6  C   UNL     1     -10.681  12.659  64.541  1.00  0.00    -0.368 A  
HETATM    7  C   UNL     1     -10.204  11.973  65.685  1.00  0.00    -0.252 A  
HETATM    8  C   UNL     1      -9.518  10.764  65.495  1.00  0.00    -0.253 A  
HETATM    9  C   UNL     1      -9.680  10.993  63.088  1.00  0.00    -0.398 A  
HETATM   10  C   UNL     1      -9.268  10.274  64.206  1.00  0.00    -0.300 A  
HETATM   11  C   UNL     1     -10.389  12.179  63.255  1.00  0.00    -0.352 A  
BRANCH   7  12
HETATM   12  S   UNL     1     -10.239  12.756  67.295  1.00  0.00    -0.234 SA 
BRANCH  12  13
HETATM   13  C   UNL     1     -10.924  11.618  68.474  1.00  0.00    -0.220 A  
HETATM   14  C   UNL     1     -10.259  10.399  68.629  1.00  0.00    -0.196 A  
HETATM   15  C   UNL     1     -10.572   9.519  69.672  1.00  0.00    -0.245 A  
HETATM   16  C   UNL     1     -11.572   9.877  70.595  1.00  0.00    -0.413 A  
HETATM   17  C   UNL     1     -12.217  11.100  70.425  1.00  0.00    -0.369 A  
HETATM   18  C   UNL     1     -11.937  11.986  69.370  1.00  0.00    -0.334 A  
HETATM   19  N   UNL     1     -13.068  11.198  71.493  1.00  0.00    -0.424 NA 
HETATM   20  N   UNL     1     -13.036  10.148  72.326  1.00  0.00    -0.349 NA 
HETATM   21  H   UNL     1     -13.676  12.003  71.642  1.00  0.00     0.000 HD 
HETATM   22  C   UNL     1     -12.151   9.309  71.774  1.00  0.00    -0.387 A  
BRANCH  22  23
HETATM   23  C   UNL     1     -11.875   8.028  72.358  1.00  0.00    -0.429 C  
HETATM   24  C   UNL     1     -10.677   7.597  72.795  1.00  0.00    -0.401 C  
BRANCH  24  25
HETATM   25  C   UNL     1     -10.412   6.240  73.292  1.00  0.00    -0.248 A  
HETATM   26  C   UNL     1     -11.391   5.256  73.178  1.00  0.00    -0.358 A  
HETATM   27  C   UNL     1     -11.149   3.998  73.723  1.00  0.00    -0.296 A  
HETATM   28  C   UNL     1      -9.941   3.755  74.362  1.00  0.00    -0.192 A  
HETATM   29  C   UNL     1      -9.016   4.783  74.418  1.00  0.00    -0.111 A  
HETATM   30  N   UNL     1      -9.222   6.013  73.895  1.00  0.00    -0.127 NA 
ENDBRANCH  24  25
ENDBRANCH  22  23
ENDBRANCH  12  13
ENDBRANCH   7  12
ENDBRANCH   3   6
TORSDOF 5
ENDMDL
MODEL       18
REMARK 921   NORMALIZED FREE ENERGY PREDICTED BY IDOCK:   -6.58 KCAL/MOL
REMARK 922        TOTAL FREE ENERGY PREDICTED BY IDOCK:   -9.53 KCAL/MOL
REMARK 923 INTER-LIGAND FREE ENERGY PREDICTED BY IDOCK:   -8.50 KCAL/MOL
REMARK 924 INTRA-LIGAND FREE ENERGY PREDICTED BY IDOCK:   -1.03 KCAL/MOL
REMARK 927      BINDING AFFINITY PREDICTED BY RF-SCORE:    0.00 PKD
ROOT
HETATM    1  C   UNL     1     -10.755  20.176  65.633  1.00  0.00    -0.137 C  
HETATM    2  N   UNL     1      -9.668  19.382  66.137  1.00  0.00    -0.376 N  
HETATM    3  C   UNL     1      -9.863  18.448  67.132  1.00  0.00    -0.320 C  
HETATM    4  H   UNL     1      -8.732  19.512  65.752  1.00  0.00     0.000 HD 
HETATM    5  O   UNL     1     -10.903  18.352  67.776  1.00  0.00    -0.384 OA 
ENDROOT
BRANCH   3   6
HETATM    6  C   UNL     1      -8.693  17.571  67.449  1.00  0.00    -0.231 A  
HETATM    7  C   UNL     1      -8.495  16.283  66.895  1.00  0.00    -0.224 A  
HETATM    8  C   UNL     1      -7.313  15.597  67.217  1.00  0.00    -0.255 A  
HETATM    9  C   UNL     1      -6.618  17.387  68.695  1.00  0.00    -0.193 A  
HETATM   10  C   UNL     1      -6.378  16.151  68.102  1.00  0.00    -0.130 A  
HETATM   11  C   UNL     1      -7.769  18.097  68.366  1.00  0.00    -0.303 A  
BRANCH   7  12
HETATM   12  S   UNL     1      -9.825  15.449  66.034  1.00  0.00    -0.354 SA 
BRANCH  12  13
HETATM   13  C   UNL     1     -10.668  14.381  67.176  1.00  0.00    -0.283 A  
HETATM   14  C   UNL     1     -10.362  13.020  67.104  1.00  0.00    -0.243 A  
HETATM   15  C   UNL     1     -10.792  12.117  68.084  1.00  0.00    -0.256 A  
HETATM   16  C   UNL     1     -11.540  12.595  69.176  1.00  0.00    -0.374 A  
HETATM   17  C   UNL     1     -11.827  13.957  69.231  1.00  0.00    -0.348 A  
HETATM   18  C   UNL     1     -11.428  14.876  68.244  1.00  0.00    -0.343 A  
HETATM   19  N   UNL     1     -12.490  14.127  70.416  1.00  0.00    -0.349 NA 
HETATM   20  N   UNL     1     -12.664  13.001  71.122  1.00  0.00    -0.336 NA 
HETATM   21  H   UNL     1     -12.824  15.036  70.736  1.00  0.00     0.000 HD 
HETATM   22  C   UNL     1     -12.119  12.042  70.361  1.00  0.00    -0.321 A  
BRANCH  22  23
HETATM   23  C   UNL     1     -12.154  10.665  70.762  1.00  0.00    -0.474 C  
HETATM   24  C   UNL     1     -11.089   9.858  70.919  1.00  0.00    -0.418 C  
BRANCH  24  25
HETATM   25  C   UNL     1     -11.169   8.424  71.229  1.00  0.00    -0.259 A  
HETATM   26  C   UNL     1     -11.132   7.999  72.555  1.00  0.00    -0.440 A  
HETATM   27  C   UNL     1     -11.132   6.633  72.825  1.00  0.00    -0.283 A  
HETATM   28  C   UNL     1     -11.174   5.731  71.770  1.00  0.00    -0.275 A  
HETATM   29  C   UNL     1     -11.226   6.238  70.483  1.00  0.00    -0.354 A  
HETATM   30  N   UNL     1     -11.229   7.558  70.192  1.00  0.00    -0.236 NA 
ENDBRANCH  24  25
ENDBRANCH  22  23
ENDBRANCH  12  13
ENDBRANCH   7  12
ENDBRANCH   3   6
TORSDOF 5
ENDMDL
MODEL       19
REMARK 921   NORMALIZED FREE ENERGY PREDICTED BY IDOCK:   -6.54 KCAL/MOL
REMARK 922        TOTAL FREE ENERGY PREDICTED BY IDOCK:   -9.47 KCAL/MOL
REMARK 923 INTER-LIGAND FREE ENERGY PREDICTED BY IDOCK:   -8.82 KCAL/MOL
REMARK 924 INTRA-LIGAND FREE ENERGY PREDICTED BY IDOCK:   -0.65 KCAL/MOL
REMARK 927      BINDING AFFINITY PREDICTED BY RF-SCORE:    0.00 PKD
ROOT
HETATM    1  C   UNL     1     -10.586  20.036  65.581  1.00  0.00    -0.275 C  
HETATM    2  N   UNL     1      -9.950  19.226  66.584  1.00  0.00    -0.350 N  
HETATM    3  C   UNL     1      -9.776  17.870  66.405  1.00  0.00    -0.316 C  
HETATM    4  H   UNL     1      -9.622  19.662  67.445  1.00  0.00     0.000 HD 
HETATM    5  O   UNL     1     -10.295  17.235  65.493  1.00  0.00    -0.614 OA 
ENDROOT
BRANCH   3   6
HETATM    6  C   UNL     1      -8.953  17.171  67.442  1.00  0.00    -0.223 A  
HETATM    7  C   UNL     1      -9.497  16.387  68.488  1.00  0.00    -0.227 A  
HETATM    8  C   UNL     1      -8.609  15.721  69.348  1.00  0.00    -0.225 A  
HETATM    9  C   UNL     1      -6.702  16.698  68.216  1.00  0.00    -0.143 A  
HETATM   10  C   UNL     1      -7.223  15.869  69.204  1.00  0.00    -0.196 A  
HETATM   11  C   UNL     1      -7.564  17.344  67.334  1.00  0.00    -0.209 A  
BRANCH   7  12
HETATM   12  S   UNL     1     -11.245  16.462  68.866  1.00  0.00    -0.261 SA 
BRANCH  12  13
HETATM   13  C   UNL     1     -11.791  14.852  69.381  1.00  0.00    -0.324 A  
HETATM   14  C   UNL     1     -11.158  13.755  68.790  1.00  0.00    -0.295 A  
HETATM   15  C   UNL     1     -11.346  12.453  69.268  1.00  0.00    -0.315 A  
HETATM   16  C   UNL     1     -12.182  12.244  70.380  1.00  0.00    -0.371 A  
HETATM   17  C   UNL     1     -12.798  13.352  70.958  1.00  0.00    -0.251 A  
HETATM   18  C   UNL     1     -12.644  14.665  70.478  1.00  0.00    -0.409 A  
HETATM   19  N   UNL     1     -13.475  12.853  72.037  1.00  0.00    -0.507 NA 
HETATM   20  N   UNL     1     -13.361  11.527  72.201  1.00  0.00    -0.374 NA 
HETATM   21  H   UNL     1     -14.022  13.441  72.666  1.00  0.00     0.000 HD 
HETATM   22  C   UNL     1     -12.601  11.128  71.172  1.00  0.00    -0.409 A  
BRANCH  22  23
HETATM   23  C   UNL     1     -12.291   9.742  70.969  1.00  0.00    -0.422 C  
HETATM   24  C   UNL     1     -11.664   8.933  71.843  1.00  0.00    -0.439 C  
BRANCH  24  25
HETATM   25  C   UNL     1     -11.271   7.547  71.560  1.00  0.00    -0.243 A  
HETATM   26  C   UNL     1     -10.778   6.742  72.584  1.00  0.00    -0.271 A  
HETATM   27  C   UNL     1     -10.338   5.456  72.281  1.00  0.00    -0.260 A  
HETATM   28  C   UNL     1     -10.406   5.008  70.968  1.00  0.00    -0.254 A  
HETATM   29  C   UNL     1     -10.925   5.865  70.014  1.00  0.00    -0.360 A  
HETATM   30  N   UNL     1     -11.360   7.117  70.280  1.00  0.00    -0.282 NA 
ENDBRANCH  24  25
ENDBRANCH  22  23
ENDBRANCH  12  13
ENDBRANCH   7  12
ENDBRANCH   3   6
TORSDOF 5
ENDMDL
MODEL       20
REMARK 921   NORMALIZED FREE ENERGY PREDICTED BY IDOCK:   -6.50 KCAL/MOL
REMARK 922        TOTAL FREE ENERGY PREDICTED BY IDOCK:   -9.42 KCAL/MOL
REMARK 923 INTER-LIGAND FREE ENERGY PREDICTED BY IDOCK:   -8.56 KCAL/MOL
REMARK 924 INTRA-LIGAND FREE ENERGY PREDICTED BY IDOCK:   -0.86 KCAL/MOL
REMARK 927      BINDING AFFINITY PREDICTED BY RF-SCORE:    0.00 PKD
ROOT
HETATM    1  C   UNL     1     -11.797  15.422  69.177  1.00  0.00    -0.335 C  
HETATM    2  N   UNL     1     -11.918  14.560  68.033  1.00  0.00    -0.522 N  
HETATM    3  C   UNL     1     -11.289  14.856  66.842  1.00  0.00    -0.337 C  
HETATM    4  H   UNL     1     -12.479  13.712  68.103  1.00  0.00     0.000 HD 
HETATM    5  O   UNL     1     -10.750  15.934  66.611  1.00  0.00    -0.316 OA 
ENDROOT
BRANCH   3   6
HETATM    6  C   UNL     1     -11.353  13.799  65.785  1.00  0.00    -0.309 A  
HETATM    7  C   UNL     1     -10.700  12.545  65.878  1.00  0.00    -0.264 A  
HETATM    8  C   UNL     1     -10.906  11.613  64.850  1.00  0.00    -0.359 A  
HETATM    9  C   UNL     1     -12.275  13.193  63.623  1.00  0.00    -0.553 A  
HETATM   10  C   UNL     1     -11.696  11.932  63.736  1.00  0.00    -0.554 A  
HETATM   11  C   UNL     1     -12.108  14.122  64.647  1.00  0.00    -0.469 A  
BRANCH   7  12
HETATM   12  S   UNL     1      -9.446  12.264  67.123  1.00  0.00    -0.201 SA 
BRANCH  12  13
HETATM   13  C   UNL     1     -10.077  11.120  68.327  1.00  0.00    -0.185 A  
HETATM   14  C   UNL     1      -9.202  10.122  68.763  1.00  0.00    -0.164 A  
HETATM   15  C   UNL     1      -9.508   9.304  69.858  1.00  0.00    -0.214 A  
HETATM   16  C   UNL     1     -10.721   9.501  70.544  1.00  0.00    -0.359 A  
HETATM   17  C   UNL     1     -11.575  10.506  70.096  1.00  0.00    -0.326 A  
HETATM   18  C   UNL     1     -11.299  11.321  68.983  1.00  0.00    -0.344 A  
HETATM   19  N   UNL     1     -12.615  10.504  70.985  1.00  0.00    -0.366 NA 
HETATM   20  N   UNL     1     -12.514   9.584  71.956  1.00  0.00    -0.367 NA 
HETATM   21  H   UNL     1     -13.403  11.148  70.915  1.00  0.00     0.000 HD 
HETATM   22  C   UNL     1     -11.376   8.933  71.682  1.00  0.00    -0.337 A  
BRANCH  22  23
HETATM   23  C   UNL     1     -10.942   7.825  72.483  1.00  0.00    -0.395 C  
HETATM   24  C   UNL     1     -10.889   6.538  72.093  1.00  0.00    -0.264 C  
BRANCH  24  25
HETATM   25  C   UNL     1     -10.538   5.415  72.974  1.00  0.00    -0.235 A  
HETATM   26  C   UNL     1      -9.337   5.435  73.678  1.00  0.00    -0.133 A  
HETATM   27  C   UNL     1      -8.987   4.328  74.447  1.00  0.00    -0.104 A  
HETATM   28  C   UNL     1      -9.844   3.237  74.497  1.00  0.00    -0.167 A  
HETATM   29  C   UNL     1     -11.026   3.306  73.780  1.00  0.00    -0.221 A  
HETATM   30  N   UNL     1     -11.392   4.367  73.027  1.00  0.00    -0.155 NA 
ENDBRANCH  24  25
ENDBRANCH  22  23
ENDBRANCH  12  13
ENDBRANCH   7  12
ENDBRANCH   3   6
TORSDOF 5
ENDMDL
MODEL       21
REMARK 921   NORMALIZED FREE ENERGY PREDICTED BY IDOCK:   -6.49 KCAL/MOL
REMARK 922        TOTAL FREE ENERGY PREDICTED BY IDOCK:   -9.41 KCAL/MOL
REMARK 923 INTER-LIGAND FREE ENERGY PREDICTED BY IDOCK:   -8.58 KCAL/MOL
REMARK 924 INTRA-LIGAND FREE ENERGY PREDICTED BY IDOCK:   -0.83 KCAL/MOL
REMARK 927      BINDING AFFINITY PREDICTED BY RF-SCORE:    0.00 PKD
ROOT
HETATM    1  C   UNL     1     -12.155  12.291  63.444  1.00  0.00    -0.516 C  
HETATM    2  N   UNL     1     -11.387  13.204  64.246  1.00  0.00    -0.370 N  
HETATM    3  C   UNL     1     -11.980  13.968  65.228  1.00  0.00    -0.379 C  
HETATM    4  H   UNL     1     -10.383  13.288  64.086  1.00  0.00     0.000 HD 
HETATM    5  O   UNL     1     -13.195  14.068  65.368  1.00  0.00    -0.761 OA 
ENDROOT
BRANCH   3   6
HETATM    6  C   UNL     1     -11.050  14.749  66.103  1.00  0.00    -0.339 A  
HETATM    7  C   UNL     1     -10.867  14.501  67.485  1.00  0.00    -0.289 A  
HETATM    8  C   UNL     1      -9.905  15.257  68.173  1.00  0.00    -0.217 A  
HETATM    9  C   UNL     1      -9.422  16.547  66.180  1.00  0.00    -0.347 A  
HETATM   10  C   UNL     1      -9.182  16.265  67.521  1.00  0.00    -0.206 A  
HETATM   11  C   UNL     1     -10.349  15.788  65.471  1.00  0.00    -0.430 A  
BRANCH   7  12
HETATM   12  S   UNL     1     -12.008  13.451  68.379  1.00  0.00    -0.259 SA 
BRANCH  12  13
HETATM   13  C   UNL     1     -11.300  11.828  68.529  1.00  0.00    -0.273 A  
HETATM   14  C   UNL     1     -11.330  11.245  69.798  1.00  0.00    -0.348 A  
HETATM   15  C   UNL     1     -11.005   9.898  69.995  1.00  0.00    -0.338 A  
HETATM   16  C   UNL     1     -10.652   9.108  68.886  1.00  0.00    -0.214 A  
HETATM   17  C   UNL     1     -10.636   9.707  67.629  1.00  0.00    -0.275 A  
HETATM   18  C   UNL     1     -10.933  11.065  67.412  1.00  0.00    -0.349 A  
HETATM   19  N   UNL     1     -10.332   8.694  66.761  1.00  0.00    -0.287 NA 
HETATM   20  N   UNL     1     -10.142   7.502  67.344  1.00  0.00    -0.194 NA 
HETATM   21  H   UNL     1     -10.257   8.833  65.754  1.00  0.00     0.000 HD 
HETATM   22  C   UNL     1     -10.298   7.741  68.653  1.00  0.00    -0.199 A  
BRANCH  22  23
HETATM   23  C   UNL     1     -10.119   6.702  69.625  1.00  0.00    -0.202 C  
HETATM   24  C   UNL     1     -11.032   6.291  70.525  1.00  0.00    -0.374 C  
BRANCH  24  25
HETATM   25  C   UNL     1     -10.777   5.295  71.574  1.00  0.00    -0.151 A  
HETATM   26  C   UNL     1     -10.028   4.158  71.283  1.00  0.00    -0.216 A  
HETATM   27  C   UNL     1      -9.862   3.189  72.270  1.00  0.00    -0.233 A  
HETATM   28  C   UNL     1     -10.443   3.382  73.516  1.00  0.00    -0.260 A  
HETATM   29  C   UNL     1     -11.158   4.548  73.727  1.00  0.00    -0.253 A  
HETATM   30  N   UNL     1     -11.333   5.506  72.789  1.00  0.00    -0.305 NA 
ENDBRANCH  24  25
ENDBRANCH  22  23
ENDBRANCH  12  13
ENDBRANCH   7  12
ENDBRANCH   3   6
TORSDOF 5
ENDMDL
MODEL       22
REMARK 921   NORMALIZED FREE ENERGY PREDICTED BY IDOCK:   -6.49 KCAL/MOL
REMARK 922        TOTAL FREE ENERGY PREDICTED BY IDOCK:   -9.41 KCAL/MOL
REMARK 923 INTER-LIGAND FREE ENERGY PREDICTED BY IDOCK:   -8.58 KCAL/MOL
REMARK 924 INTRA-LIGAND FREE ENERGY PREDICTED BY IDOCK:   -0.83 KCAL/MOL
REMARK 927      BINDING AFFINITY PREDICTED BY RF-SCORE:    0.00 PKD
ROOT
HETATM    1  C   UNL     1      -7.567  16.788  68.820  1.00  0.00    -0.240 C  
HETATM    2  N   UNL     1      -8.534  15.928  68.194  1.00  0.00    -0.165 N  
HETATM    3  C   UNL     1      -9.771  16.399  67.811  1.00  0.00    -0.235 C  
HETATM    4  H   UNL     1      -8.300  14.948  68.031  1.00  0.00     0.000 HD 
HETATM    5  O   UNL     1     -10.204  17.502  68.129  1.00  0.00    -0.318 OA 
ENDROOT
BRANCH   3   6
HETATM    6  C   UNL     1     -10.619  15.452  67.021  1.00  0.00    -0.309 A  
HETATM    7  C   UNL     1     -11.670  14.680  67.573  1.00  0.00    -0.379 A  
HETATM    8  C   UNL     1     -12.439  13.890  66.705  1.00  0.00    -0.313 A  
HETATM    9  C   UNL     1     -11.063  14.536  64.817  1.00  0.00    -0.400 A  
HETATM   10  C   UNL     1     -12.143  13.828  65.336  1.00  0.00    -0.427 A  
HETATM   11  C   UNL     1     -10.307  15.350  65.656  1.00  0.00    -0.395 A  
BRANCH   7  12
HETATM   12  S   UNL     1     -11.838  14.510  69.347  1.00  0.00    -0.333 SA 
BRANCH  12  13
HETATM   13  C   UNL     1     -11.930  12.783  69.753  1.00  0.00    -0.292 A  
HETATM   14  C   UNL     1     -11.003  11.943  69.131  1.00  0.00    -0.251 A  
HETATM   15  C   UNL     1     -10.835  10.612  69.531  1.00  0.00    -0.303 A  
HETATM   16  C   UNL     1     -11.609  10.111  70.594  1.00  0.00    -0.429 A  
HETATM   17  C   UNL     1     -12.522  10.969  71.204  1.00  0.00    -0.397 A  
HETATM   18  C   UNL     1     -12.726  12.301  70.801  1.00  0.00    -0.212 A  
HETATM   19  N   UNL     1     -13.063  10.236  72.225  1.00  0.00    -0.518 NA 
HETATM   20  N   UNL     1     -12.590   8.985  72.323  1.00  0.00    -0.385 NA 
HETATM   21  H   UNL     1     -13.767  10.610  72.861  1.00  0.00     0.000 HD 
HETATM   22  C   UNL     1     -11.723   8.876  71.308  1.00  0.00    -0.306 A  
BRANCH  22  23
HETATM   23  C   UNL     1     -11.036   7.644  71.045  1.00  0.00    -0.273 C  
HETATM   24  C   UNL     1     -11.057   6.955  69.889  1.00  0.00    -0.333 C  
BRANCH  24  25
HETATM   25  C   UNL     1     -10.426   5.644  69.691  1.00  0.00    -0.304 A  
HETATM   26  C   UNL     1     -10.123   4.846  70.792  1.00  0.00    -0.303 A  
HETATM   27  C   UNL     1      -9.455   3.641  70.589  1.00  0.00    -0.242 A  
HETATM   28  C   UNL     1      -9.113   3.263  69.297  1.00  0.00    -0.200 A  
HETATM   29  C   UNL     1      -9.466   4.106  68.258  1.00  0.00    -0.154 A  
HETATM   30  N   UNL     1     -10.115   5.280  68.425  1.00  0.00    -0.169 NA 
ENDBRANCH  24  25
ENDBRANCH  22  23
ENDBRANCH  12  13
ENDBRANCH   7  12
ENDBRANCH   3   6
TORSDOF 5
ENDMDL
MODEL       23
REMARK 921   NORMALIZED FREE ENERGY PREDICTED BY IDOCK:   -6.48 KCAL/MOL
REMARK 922        TOTAL FREE ENERGY PREDICTED BY IDOCK:   -9.39 KCAL/MOL
REMARK 923 INTER-LIGAND FREE ENERGY PREDICTED BY IDOCK:   -8.71 KCAL/MOL
REMARK 924 INTRA-LIGAND FREE ENERGY PREDICTED BY IDOCK:   -0.68 KCAL/MOL
REMARK 927      BINDING AFFINITY PREDICTED BY RF-SCORE:    0.00 PKD
ROOT
HETATM    1  C   UNL     1      -9.750  18.027  68.559  1.00  0.00    -0.352 C  
HETATM    2  N   UNL     1     -10.754  17.284  69.271  1.00  0.00    -0.356 N  
HETATM    3  C   UNL     1     -10.441  16.127  69.951  1.00  0.00    -0.261 C  
HETATM    4  H   UNL     1     -11.717  17.619  69.272  1.00  0.00     0.000 HD 
HETATM    5  O   UNL     1      -9.360  15.555  69.855  1.00  0.00    -0.240 OA 
ENDROOT
BRANCH   3   6
HETATM    6  C   UNL     1     -11.534  15.541  70.789  1.00  0.00    -0.396 A  
HETATM    7  C   UNL     1     -12.288  14.399  70.422  1.00  0.00    -0.342 A  
HETATM    8  C   UNL     1     -13.232  13.907  71.336  1.00  0.00    -0.392 A  
HETATM    9  C   UNL     1     -12.763  15.719  72.874  1.00  0.00    -0.572 A  
HETATM   10  C   UNL     1     -13.459  14.557  72.557  1.00  0.00    -0.580 A  
HETATM   11  C   UNL     1     -11.799  16.207  71.995  1.00  0.00    -0.615 A  
BRANCH   7  12
HETATM   12  S   UNL     1     -12.228  13.770  68.747  1.00  0.00    -0.029 SA 
BRANCH  12  13
HETATM   13  C   UNL     1     -11.491  12.154  68.766  1.00  0.00    -0.307 A  
HETATM   14  C   UNL     1     -11.440  11.502  70.000  1.00  0.00    -0.304 A  
HETATM   15  C   UNL     1     -11.086  10.151  70.103  1.00  0.00    -0.378 A  
HETATM   16  C   UNL     1     -10.786   9.430  68.933  1.00  0.00    -0.203 A  
HETATM   17  C   UNL     1     -10.850  10.098  67.712  1.00  0.00    -0.292 A  
HETATM   18  C   UNL     1     -11.178  11.460  67.589  1.00  0.00    -0.346 A  
HETATM   19  N   UNL     1     -10.582   9.139  66.774  1.00  0.00    -0.191 NA 
HETATM   20  N   UNL     1     -10.343   7.920  67.277  1.00  0.00    -0.278 NA 
HETATM   21  H   UNL     1     -10.566   9.335  65.773  1.00  0.00     0.000 HD 
HETATM   22  C   UNL     1     -10.427   8.084  68.604  1.00  0.00    -0.167 A  
BRANCH  22  23
HETATM   23  C   UNL     1     -10.179   6.996  69.505  1.00  0.00    -0.208 C  
HETATM   24  C   UNL     1     -11.090   6.392  70.290  1.00  0.00    -0.416 C  
BRANCH  24  25
HETATM   25  C   UNL     1     -10.779   5.350  71.278  1.00  0.00    -0.179 A  
HETATM   26  C   UNL     1     -10.009   4.250  70.906  1.00  0.00    -0.225 A  
HETATM   27  C   UNL     1      -9.789   3.236  71.834  1.00  0.00    -0.238 A  
HETATM   28  C   UNL     1     -10.337   3.348  73.105  1.00  0.00    -0.244 A  
HETATM   29  C   UNL     1     -11.076   4.481  73.398  1.00  0.00    -0.322 A  
HETATM   30  N   UNL     1     -11.304   5.481  72.517  1.00  0.00    -0.281 NA 
ENDBRANCH  24  25
ENDBRANCH  22  23
ENDBRANCH  12  13
ENDBRANCH   7  12
ENDBRANCH   3   6
TORSDOF 5
ENDMDL
MODEL       24
REMARK 921   NORMALIZED FREE ENERGY PREDICTED BY IDOCK:   -6.44 KCAL/MOL
REMARK 922        TOTAL FREE ENERGY PREDICTED BY IDOCK:   -9.35 KCAL/MOL
REMARK 923 INTER-LIGAND FREE ENERGY PREDICTED BY IDOCK:   -8.97 KCAL/MOL
REMARK 924 INTRA-LIGAND FREE ENERGY PREDICTED BY IDOCK:   -0.37 KCAL/MOL
REMARK 927      BINDING AFFINITY PREDICTED BY RF-SCORE:    0.00 PKD
ROOT
HETATM    1  C   UNL     1      -8.489  15.473  68.834  1.00  0.00    -0.207 C  
HETATM    2  N   UNL     1      -9.390  15.206  69.922  1.00  0.00    -0.457 N  
HETATM    3  C   UNL     1     -10.594  15.869  70.036  1.00  0.00    -0.316 C  
HETATM    4  H   UNL     1      -9.135  14.511  70.624  1.00  0.00     0.000 HD 
HETATM    5  O   UNL     1     -10.900  16.839  69.350  1.00  0.00    -0.318 OA 
ENDROOT
BRANCH   3   6
HETATM    6  C   UNL     1     -11.513  15.382  71.111  1.00  0.00    -0.425 A  
HETATM    7  C   UNL     1     -12.176  14.130  71.079  1.00  0.00    -0.358 A  
HETATM    8  C   UNL     1     -12.950  13.762  72.191  1.00  0.00    -0.437 A  
HETATM    9  C   UNL     1     -12.503  15.886  73.269  1.00  0.00    -0.636 A  
HETATM   10  C   UNL     1     -13.103  14.630  73.281  1.00  0.00    -0.505 A  
HETATM   11  C   UNL     1     -11.706  16.259  72.190  1.00  0.00    -0.531 A  
BRANCH   7  12
HETATM   12  S   UNL     1     -12.244  13.176  69.567  1.00  0.00    -0.070 SA 
BRANCH  12  13
HETATM   13  C   UNL     1     -12.099  11.451  69.968  1.00  0.00    -0.340 A  
HETATM   14  C   UNL     1     -11.198  10.703  69.207  1.00  0.00    -0.332 A  
HETATM   15  C   UNL     1     -10.838   9.399  69.566  1.00  0.00    -0.231 A  
HETATM   16  C   UNL     1     -11.388   8.832  70.730  1.00  0.00    -0.313 A  
HETATM   17  C   UNL     1     -12.279   9.598  71.479  1.00  0.00    -0.399 A  
HETATM   18  C   UNL     1     -12.674  10.899  71.122  1.00  0.00    -0.530 A  
HETATM   19  N   UNL     1     -12.581   8.822  72.565  1.00  0.00    -0.446 NA 
HETATM   20  N   UNL     1     -11.976   7.626  72.579  1.00  0.00    -0.258 NA 
HETATM   21  H   UNL     1     -13.215   9.128  73.303  1.00  0.00     0.000 HD 
HETATM   22  C   UNL     1     -11.267   7.597  71.443  1.00  0.00    -0.246 A  
BRANCH  22  23
HETATM   23  C   UNL     1     -10.508   6.438  71.070  1.00  0.00    -0.268 C  
HETATM   24  C   UNL     1     -10.663   5.717  69.944  1.00  0.00    -0.412 C  
BRANCH  24  25
HETATM   25  C   UNL     1      -9.938   4.475  69.644  1.00  0.00    -0.181 A  
HETATM   26  C   UNL     1      -9.610   3.598  70.675  1.00  0.00    -0.254 A  
HETATM   27  C   UNL     1      -8.856   2.464  70.382  1.00  0.00    -0.137 A  
HETATM   28  C   UNL     1      -8.454   2.236  69.073  1.00  0.00    -0.091 A  
HETATM   29  C   UNL     1      -8.836   3.149  68.106  1.00  0.00    -0.123 A  
HETATM   30  N   UNL     1      -9.569   4.256  68.361  1.00  0.00    -0.151 NA 
ENDBRANCH  24  25
ENDBRANCH  22  23
ENDBRANCH  12  13
ENDBRANCH   7  12
ENDBRANCH   3   6
TORSDOF 5
ENDMDL
MODEL       25
REMARK 921   NORMALIZED FREE ENERGY PREDICTED BY IDOCK:   -6.43 KCAL/MOL
REMARK 922        TOTAL FREE ENERGY PREDICTED BY IDOCK:   -9.33 KCAL/MOL
REMARK 923 INTER-LIGAND FREE ENERGY PREDICTED BY IDOCK:   -8.40 KCAL/MOL
REMARK 924 INTRA-LIGAND FREE ENERGY PREDICTED BY IDOCK:   -0.94 KCAL/MOL
REMARK 927      BINDING AFFINITY PREDICTED BY RF-SCORE:    0.00 PKD
ROOT
HETATM    1  C   UNL     1      -6.813  12.771  67.376  1.00  0.00    -0.133 C  
HETATM    2  N   UNL     1      -8.182  12.679  66.944  1.00  0.00    -0.373 N  
HETATM    3  C   UNL     1      -8.921  13.807  66.657  1.00  0.00    -0.129 C  
HETATM    4  H   UNL     1      -8.615  11.761  66.848  1.00  0.00     0.000 HD 
HETATM    5  O   UNL     1      -8.546  14.946  66.917  1.00  0.00    -0.227 OA 
ENDROOT
BRANCH   3   6
HETATM    6  C   UNL     1     -10.272  13.572  66.058  1.00  0.00    -0.308 A  
HETATM    7  C   UNL     1     -11.491  13.781  66.748  1.00  0.00    -0.348 A  
HETATM    8  C   UNL     1     -12.691  13.598  66.043  1.00  0.00    -0.366 A  
HETATM    9  C   UNL     1     -11.480  12.902  64.063  1.00  0.00    -0.478 A  
HETATM   10  C   UNL     1     -12.683  13.172  64.707  1.00  0.00    -0.373 A  
HETATM   11  C   UNL     1     -10.277  13.107  64.734  1.00  0.00    -0.321 A  
BRANCH   7  12
HETATM   12  S   UNL     1     -11.505  14.006  68.523  1.00  0.00    -0.325 SA 
BRANCH  12  13
HETATM   13  C   UNL     1     -11.939  12.466  69.294  1.00  0.00    -0.253 A  
HETATM   14  C   UNL     1     -11.305  11.320  68.807  1.00  0.00    -0.335 A  
HETATM   15  C   UNL     1     -11.399  10.091  69.471  1.00  0.00    -0.220 A  
HETATM   16  C   UNL     1     -12.139  10.010  70.665  1.00  0.00    -0.381 A  
HETATM   17  C   UNL     1     -12.756  11.166  71.137  1.00  0.00    -0.408 A  
HETATM   18  C   UNL     1     -12.697  12.404  70.472  1.00  0.00    -0.051 A  
HETATM   19  N   UNL     1     -13.326  10.799  72.325  1.00  0.00    -0.576 NA 
HETATM   20  N   UNL     1     -13.142   9.513  72.656  1.00  0.00    -0.231 NA 
HETATM   21  H   UNL     1     -13.849  11.450  72.911  1.00  0.00     0.000 HD 
HETATM   22  C   UNL     1     -12.446   9.001  71.632  1.00  0.00    -0.351 A  
BRANCH  22  23
HETATM   23  C   UNL     1     -12.092   7.611  71.594  1.00  0.00    -0.336 C  
HETATM   24  C   UNL     1     -11.415   6.939  72.543  1.00  0.00    -0.268 C  
BRANCH  24  25
HETATM   25  C   UNL     1     -10.980   5.541  72.423  1.00  0.00    -0.255 A  
HETATM   26  C   UNL     1     -11.283   4.631  73.432  1.00  0.00    -0.423 A  
HETATM   27  C   UNL     1     -10.796   3.330  73.336  1.00  0.00    -0.307 A  
HETATM   28  C   UNL     1     -10.026   2.972  72.238  1.00  0.00    -0.237 A  
HETATM   29  C   UNL     1      -9.785   3.933  71.271  1.00  0.00    -0.177 A  
HETATM   30  N   UNL     1     -10.246   5.202  71.337  1.00  0.00    -0.209 NA 
ENDBRANCH  24  25
ENDBRANCH  22  23
ENDBRANCH  12  13
ENDBRANCH   7  12
ENDBRANCH   3   6
TORSDOF 5
ENDMDL
MODEL       26
REMARK 921   NORMALIZED FREE ENERGY PREDICTED BY IDOCK:   -6.41 KCAL/MOL
REMARK 922        TOTAL FREE ENERGY PREDICTED BY IDOCK:   -9.31 KCAL/MOL
REMARK 923 INTER-LIGAND FREE ENERGY PREDICTED BY IDOCK:   -8.45 KCAL/MOL
REMARK 924 INTRA-LIGAND FREE ENERGY PREDICTED BY IDOCK:   -0.86 KCAL/MOL
REMARK 927      BINDING AFFINITY PREDICTED BY RF-SCORE:    0.00 PKD
ROOT
HETATM    1  C   UNL     1     -14.411   7.539  71.568  1.00  0.00    -0.458 C  
HETATM    2  N   UNL     1     -12.984   7.599  71.406  1.00  0.00    -0.456 N  
HETATM    3  C   UNL     1     -12.288   8.772  71.605  1.00  0.00    -0.337 C  
HETATM    4  H   UNL     1     -12.475   6.756  71.138  1.00  0.00     0.000 HD 
HETATM    5  O   UNL     1     -12.829   9.864  71.748  1.00  0.00    -0.380 OA 
ENDROOT
BRANCH   3   6
HETATM    6  C   UNL     1     -10.796   8.666  71.571  1.00  0.00    -0.352 A  
HETATM    7  C   UNL     1      -9.983   9.246  70.567  1.00  0.00    -0.249 A  
HETATM    8  C   UNL     1      -8.590   9.137  70.697  1.00  0.00    -0.266 A  
HETATM    9  C   UNL     1      -8.832   7.804  72.706  1.00  0.00    -0.227 A  
HETATM   10  C   UNL     1      -8.020   8.429  71.765  1.00  0.00    -0.173 A  
HETATM   11  C   UNL     1     -10.216   7.926  72.613  1.00  0.00    -0.361 A  
BRANCH   7  12
HETATM   12  S   UNL     1     -10.710   9.859  69.051  1.00  0.00    -0.218 SA 
BRANCH  12  13
HETATM   13  C   UNL     1     -10.594  11.632  69.034  1.00  0.00    -0.153 A  
HETATM   14  C   UNL     1      -9.443  12.180  68.463  1.00  0.00    -0.125 A  
HETATM   15  C   UNL     1      -9.337  13.551  68.196  1.00  0.00    -0.213 A  
HETATM   16  C   UNL     1     -10.421  14.395  68.499  1.00  0.00    -0.254 A  
HETATM   17  C   UNL     1     -11.562  13.826  69.061  1.00  0.00    -0.313 A  
HETATM   18  C   UNL     1     -11.679  12.457  69.361  1.00  0.00    -0.384 A  
HETATM   19  N   UNL     1     -12.450  14.860  69.173  1.00  0.00    -0.587 NA 
HETATM   20  N   UNL     1     -11.984  16.042  68.745  1.00  0.00    -0.235 NA 
HETATM   21  H   UNL     1     -13.390  14.743  69.551  1.00  0.00     0.000 HD 
HETATM   22  C   UNL     1     -10.726  15.786  68.361  1.00  0.00    -0.281 A  
BRANCH  22  23
HETATM   23  C   UNL     1      -9.868  16.830  67.881  1.00  0.00    -0.257 C  
HETATM   24  C   UNL     1      -8.888  17.435  68.577  1.00  0.00    -0.277 C  
BRANCH  24  25
HETATM   25  C   UNL     1      -8.099  18.573  68.087  1.00  0.00    -0.290 A  
HETATM   26  C   UNL     1      -7.037  19.059  68.846  1.00  0.00    -0.363 A  
HETATM   27  C   UNL     1      -6.350  20.186  68.402  1.00  0.00    -0.326 A  
HETATM   28  C   UNL     1      -6.736  20.792  67.214  1.00  0.00    -0.391 A  
HETATM   29  C   UNL     1      -7.791  20.235  66.512  1.00  0.00    -0.238 A  
HETATM   30  N   UNL     1      -8.474  19.142  66.918  1.00  0.00    -0.284 NA 
ENDBRANCH  24  25
ENDBRANCH  22  23
ENDBRANCH  12  13
ENDBRANCH   7  12
ENDBRANCH   3   6
TORSDOF 5
ENDMDL
MODEL       27
REMARK 921   NORMALIZED FREE ENERGY PREDICTED BY IDOCK:   -6.41 KCAL/MOL
REMARK 922        TOTAL FREE ENERGY PREDICTED BY IDOCK:   -9.30 KCAL/MOL
REMARK 923 INTER-LIGAND FREE ENERGY PREDICTED BY IDOCK:   -8.16 KCAL/MOL
REMARK 924 INTRA-LIGAND FREE ENERGY PREDICTED BY IDOCK:   -1.14 KCAL/MOL
REMARK 927      BINDING AFFINITY PREDICTED BY RF-SCORE:    0.00 PKD
ROOT
HETATM    1  C   UNL     1     -10.955   6.581  67.180  1.00  0.00    -0.408 C  
HETATM    2  N   UNL     1      -9.861   6.811  68.085  1.00  0.00    -0.135 N  
HETATM    3  C   UNL     1      -8.818   5.917  68.190  1.00  0.00    -0.110 C  
HETATM    4  H   UNL     1      -9.857   7.654  68.660  1.00  0.00     0.000 HD 
HETATM    5  O   UNL     1      -8.828   4.801  67.679  1.00  0.00    -0.103 OA 
ENDROOT
BRANCH   3   6
HETATM    6  C   UNL     1      -7.664   6.351  69.037  1.00  0.00    -0.101 A  
HETATM    7  C   UNL     1      -7.464   5.937  70.377  1.00  0.00    -0.089 A  
HETATM    8  C   UNL     1      -6.297   6.356  71.033  1.00  0.00    -0.048 A  
HETATM    9  C   UNL     1      -5.620   7.658  69.105  1.00  0.00    -0.026 A  
HETATM   10  C   UNL     1      -5.378   7.202  70.397  1.00  0.00    -0.023 A  
HETATM   11  C   UNL     1      -6.757   7.230  68.425  1.00  0.00    -0.054 A  
BRANCH   7  12
HETATM   12  S   UNL     1      -8.781   5.135  71.286  1.00  0.00    -0.129 SA 
BRANCH  12  13
HETATM   13  C   UNL     1     -10.033   6.337  71.666  1.00  0.00    -0.179 A  
HETATM   14  C   UNL     1      -9.640   7.677  71.652  1.00  0.00    -0.182 A  
HETATM   15  C   UNL     1     -10.574   8.718  71.718  1.00  0.00    -0.417 A  
HETATM   16  C   UNL     1     -11.945   8.405  71.789  1.00  0.00    -0.380 A  
HETATM   17  C   UNL     1     -12.314   7.062  71.794  1.00  0.00    -0.354 A  
HETATM   18  C   UNL     1     -11.391   6.002  71.754  1.00  0.00    -0.324 A  
HETATM   19  N   UNL     1     -13.683   7.076  71.796  1.00  0.00    -0.481 NA 
HETATM   20  N   UNL     1     -14.226   8.301  71.803  1.00  0.00    -0.440 NA 
HETATM   21  H   UNL     1     -14.243   6.224  71.793  1.00  0.00     0.000 HD 
HETATM   22  C   UNL     1     -13.176   9.132  71.835  1.00  0.00    -0.416 A  
BRANCH  22  23
HETATM   23  C   UNL     1     -13.355  10.554  71.902  1.00  0.00    -0.461 C  
HETATM   24  C   UNL     1     -12.786  11.464  71.090  1.00  0.00    -0.479 C  
BRANCH  24  25
HETATM   25  C   UNL     1     -12.909  12.919  71.253  1.00  0.00    -0.270 A  
HETATM   26  C   UNL     1     -13.749  13.437  72.237  1.00  0.00    -0.705 A  
HETATM   27  C   UNL     1     -13.912  14.817  72.326  1.00  0.00    -0.598 A  
HETATM   28  C   UNL     1     -13.232  15.640  71.438  1.00  0.00    -0.540 A  
HETATM   29  C   UNL     1     -12.405  15.044  70.502  1.00  0.00    -0.356 A  
HETATM   30  N   UNL     1     -12.226  13.709  70.394  1.00  0.00    -0.353 NA 
ENDBRANCH  24  25
ENDBRANCH  22  23
ENDBRANCH  12  13
ENDBRANCH   7  12
ENDBRANCH   3   6
TORSDOF 5
ENDMDL
MODEL       28
REMARK 921   NORMALIZED FREE ENERGY PREDICTED BY IDOCK:   -6.35 KCAL/MOL
REMARK 922        TOTAL FREE ENERGY PREDICTED BY IDOCK:   -9.23 KCAL/MOL
REMARK 923 INTER-LIGAND FREE ENERGY PREDICTED BY IDOCK:   -8.68 KCAL/MOL
REMARK 924 INTRA-LIGAND FREE ENERGY PREDICTED BY IDOCK:   -0.55 KCAL/MOL
REMARK 927      BINDING AFFINITY PREDICTED BY RF-SCORE:    0.00 PKD
ROOT
HETATM    1  C   UNL     1      -5.766  19.497  63.697  1.00  0.00    -0.289 C  
HETATM    2  N   UNL     1      -5.785  19.022  65.054  1.00  0.00    -0.221 N  
HETATM    3  C   UNL     1      -6.890  19.197  65.860  1.00  0.00    -0.267 C  
HETATM    4  H   UNL     1      -4.964  18.546  65.429  1.00  0.00     0.000 HD 
HETATM    5  O   UNL     1      -7.842  19.910  65.558  1.00  0.00    -0.362 OA 
ENDROOT
BRANCH   3   6
HETATM    6  C   UNL     1      -6.849  18.512  67.189  1.00  0.00    -0.212 A  
HETATM    7  C   UNL     1      -7.811  17.568  67.624  1.00  0.00    -0.201 A  
HETATM    8  C   UNL     1      -7.611  16.940  68.863  1.00  0.00    -0.234 A  
HETATM    9  C   UNL     1      -5.616  18.255  69.264  1.00  0.00    -0.210 A  
HETATM   10  C   UNL     1      -6.516  17.275  69.671  1.00  0.00    -0.165 A  
HETATM   11  C   UNL     1      -5.779  18.868  68.024  1.00  0.00    -0.195 A  
BRANCH   7  12
HETATM   12  S   UNL     1      -9.363  17.383  66.750  1.00  0.00    -0.277 SA 
BRANCH  12  13
HETATM   13  C   UNL     1     -10.310  16.097  67.526  1.00  0.00    -0.286 A  
HETATM   14  C   UNL     1      -9.869  14.786  67.328  1.00  0.00    -0.230 A  
HETATM   15  C   UNL     1     -10.397  13.715  68.059  1.00  0.00    -0.250 A  
HETATM   16  C   UNL     1     -11.388  13.966  69.026  1.00  0.00    -0.324 A  
HETATM   17  C   UNL     1     -11.808  15.281  69.212  1.00  0.00    -0.329 A  
HETATM   18  C   UNL     1     -11.310  16.368  68.471  1.00  0.00    -0.289 A  
HETATM   19  N   UNL     1     -12.705  15.220  70.243  1.00  0.00    -0.606 NA 
HETATM   20  N   UNL     1     -12.908  13.988  70.730  1.00  0.00    -0.311 NA 
HETATM   21  H   UNL     1     -13.181  16.044  70.611  1.00  0.00     0.000 HD 
HETATM   22  C   UNL     1     -12.136  13.197  69.973  1.00  0.00    -0.305 A  
BRANCH  22  23
HETATM   23  C   UNL     1     -12.119  11.775  70.159  1.00  0.00    -0.398 C  
HETATM   24  C   UNL     1     -12.787  11.091  71.106  1.00  0.00    -0.491 C  
BRANCH  24  25
HETATM   25  C   UNL     1     -12.663   9.644  71.331  1.00  0.00    -0.374 A  
HETATM   26  C   UNL     1     -11.402   9.053  71.358  1.00  0.00    -0.394 A  
HETATM   27  C   UNL     1     -11.309   7.670  71.496  1.00  0.00    -0.286 A  
HETATM   28  C   UNL     1     -12.471   6.918  71.606  1.00  0.00    -0.418 A  
HETATM   29  C   UNL     1     -13.683   7.587  71.586  1.00  0.00    -0.377 A  
HETATM   30  N   UNL     1     -13.803   8.927  71.456  1.00  0.00    -0.375 NA 
ENDBRANCH  24  25
ENDBRANCH  22  23
ENDBRANCH  12  13
ENDBRANCH   7  12
ENDBRANCH   3   6
TORSDOF 5
ENDMDL
MODEL       29
REMARK 921   NORMALIZED FREE ENERGY PREDICTED BY IDOCK:   -6.30 KCAL/MOL
REMARK 922        TOTAL FREE ENERGY PREDICTED BY IDOCK:   -9.16 KCAL/MOL
REMARK 923 INTER-LIGAND FREE ENERGY PREDICTED BY IDOCK:   -8.37 KCAL/MOL
REMARK 924 INTRA-LIGAND FREE ENERGY PREDICTED BY IDOCK:   -0.79 KCAL/MOL
REMARK 927      BINDING AFFINITY PREDICTED BY RF-SCORE:    0.00 PKD
ROOT
HETATM    1  C   UNL     1     -10.958   6.287  66.796  1.00  0.00    -0.255 C  
HETATM    2  N   UNL     1     -10.304   6.974  67.876  1.00  0.00    -0.186 N  
HETATM    3  C   UNL     1     -10.721   6.821  69.181  1.00  0.00    -0.253 C  
HETATM    4  H   UNL     1      -9.515   7.587  67.673  1.00  0.00     0.000 HD 
HETATM    5  O   UNL     1     -11.763   6.254  69.497  1.00  0.00    -0.360 OA 
ENDROOT
BRANCH   3   6
HETATM    6  C   UNL     1      -9.856   7.452  70.226  1.00  0.00    -0.187 A  
HETATM    7  C   UNL     1     -10.336   8.334  71.225  1.00  0.00    -0.205 A  
HETATM    8  C   UNL     1      -9.431   8.795  72.193  1.00  0.00    -0.309 A  
HETATM    9  C   UNL     1      -7.604   7.621  71.116  1.00  0.00    -0.080 A  
HETATM   10  C   UNL     1      -8.078   8.431  72.144  1.00  0.00    -0.192 A  
HETATM   11  C   UNL     1      -8.492   7.128  70.163  1.00  0.00    -0.139 A  
BRANCH   7  12
HETATM   12  S   UNL     1     -11.973   9.048  71.097  1.00  0.00    -0.289 SA 
BRANCH  12  13
HETATM   13  C   UNL     1     -11.906  10.445  70.002  1.00  0.00    -0.273 A  
HETATM   14  C   UNL     1     -12.146  11.699  70.570  1.00  0.00    -0.458 A  
HETATM   15  C   UNL     1     -11.908  12.883  69.862  1.00  0.00    -0.373 A  
HETATM   16  C   UNL     1     -11.404  12.810  68.550  1.00  0.00    -0.326 A  
HETATM   17  C   UNL     1     -11.165  11.550  68.006  1.00  0.00    -0.269 A  
HETATM   18  C   UNL     1     -11.422  10.347  68.690  1.00  0.00    -0.238 A  
HETATM   19  N   UNL     1     -10.623  11.797  66.775  1.00  0.00    -0.229 NA 
HETATM   20  N   UNL     1     -10.499  13.097  66.473  1.00  0.00    -0.276 NA 
HETATM   21  H   UNL     1     -10.336  11.053  66.139  1.00  0.00     0.000 HD 
HETATM   22  C   UNL     1     -11.007  13.736  67.535  1.00  0.00    -0.272 A  
BRANCH  22  23
HETATM   23  C   UNL     1     -11.098  15.168  67.568  1.00  0.00    -0.319 C  
HETATM   24  C   UNL     1     -10.083  16.032  67.379  1.00  0.00    -0.258 C  
BRANCH  24  25
HETATM   25  C   UNL     1     -10.194  17.489  67.524  1.00  0.00    -0.340 A  
HETATM   26  C   UNL     1     -10.508  18.274  66.417  1.00  0.00    -0.387 A  
HETATM   27  C   UNL     1     -10.532  19.659  66.557  1.00  0.00    -0.612 A  
HETATM   28  C   UNL     1     -10.249  20.222  67.795  1.00  0.00    -0.464 A  
HETATM   29  C   UNL     1      -9.963  19.370  68.847  1.00  0.00    -0.445 A  
HETATM   30  N   UNL     1      -9.934  18.022  68.740  1.00  0.00    -0.377 NA 
ENDBRANCH  24  25
ENDBRANCH  22  23
ENDBRANCH  12  13
ENDBRANCH   7  12
ENDBRANCH   3   6
TORSDOF 5
ENDMDL
MODEL       30
REMARK 921   NORMALIZED FREE ENERGY PREDICTED BY IDOCK:   -6.29 KCAL/MOL
REMARK 922        TOTAL FREE ENERGY PREDICTED BY IDOCK:   -9.15 KCAL/MOL
REMARK 923 INTER-LIGAND FREE ENERGY PREDICTED BY IDOCK:   -8.43 KCAL/MOL
REMARK 924 INTRA-LIGAND FREE ENERGY PREDICTED BY IDOCK:   -0.73 KCAL/MOL
REMARK 927      BINDING AFFINITY PREDICTED BY RF-SCORE:    0.00 PKD
ROOT
HETATM    1  C   UNL     1     -10.846  15.110  69.952  1.00  0.00    -0.270 C  
HETATM    2  N   UNL     1     -10.740  16.367  69.262  1.00  0.00    -0.304 N  
HETATM    3  C   UNL     1      -9.515  16.942  69.000  1.00  0.00    -0.199 C  
HETATM    4  H   UNL     1     -11.590  16.844  68.959  1.00  0.00     0.000 HD 
HETATM    5  O   UNL     1      -8.461  16.537  69.481  1.00  0.00    -0.026 OA 
ENDROOT
BRANCH   3   6
HETATM    6  C   UNL     1      -9.532  18.159  68.131  1.00  0.00    -0.301 A  
HETATM    7  C   UNL     1      -8.983  18.208  66.826  1.00  0.00    -0.282 A  
HETATM    8  C   UNL     1      -9.136  19.391  66.087  1.00  0.00    -0.314 A  
HETATM    9  C   UNL     1     -10.242  20.473  67.952  1.00  0.00    -0.263 A  
HETATM   10  C   UNL     1      -9.770  20.511  66.643  1.00  0.00    -0.407 A  
HETATM   11  C   UNL     1     -10.128  19.299  68.692  1.00  0.00    -0.499 A  
BRANCH   7  12
HETATM   12  S   UNL     1      -7.901  16.906  66.245  1.00  0.00    -0.250 SA 
BRANCH  12  13
HETATM   13  C   UNL     1      -8.790  15.368  66.264  1.00  0.00    -0.267 A  
HETATM   14  C   UNL     1      -8.285  14.362  67.090  1.00  0.00    -0.202 A  
HETATM   15  C   UNL     1      -9.012  13.195  67.355  1.00  0.00    -0.201 A  
HETATM   16  C   UNL     1     -10.289  13.038  66.784  1.00  0.00    -0.256 A  
HETATM   17  C   UNL     1     -10.776  14.057  65.969  1.00  0.00    -0.294 A  
HETATM   18  C   UNL     1     -10.051  15.225  65.669  1.00  0.00    -0.401 A  
HETATM   19  N   UNL     1     -12.039  13.659  65.627  1.00  0.00    -0.397 NA 
HETATM   20  N   UNL     1     -12.406  12.475  66.139  1.00  0.00    -0.539 NA 
HETATM   21  H   UNL     1     -12.652  14.217  65.033  1.00  0.00     0.000 HD 
HETATM   22  C   UNL     1     -11.332  12.059  66.823  1.00  0.00    -0.339 A  
BRANCH  22  23
HETATM   23  C   UNL     1     -11.318  10.786  67.483  1.00  0.00    -0.283 C  
HETATM   24  C   UNL     1     -10.332   9.871  67.422  1.00  0.00    -0.301 C  
BRANCH  24  25
HETATM   25  C   UNL     1     -10.399   8.534  68.026  1.00  0.00    -0.217 A  
HETATM   26  C   UNL     1     -10.577   7.415  67.217  1.00  0.00    -0.393 A  
HETATM   27  C   UNL     1     -10.714   6.165  67.815  1.00  0.00    -0.382 A  
HETATM   28  C   UNL     1     -10.666   6.065  69.199  1.00  0.00    -0.399 A  
HETATM   29  C   UNL     1     -10.470   7.224  69.929  1.00  0.00    -0.225 A  
HETATM   30  N   UNL     1     -10.331   8.450  69.375  1.00  0.00    -0.213 NA 
ENDBRANCH  24  25
ENDBRANCH  22  23
ENDBRANCH  12  13
ENDBRANCH   7  12
ENDBRANCH   3   6
TORSDOF 5
ENDMDL
MODEL       31
REMARK 921   NORMALIZED FREE ENERGY PREDICTED BY IDOCK:   -6.29 KCAL/MOL
REMARK 922        TOTAL FREE ENERGY PREDICTED BY IDOCK:   -9.15 KCAL/MOL
REMARK 923 INTER-LIGAND FREE ENERGY PREDICTED BY IDOCK:   -8.61 KCAL/MOL
REMARK 924 INTRA-LIGAND FREE ENERGY PREDICTED BY IDOCK:   -0.54 KCAL/MOL
REMARK 927      BINDING AFFINITY PREDICTED BY RF-SCORE:    0.00 PKD
ROOT
HETATM    1  C   UNL     1      -5.311  18.928  63.549  1.00  0.00    -0.186 C  
HETATM    2  N   UNL     1      -5.463  19.092  64.969  1.00  0.00    -0.187 N  
HETATM    3  C   UNL     1      -6.238  20.103  65.495  1.00  0.00    -0.225 C  
HETATM    4  H   UNL     1      -4.988  18.446  65.600  1.00  0.00     0.000 HD 
HETATM    5  O   UNL     1      -6.693  21.025  64.826  1.00  0.00    -0.149 OA 
ENDROOT
BRANCH   3   6
HETATM    6  C   UNL     1      -6.452  20.063  66.976  1.00  0.00    -0.221 A  
HETATM    7  C   UNL     1      -7.625  19.564  67.593  1.00  0.00    -0.266 A  
HETATM    8  C   UNL     1      -7.666  19.512  68.995  1.00  0.00    -0.332 A  
HETATM    9  C   UNL     1      -5.476  20.540  69.146  1.00  0.00    -0.352 A  
HETATM   10  C   UNL     1      -6.594  19.988  69.764  1.00  0.00    -0.333 A  
HETATM   11  C   UNL     1      -5.403  20.573  67.756  1.00  0.00    -0.232 A  
BRANCH   7  12
HETATM   12  S   UNL     1      -9.103  19.266  66.629  1.00  0.00    -0.352 SA 
BRANCH  12  13
HETATM   13  C   UNL     1      -9.633  17.591  66.892  1.00  0.00    -0.278 A  
HETATM   14  C   UNL     1      -9.735  17.166  68.219  1.00  0.00    -0.280 A  
HETATM   15  C   UNL     1     -10.344  15.952  68.558  1.00  0.00    -0.232 A  
HETATM   16  C   UNL     1     -10.880  15.145  67.537  1.00  0.00    -0.301 A  
HETATM   17  C   UNL     1     -10.774  15.591  66.221  1.00  0.00    -0.307 A  
HETATM   18  C   UNL     1     -10.143  16.794  65.857  1.00  0.00    -0.324 A  
HETATM   19  N   UNL     1     -11.434  14.651  65.479  1.00  0.00    -0.340 NA 
HETATM   20  N   UNL     1     -11.946  13.637  66.193  1.00  0.00    -0.391 NA 
HETATM   21  H   UNL     1     -11.530  14.715  64.465  1.00  0.00     0.000 HD 
HETATM   22  C   UNL     1     -11.585  13.903  67.455  1.00  0.00    -0.360 A  
BRANCH  22  23
HETATM   23  C   UNL     1     -11.909  13.005  68.526  1.00  0.00    -0.360 C  
HETATM   24  C   UNL     1     -11.175  11.951  68.928  1.00  0.00    -0.310 C  
BRANCH  24  25
HETATM   25  C   UNL     1     -11.591  10.992  69.960  1.00  0.00    -0.344 A  
HETATM   26  C   UNL     1     -12.663  11.295  70.796  1.00  0.00    -0.360 A  
HETATM   27  C   UNL     1     -12.994  10.408  71.817  1.00  0.00    -0.580 A  
HETATM   28  C   UNL     1     -12.251   9.245  71.974  1.00  0.00    -0.418 A  
HETATM   29  C   UNL     1     -11.211   9.013  71.090  1.00  0.00    -0.305 A  
HETATM   30  N   UNL     1     -10.870   9.855  70.089  1.00  0.00    -0.281 NA 
ENDBRANCH  24  25
ENDBRANCH  22  23
ENDBRANCH  12  13
ENDBRANCH   7  12
ENDBRANCH   3   6
TORSDOF 5
ENDMDL
MODEL       32
REMARK 921   NORMALIZED FREE ENERGY PREDICTED BY IDOCK:   -6.24 KCAL/MOL
REMARK 922        TOTAL FREE ENERGY PREDICTED BY IDOCK:   -9.08 KCAL/MOL
REMARK 923 INTER-LIGAND FREE ENERGY PREDICTED BY IDOCK:   -8.01 KCAL/MOL
REMARK 924 INTRA-LIGAND FREE ENERGY PREDICTED BY IDOCK:   -1.07 KCAL/MOL
REMARK 927      BINDING AFFINITY PREDICTED BY RF-SCORE:    0.00 PKD
ROOT
HETATM    1  C   UNL     1      -8.586   9.477  63.806  1.00  0.00    -0.211 C  
HETATM    2  N   UNL     1      -9.193   8.696  64.850  1.00  0.00    -0.390 N  
HETATM    3  C   UNL     1      -8.469   7.763  65.561  1.00  0.00    -0.133 C  
HETATM    4  H   UNL     1     -10.179   8.836  65.070  1.00  0.00     0.000 HD 
HETATM    5  O   UNL     1      -7.339   7.401  65.247  1.00  0.00    -0.070 OA 
ENDROOT
BRANCH   3   6
HETATM    6  C   UNL     1      -9.166   7.140  66.729  1.00  0.00    -0.188 A  
HETATM    7  C   UNL     1      -9.231   7.726  68.017  1.00  0.00    -0.138 A  
HETATM    8  C   UNL     1      -9.985   7.073  69.004  1.00  0.00    -0.164 A  
HETATM    9  C   UNL     1     -10.486   5.250  67.488  1.00  0.00    -0.193 A  
HETATM   10  C   UNL     1     -10.616   5.850  68.737  1.00  0.00    -0.340 A  
HETATM   11  C   UNL     1      -9.768   5.896  66.485  1.00  0.00    -0.185 A  
BRANCH   7  12
HETATM   12  S   UNL     1      -8.170   9.103  68.444  1.00  0.00    -0.116 SA 
BRANCH  12  13
HETATM   13  C   UNL     1      -9.051  10.619  68.156  1.00  0.00    -0.148 A  
HETATM   14  C   UNL     1      -8.309  11.800  68.229  1.00  0.00    -0.159 A  
HETATM   15  C   UNL     1      -8.837  13.027  67.811  1.00  0.00    -0.188 A  
HETATM   16  C   UNL     1     -10.144  13.070  67.292  1.00  0.00    -0.235 A  
HETATM   17  C   UNL     1     -10.864  11.879  67.221  1.00  0.00    -0.247 A  
HETATM   18  C   UNL     1     -10.362  10.641  67.660  1.00  0.00    -0.246 A  
HETATM   19  N   UNL     1     -12.046  12.220  66.621  1.00  0.00    -0.589 NA 
HETATM   20  N   UNL     1     -12.156  13.519  66.309  1.00  0.00    -0.419 NA 
HETATM   21  H   UNL     1     -12.782  11.541  66.427  1.00  0.00     0.000 HD 
HETATM   22  C   UNL     1     -11.014  14.066  66.745  1.00  0.00    -0.297 A  
BRANCH  22  23
HETATM   23  C   UNL     1     -10.775  15.476  66.635  1.00  0.00    -0.306 C  
HETATM   24  C   UNL     1     -10.534  16.322  67.653  1.00  0.00    -0.295 C  
BRANCH  24  25
HETATM   25  C   UNL     1     -10.397  17.778  67.512  1.00  0.00    -0.369 A  
HETATM   26  C   UNL     1     -10.349  18.349  66.242  1.00  0.00    -0.440 A  
HETATM   27  C   UNL     1     -10.142  19.722  66.128  1.00  0.00    -0.600 A  
HETATM   28  C   UNL     1      -9.993  20.484  67.278  1.00  0.00    -0.528 A  
HETATM   29  C   UNL     1     -10.070  19.840  68.501  1.00  0.00    -0.445 A  
HETATM   30  N   UNL     1     -10.272  18.511  68.642  1.00  0.00    -0.368 NA 
ENDBRANCH  24  25
ENDBRANCH  22  23
ENDBRANCH  12  13
ENDBRANCH   7  12
ENDBRANCH   3   6
TORSDOF 5
ENDMDL
MODEL       33
REMARK 921   NORMALIZED FREE ENERGY PREDICTED BY IDOCK:   -6.18 KCAL/MOL
REMARK 922        TOTAL FREE ENERGY PREDICTED BY IDOCK:   -9.00 KCAL/MOL
REMARK 923 INTER-LIGAND FREE ENERGY PREDICTED BY IDOCK:   -8.59 KCAL/MOL
REMARK 924 INTRA-LIGAND FREE ENERGY PREDICTED BY IDOCK:   -0.42 KCAL/MOL
REMARK 927      BINDING AFFINITY PREDICTED BY RF-SCORE:    0.00 PKD
ROOT
HETATM    1  C   UNL     1     -10.088  17.704  68.511  1.00  0.00    -0.375 C  
HETATM    2  N   UNL     1     -10.994  17.077  69.434  1.00  0.00    -0.321 N  
HETATM    3  C   UNL     1     -10.684  15.880  70.043  1.00  0.00    -0.339 C  
HETATM    4  H   UNL     1     -11.886  17.527  69.642  1.00  0.00     0.000 HD 
HETATM    5  O   UNL     1      -9.727  15.184  69.719  1.00  0.00    -0.187 OA 
ENDROOT
BRANCH   3   6
HETATM    6  C   UNL     1     -11.630  15.419  71.106  1.00  0.00    -0.425 A  
HETATM    7  C   UNL     1     -12.271  14.156  71.102  1.00  0.00    -0.358 A  
HETATM    8  C   UNL     1     -13.075  13.817  72.202  1.00  0.00    -0.497 A  
HETATM    9  C   UNL     1     -12.700  15.989  73.209  1.00  0.00    -0.644 A  
HETATM   10  C   UNL     1     -13.278  14.724  73.251  1.00  0.00    -0.456 A  
HETATM   11  C   UNL     1     -11.874  16.334  72.142  1.00  0.00    -0.585 A  
BRANCH   7  12
HETATM   12  S   UNL     1     -12.272  13.141  69.628  1.00  0.00    -0.107 SA 
BRANCH  12  13
HETATM   13  C   UNL     1     -12.004  11.448  70.094  1.00  0.00    -0.377 A  
HETATM   14  C   UNL     1     -10.802  10.866  69.681  1.00  0.00    -0.271 A  
HETATM   15  C   UNL     1     -10.384   9.622  70.167  1.00  0.00    -0.315 A  
HETATM   16  C   UNL     1     -11.187   8.946  71.105  1.00  0.00    -0.352 A  
HETATM   17  C   UNL     1     -12.377   9.548  71.508  1.00  0.00    -0.380 A  
HETATM   18  C   UNL     1     -12.829  10.784  71.012  1.00  0.00    -0.480 A  
HETATM   19  N   UNL     1     -12.892   8.706  72.455  1.00  0.00    -0.557 NA 
HETATM   20  N   UNL     1     -12.149   7.615  72.692  1.00  0.00    -0.164 NA 
HETATM   21  H   UNL     1     -13.768   8.892  72.942  1.00  0.00     0.000 HD 
HETATM   22  C   UNL     1     -11.115   7.725  71.847  1.00  0.00    -0.257 A  
BRANCH  22  23
HETATM   23  C   UNL     1     -10.110   6.705  71.765  1.00  0.00    -0.198 C  
HETATM   24  C   UNL     1     -10.286   5.453  71.303  1.00  0.00    -0.287 C  
BRANCH  24  25
HETATM   25  C   UNL     1      -9.258   4.403  71.332  1.00  0.00    -0.133 A  
HETATM   26  C   UNL     1      -9.426   3.248  70.574  1.00  0.00    -0.242 A  
HETATM   27  C   UNL     1      -8.479   2.231  70.673  1.00  0.00    -0.087 A  
HETATM   28  C   UNL     1      -7.392   2.397  71.521  1.00  0.00    -0.036 A  
HETATM   29  C   UNL     1      -7.292   3.583  72.227  1.00  0.00    -0.052 A  
HETATM   30  N   UNL     1      -8.195   4.587  72.148  1.00  0.00    -0.103 NA 
ENDBRANCH  24  25
ENDBRANCH  22  23
ENDBRANCH  12  13
ENDBRANCH   7  12
ENDBRANCH   3   6
TORSDOF 5
ENDMDL
MODEL       34
REMARK 921   NORMALIZED FREE ENERGY PREDICTED BY IDOCK:   -6.16 KCAL/MOL
REMARK 922        TOTAL FREE ENERGY PREDICTED BY IDOCK:   -8.98 KCAL/MOL
REMARK 923 INTER-LIGAND FREE ENERGY PREDICTED BY IDOCK:   -8.22 KCAL/MOL
REMARK 924 INTRA-LIGAND FREE ENERGY PREDICTED BY IDOCK:   -0.77 KCAL/MOL
REMARK 927      BINDING AFFINITY PREDICTED BY RF-SCORE:    0.00 PKD
ROOT
HETATM    1  C   UNL     1     -10.480  19.848  67.237  1.00  0.00    -0.421 C  
HETATM    2  N   UNL     1      -9.871  18.693  67.838  1.00  0.00    -0.315 N  
HETATM    3  C   UNL     1      -9.193  17.763  67.080  1.00  0.00    -0.255 C  
HETATM    4  H   UNL     1      -9.941  18.559  68.847  1.00  0.00     0.000 HD 
HETATM    5  O   UNL     1      -9.214  17.745  65.853  1.00  0.00    -0.519 OA 
ENDROOT
BRANCH   3   6
HETATM    6  C   UNL     1      -8.463  16.701  67.840  1.00  0.00    -0.194 A  
HETATM    7  C   UNL     1      -8.785  15.323  67.784  1.00  0.00    -0.165 A  
HETATM    8  C   UNL     1      -7.969  14.423  68.486  1.00  0.00    -0.144 A  
HETATM    9  C   UNL     1      -6.632  16.242  69.365  1.00  0.00    -0.202 A  
HETATM   10  C   UNL     1      -6.894  14.880  69.262  1.00  0.00    -0.148 A  
HETATM   11  C   UNL     1      -7.410  17.150  68.652  1.00  0.00    -0.238 A  
BRANCH   7  12
HETATM   12  S   UNL     1     -10.332  14.779  67.067  1.00  0.00    -0.258 SA 
BRANCH  12  13
HETATM   13  C   UNL     1     -11.065  13.563  68.134  1.00  0.00    -0.257 A  
HETATM   14  C   UNL     1     -10.579  12.257  68.024  1.00  0.00    -0.235 A  
HETATM   15  C   UNL     1     -10.918  11.266  68.953  1.00  0.00    -0.274 A  
HETATM   16  C   UNL     1     -11.759  11.596  70.031  1.00  0.00    -0.402 A  
HETATM   17  C   UNL     1     -12.226  12.905  70.126  1.00  0.00    -0.266 A  
HETATM   18  C   UNL     1     -11.919  13.909  69.190  1.00  0.00    -0.404 A  
HETATM   19  N   UNL     1     -12.945  12.937  71.290  1.00  0.00    -0.286 NA 
HETATM   20  N   UNL     1     -12.992  11.769  71.946  1.00  0.00    -0.391 NA 
HETATM   21  H   UNL     1     -13.408  13.780  71.630  1.00  0.00     0.000 HD 
HETATM   22  C   UNL     1     -12.301  10.922  71.172  1.00  0.00    -0.374 A  
BRANCH  22  23
HETATM   23  C   UNL     1     -12.166   9.537  71.520  1.00  0.00    -0.468 C  
HETATM   24  C   UNL     1     -11.072   8.954  72.046  1.00  0.00    -0.421 C  
BRANCH  24  25
HETATM   25  C   UNL     1     -10.935   7.513  72.292  1.00  0.00    -0.262 A  
HETATM   26  C   UNL     1     -10.494   7.060  73.533  1.00  0.00    -0.413 A  
HETATM   27  C   UNL     1     -10.297   5.694  73.722  1.00  0.00    -0.270 A  
HETATM   28  C   UNL     1     -10.548   4.820  72.673  1.00  0.00    -0.271 A  
HETATM   29  C   UNL     1     -11.000   5.351  71.477  1.00  0.00    -0.094 A  
HETATM   30  N   UNL     1     -11.202   6.671  71.266  1.00  0.00    -0.269 NA 
ENDBRANCH  24  25
ENDBRANCH  22  23
ENDBRANCH  12  13
ENDBRANCH   7  12
ENDBRANCH   3   6
TORSDOF 5
ENDMDL
MODEL       35
REMARK 921   NORMALIZED FREE ENERGY PREDICTED BY IDOCK:   -6.14 KCAL/MOL
REMARK 922        TOTAL FREE ENERGY PREDICTED BY IDOCK:   -8.96 KCAL/MOL
REMARK 923 INTER-LIGAND FREE ENERGY PREDICTED BY IDOCK:   -8.01 KCAL/MOL
REMARK 924 INTRA-LIGAND FREE ENERGY PREDICTED BY IDOCK:   -0.95 KCAL/MOL
REMARK 927      BINDING AFFINITY PREDICTED BY RF-SCORE:    0.00 PKD
ROOT
HETATM    1  C   UNL     1     -11.747   6.469  70.121  1.00  0.00    -0.353 C  
HETATM    2  N   UNL     1     -11.175   6.370  68.806  1.00  0.00    -0.534 N  
HETATM    3  C   UNL     1      -9.936   5.800  68.605  1.00  0.00    -0.155 C  
HETATM    4  H   UNL     1     -11.696   6.727  68.006  1.00  0.00     0.000 HD 
HETATM    5  O   UNL     1      -9.167   5.512  69.516  1.00  0.00    -0.117 OA 
ENDROOT
BRANCH   3   6
HETATM    6  C   UNL     1      -9.527   5.603  67.179  1.00  0.00    -0.120 A  
HETATM    7  C   UNL     1      -8.488   6.327  66.545  1.00  0.00    -0.121 A  
HETATM    8  C   UNL     1      -8.154   5.989  65.225  1.00  0.00    -0.134 A  
HETATM    9  C   UNL     1      -9.927   4.339  65.146  1.00  0.00    -0.215 A  
HETATM   10  C   UNL     1      -8.862   4.994  64.536  1.00  0.00    -0.099 A  
HETATM   11  C   UNL     1     -10.255   4.638  66.465  1.00  0.00    -0.273 A  
BRANCH   7  12
HETATM   12  S   UNL     1      -7.812   7.800  67.306  1.00  0.00    -0.119 SA 
BRANCH  12  13
HETATM   13  C   UNL     1      -9.130   8.954  67.596  1.00  0.00    -0.134 A  
HETATM   14  C   UNL     1      -9.299   9.396  68.911  1.00  0.00    -0.154 A  
HETATM   15  C   UNL     1     -10.153  10.461  69.224  1.00  0.00    -0.248 A  
HETATM   16  C   UNL     1     -10.849  11.110  68.188  1.00  0.00    -0.266 A  
HETATM   17  C   UNL     1     -10.661  10.657  66.884  1.00  0.00    -0.254 A  
HETATM   18  C   UNL     1      -9.828   9.574  66.550  1.00  0.00    -0.305 A  
HETATM   19  N   UNL     1     -11.396  11.510  66.107  1.00  0.00    -0.280 NA 
HETATM   20  N   UNL     1     -12.048  12.462  66.791  1.00  0.00    -0.565 NA 
HETATM   21  H   UNL     1     -11.446  11.429  65.092  1.00  0.00     0.000 HD 
HETATM   22  C   UNL     1     -11.754  12.212  68.074  1.00  0.00    -0.344 A  
BRANCH  22  23
HETATM   23  C   UNL     1     -12.315  13.001  69.133  1.00  0.00     0.057 C  
HETATM   24  C   UNL     1     -11.647  13.865  69.918  1.00  0.00    -0.310 C  
BRANCH  24  25
HETATM   25  C   UNL     1     -12.234  14.577  71.061  1.00  0.00    -0.339 A  
HETATM   26  C   UNL     1     -13.614  14.564  71.251  1.00  0.00    -0.423 A  
HETATM   27  C   UNL     1     -14.158  15.308  72.295  1.00  0.00    -0.651 A  
HETATM   28  C   UNL     1     -13.314  16.039  73.120  1.00  0.00    -0.624 A  
HETATM   29  C   UNL     1     -11.954  15.985  72.871  1.00  0.00    -0.506 A  
HETATM   30  N   UNL     1     -11.398  15.270  71.867  1.00  0.00    -0.422 NA 
ENDBRANCH  24  25
ENDBRANCH  22  23
ENDBRANCH  12  13
ENDBRANCH   7  12
ENDBRANCH   3   6
TORSDOF 5
ENDMDL
MODEL       36
REMARK 921   NORMALIZED FREE ENERGY PREDICTED BY IDOCK:   -6.11 KCAL/MOL
REMARK 922        TOTAL FREE ENERGY PREDICTED BY IDOCK:   -8.93 KCAL/MOL
REMARK 923 INTER-LIGAND FREE ENERGY PREDICTED BY IDOCK:   -7.99 KCAL/MOL
REMARK 924 INTRA-LIGAND FREE ENERGY PREDICTED BY IDOCK:   -0.94 KCAL/MOL
REMARK 927      BINDING AFFINITY PREDICTED BY RF-SCORE:    0.00 PKD
ROOT
HETATM    1  C   UNL     1      -5.636   7.665  70.158  1.00  0.00    -0.023 C  
HETATM    2  N   UNL     1      -7.014   7.508  70.537  1.00  0.00    -0.051 N  
HETATM    3  C   UNL     1      -7.801   8.597  70.846  1.00  0.00    -0.118 C  
HETATM    4  H   UNL     1      -7.418   6.573  70.578  1.00  0.00     0.000 HD 
HETATM    5  O   UNL     1      -7.358   9.731  71.000  1.00  0.00    -0.329 OA 
ENDROOT
BRANCH   3   6
HETATM    6  C   UNL     1      -9.256   8.318  71.059  1.00  0.00    -0.191 A  
HETATM    7  C   UNL     1     -10.188   8.134  70.009  1.00  0.00    -0.202 A  
HETATM    8  C   UNL     1     -11.509   7.799  70.347  1.00  0.00    -0.171 A  
HETATM    9  C   UNL     1     -10.996   7.952  72.710  1.00  0.00    -0.456 A  
HETATM   10  C   UNL     1     -11.905   7.700  71.688  1.00  0.00    -0.323 A  
HETATM   11  C   UNL     1      -9.674   8.255  72.397  1.00  0.00    -0.373 A  
BRANCH   7  12
HETATM   12  S   UNL     1      -9.764   8.577  68.328  1.00  0.00    -0.160 SA 
BRANCH  12  13
HETATM   13  C   UNL     1     -10.158  10.289  68.067  1.00  0.00    -0.162 A  
HETATM   14  C   UNL     1      -9.173  11.219  68.410  1.00  0.00    -0.178 A  
HETATM   15  C   UNL     1      -9.280  12.568  68.051  1.00  0.00    -0.204 A  
HETATM   16  C   UNL     1     -10.401  12.996  67.316  1.00  0.00    -0.238 A  
HETATM   17  C   UNL     1     -11.368  12.051  66.979  1.00  0.00    -0.336 A  
HETATM   18  C   UNL     1     -11.293  10.697  67.352  1.00  0.00    -0.185 A  
HETATM   19  N   UNL     1     -12.279  12.736  66.223  1.00  0.00    -0.538 NA 
HETATM   20  N   UNL     1     -11.994  14.034  66.050  1.00  0.00    -0.396 NA 
HETATM   21  H   UNL     1     -13.107  12.295  65.823  1.00  0.00     0.000 HD 
HETATM   22  C   UNL     1     -10.864  14.223  66.744  1.00  0.00    -0.298 A  
BRANCH  22  23
HETATM   23  C   UNL     1     -10.260  15.521  66.844  1.00  0.00    -0.279 C  
HETATM   24  C   UNL     1     -10.695  16.542  67.606  1.00  0.00    -0.311 C  
BRANCH  24  25
HETATM   25  C   UNL     1     -10.112  17.890  67.602  1.00  0.00    -0.348 A  
HETATM   26  C   UNL     1     -10.573  18.843  66.697  1.00  0.00    -0.469 A  
HETATM   27  C   UNL     1      -9.955  20.090  66.658  1.00  0.00    -0.598 A  
HETATM   28  C   UNL     1      -8.901  20.354  67.522  1.00  0.00    -0.386 A  
HETATM   29  C   UNL     1      -8.516  19.357  68.401  1.00  0.00    -0.353 A  
HETATM   30  N   UNL     1      -9.098  18.139  68.463  1.00  0.00    -0.309 NA 
ENDBRANCH  24  25
ENDBRANCH  22  23
ENDBRANCH  12  13
ENDBRANCH   7  12
ENDBRANCH   3   6
TORSDOF 5
ENDMDL
MODEL       37
REMARK 921   NORMALIZED FREE ENERGY PREDICTED BY IDOCK:   -6.11 KCAL/MOL
REMARK 922        TOTAL FREE ENERGY PREDICTED BY IDOCK:   -8.92 KCAL/MOL
REMARK 923 INTER-LIGAND FREE ENERGY PREDICTED BY IDOCK:   -8.15 KCAL/MOL
REMARK 924 INTRA-LIGAND FREE ENERGY PREDICTED BY IDOCK:   -0.77 KCAL/MOL
REMARK 927      BINDING AFFINITY PREDICTED BY RF-SCORE:    0.00 PKD
ROOT
HETATM    1  C   UNL     1     -11.234   6.622  69.842  1.00  0.00    -0.364 C  
HETATM    2  N   UNL     1     -10.350   7.329  68.955  1.00  0.00    -0.201 N  
HETATM    3  C   UNL     1     -10.549   7.325  67.591  1.00  0.00    -0.246 C  
HETATM    4  H   UNL     1      -9.560   7.844  69.343  1.00  0.00     0.000 HD 
HETATM    5  O   UNL     1     -11.356   6.592  67.026  1.00  0.00    -0.348 OA 
ENDROOT
BRANCH   3   6
HETATM    6  C   UNL     1      -9.665   8.233  66.796  1.00  0.00    -0.307 A  
HETATM    7  C   UNL     1      -9.734   9.647  66.843  1.00  0.00    -0.186 A  
HETATM    8  C   UNL     1      -8.793  10.382  66.105  1.00  0.00    -0.172 A  
HETATM    9  C   UNL     1      -7.831   8.346  65.211  1.00  0.00    -0.111 A  
HETATM   10  C   UNL     1      -7.843   9.734  65.304  1.00  0.00    -0.120 A  
HETATM   11  C   UNL     1      -8.736   7.597  65.959  1.00  0.00    -0.178 A  
BRANCH   7  12
HETATM   12  S   UNL     1     -11.137  10.464  67.598  1.00  0.00    -0.213 SA 
BRANCH  12  13
HETATM   13  C   UNL     1     -11.086  12.191  67.187  1.00  0.00    -0.291 A  
HETATM   14  C   UNL     1     -10.270  13.001  67.980  1.00  0.00    -0.233 A  
HETATM   15  C   UNL     1      -9.980  14.324  67.624  1.00  0.00    -0.225 A  
HETATM   16  C   UNL     1     -10.513  14.846  66.431  1.00  0.00    -0.301 A  
HETATM   17  C   UNL     1     -11.318  14.019  65.652  1.00  0.00    -0.313 A  
HETATM   18  C   UNL     1     -11.644  12.696  66.004  1.00  0.00    -0.443 A  
HETATM   19  N   UNL     1     -11.622  14.765  64.546  1.00  0.00    -0.586 NA 
HETATM   20  N   UNL     1     -11.095  15.998  64.546  1.00  0.00    -0.590 NA 
HETATM   21  H   UNL     1     -12.201  14.413  63.784  1.00  0.00     0.000 HD 
HETATM   22  C   UNL     1     -10.441  16.082  65.712  1.00  0.00    -0.374 A  
BRANCH  22  23
HETATM   23  C   UNL     1      -9.776  17.290  66.107  1.00  0.00    -0.243 C  
HETATM   24  C   UNL     1      -8.510  17.389  66.555  1.00  0.00    -0.298 C  
BRANCH  24  25
HETATM   25  C   UNL     1      -7.897  18.629  67.049  1.00  0.00    -0.233 A  
HETATM   26  C   UNL     1      -7.662  19.684  66.171  1.00  0.00    -0.331 A  
HETATM   27  C   UNL     1      -7.011  20.821  66.642  1.00  0.00    -0.311 A  
HETATM   28  C   UNL     1      -6.616  20.876  67.972  1.00  0.00    -0.318 A  
HETATM   29  C   UNL     1      -6.902  19.791  68.781  1.00  0.00    -0.330 A  
HETATM   30  N   UNL     1      -7.535  18.676  68.352  1.00  0.00    -0.287 NA 
ENDBRANCH  24  25
ENDBRANCH  22  23
ENDBRANCH  12  13
ENDBRANCH   7  12
ENDBRANCH   3   6
TORSDOF 5
ENDMDL
MODEL       38
REMARK 921   NORMALIZED FREE ENERGY PREDICTED BY IDOCK:   -6.10 KCAL/MOL
REMARK 922        TOTAL FREE ENERGY PREDICTED BY IDOCK:   -8.91 KCAL/MOL
REMARK 923 INTER-LIGAND FREE ENERGY PREDICTED BY IDOCK:   -7.92 KCAL/MOL
REMARK 924 INTRA-LIGAND FREE ENERGY PREDICTED BY IDOCK:   -0.99 KCAL/MOL
REMARK 927      BINDING AFFINITY PREDICTED BY RF-SCORE:    0.00 PKD
ROOT
HETATM    1  C   UNL     1     -11.979  12.889  63.412  1.00  0.00    -0.537 C  
HETATM    2  N   UNL     1     -11.404  13.642  64.492  1.00  0.00    -0.364 N  
HETATM    3  C   UNL     1     -11.528  13.228  65.801  1.00  0.00    -0.323 C  
HETATM    4  H   UNL     1     -10.894  14.502  64.287  1.00  0.00     0.000 HD 
HETATM    5  O   UNL     1     -12.270  12.317  66.156  1.00  0.00    -0.647 OA 
ENDROOT
BRANCH   3   6
HETATM    6  C   UNL     1     -10.745  14.004  66.813  1.00  0.00    -0.285 A  
HETATM    7  C   UNL     1      -9.492  13.593  67.330  1.00  0.00    -0.230 A  
HETATM    8  C   UNL     1      -8.825  14.453  68.216  1.00  0.00    -0.182 A  
HETATM    9  C   UNL     1     -10.670  16.023  68.157  1.00  0.00    -0.311 A  
HETATM   10  C   UNL     1      -9.407  15.664  68.617  1.00  0.00    -0.201 A  
HETATM   11  C   UNL     1     -11.335  15.198  67.253  1.00  0.00    -0.305 A  
BRANCH   7  12
HETATM   12  S   UNL     1      -8.908  11.920  67.074  1.00  0.00    -0.195 SA 
BRANCH  12  13
HETATM   13  C   UNL     1      -9.825  10.823  68.128  1.00  0.00    -0.158 A  
HETATM   14  C   UNL     1      -9.462   9.475  68.099  1.00  0.00    -0.145 A  
HETATM   15  C   UNL     1      -9.958   8.560  69.035  1.00  0.00    -0.197 A  
HETATM   16  C   UNL     1     -10.834   9.012  70.038  1.00  0.00    -0.247 A  
HETATM   17  C   UNL     1     -11.178  10.362  70.054  1.00  0.00    -0.316 A  
HETATM   18  C   UNL     1     -10.712  11.292  69.107  1.00  0.00    -0.247 A  
HETATM   19  N   UNL     1     -11.967  10.510  71.161  1.00  0.00    -0.353 NA 
HETATM   20  N   UNL     1     -12.171   9.380  71.853  1.00  0.00    -0.374 NA 
HETATM   21  H   UNL     1     -12.368  11.406  71.438  1.00  0.00     0.000 HD 
HETATM   22  C   UNL     1     -11.514   8.441  71.161  1.00  0.00    -0.274 A  
BRANCH  22  23
HETATM   23  C   UNL     1     -11.538   7.065  71.566  1.00  0.00    -0.322 C  
HETATM   24  C   UNL     1     -10.468   6.311  71.880  1.00  0.00    -0.244 C  
BRANCH  24  25
HETATM   25  C   UNL     1     -10.522   4.876  72.189  1.00  0.00    -0.192 A  
HETATM   26  C   UNL     1     -11.174   4.439  73.340  1.00  0.00    -0.386 A  
HETATM   27  C   UNL     1     -11.149   3.083  73.656  1.00  0.00    -0.323 A  
HETATM   28  C   UNL     1     -10.479   2.203  72.816  1.00  0.00    -0.236 A  
HETATM   29  C   UNL     1      -9.871   2.718  71.685  1.00  0.00    -0.141 A  
HETATM   30  N   UNL     1      -9.882   4.028  71.352  1.00  0.00    -0.188 NA 
ENDBRANCH  24  25
ENDBRANCH  22  23
ENDBRANCH  12  13
ENDBRANCH   7  12
ENDBRANCH   3   6
TORSDOF 5
ENDMDL
MODEL       39
REMARK 921   NORMALIZED FREE ENERGY PREDICTED BY IDOCK:   -6.09 KCAL/MOL
REMARK 922        TOTAL FREE ENERGY PREDICTED BY IDOCK:   -8.89 KCAL/MOL
REMARK 923 INTER-LIGAND FREE ENERGY PREDICTED BY IDOCK:   -7.83 KCAL/MOL
REMARK 924 INTRA-LIGAND FREE ENERGY PREDICTED BY IDOCK:   -1.06 KCAL/MOL
REMARK 927      BINDING AFFINITY PREDICTED BY RF-SCORE:    0.00 PKD
ROOT
HETATM    1  C   UNL     1     -12.064  15.849  71.331  1.00  0.00    -0.452 C  
HETATM    2  N   UNL     1     -10.928  15.271  70.665  1.00  0.00    -0.444 N  
HETATM    3  C   UNL     1     -10.431  15.809  69.497  1.00  0.00    -0.270 C  
HETATM    4  H   UNL     1     -10.480  14.447  71.065  1.00  0.00     0.000 HD 
HETATM    5  O   UNL     1     -11.009  16.679  68.853  1.00  0.00    -0.320 OA 
ENDROOT
BRANCH   3   6
HETATM    6  C   UNL     1      -9.149  15.222  68.997  1.00  0.00    -0.225 A  
HETATM    7  C   UNL     1      -9.060  14.338  67.894  1.00  0.00    -0.190 A  
HETATM    8  C   UNL     1      -7.786  13.921  67.479  1.00  0.00    -0.192 A  
HETATM    9  C   UNL     1      -6.742  15.142  69.293  1.00  0.00    -0.146 A  
HETATM   10  C   UNL     1      -6.635  14.330  68.168  1.00  0.00    -0.132 A  
HETATM   11  C   UNL     1      -7.994  15.591  69.703  1.00  0.00    -0.123 A  
BRANCH   7  12
HETATM   12  S   UNL     1     -10.531  13.567  67.226  1.00  0.00    -0.248 SA 
BRANCH  12  13
HETATM   13  C   UNL     1     -11.030  12.248  68.307  1.00  0.00    -0.232 A  
HETATM   14  C   UNL     1     -10.221  11.109  68.321  1.00  0.00    -0.197 A  
HETATM   15  C   UNL     1     -10.386  10.103  69.281  1.00  0.00    -0.242 A  
HETATM   16  C   UNL     1     -11.382  10.249  70.264  1.00  0.00    -0.398 A  
HETATM   17  C   UNL     1     -12.172  11.396  70.235  1.00  0.00    -0.349 A  
HETATM   18  C   UNL     1     -12.041  12.405  69.264  1.00  0.00    -0.218 A  
HETATM   19  N   UNL     1     -12.984  11.290  71.331  1.00  0.00    -0.415 NA 
HETATM   20  N   UNL     1     -12.796  10.178  72.056  1.00  0.00    -0.405 NA 
HETATM   21  H   UNL     1     -13.675  11.998  71.577  1.00  0.00     0.000 HD 
HETATM   22  C   UNL     1     -11.842   9.507  71.398  1.00  0.00    -0.389 A  
BRANCH  22  23
HETATM   23  C   UNL     1     -11.395   8.220  71.845  1.00  0.00    -0.372 C  
HETATM   24  C   UNL     1     -11.388   7.086  71.119  1.00  0.00    -0.319 C  
BRANCH  24  25
HETATM   25  C   UNL     1     -11.020   5.764  71.643  1.00  0.00    -0.246 A  
HETATM   26  C   UNL     1     -11.490   5.358  72.890  1.00  0.00    -0.340 A  
HETATM   27  C   UNL     1     -11.068   4.134  73.404  1.00  0.00    -0.354 A  
HETATM   28  C   UNL     1     -10.196   3.350  72.660  1.00  0.00    -0.234 A  
HETATM   29  C   UNL     1      -9.791   3.820  71.424  1.00  0.00    -0.155 A  
HETATM   30  N   UNL     1     -10.185   5.003  70.900  1.00  0.00    -0.228 NA 
ENDBRANCH  24  25
ENDBRANCH  22  23
ENDBRANCH  12  13
ENDBRANCH   7  12
ENDBRANCH   3   6
TORSDOF 5
ENDMDL
MODEL       40
REMARK 921   NORMALIZED FREE ENERGY PREDICTED BY IDOCK:   -6.04 KCAL/MOL
REMARK 922        TOTAL FREE ENERGY PREDICTED BY IDOCK:   -8.83 KCAL/MOL
REMARK 923 INTER-LIGAND FREE ENERGY PREDICTED BY IDOCK:   -7.76 KCAL/MOL
REMARK 924 INTRA-LIGAND FREE ENERGY PREDICTED BY IDOCK:   -1.07 KCAL/MOL
REMARK 927      BINDING AFFINITY PREDICTED BY RF-SCORE:    0.00 PKD
ROOT
HETATM    1  C   UNL     1      -6.358  12.648  69.276  1.00  0.00    -0.109 C  
HETATM    2  N   UNL     1      -7.345  13.691  69.206  1.00  0.00    -0.311 N  
HETATM    3  C   UNL     1      -7.416  14.541  68.124  1.00  0.00    -0.126 C  
HETATM    4  H   UNL     1      -8.008  13.803  69.974  1.00  0.00     0.000 HD 
HETATM    5  O   UNL     1      -6.556  14.597  67.250  1.00  0.00    -0.290 OA 
ENDROOT
BRANCH   3   6
HETATM    6  C   UNL     1      -8.588  15.470  68.093  1.00  0.00    -0.152 A  
HETATM    7  C   UNL     1      -9.877  15.103  67.635  1.00  0.00    -0.219 A  
HETATM    8  C   UNL     1     -10.909  16.049  67.733  1.00  0.00    -0.324 A  
HETATM    9  C   UNL     1      -9.374  17.709  68.605  1.00  0.00    -0.270 A  
HETATM   10  C   UNL     1     -10.660  17.338  68.224  1.00  0.00    -0.383 A  
HETATM   11  C   UNL     1      -8.342  16.776  68.545  1.00  0.00    -0.243 A  
BRANCH   7  12
HETATM   12  S   UNL     1     -10.118  13.586  66.717  1.00  0.00    -0.274 SA 
BRANCH  12  13
HETATM   13  C   UNL     1     -10.626  12.308  67.841  1.00  0.00    -0.212 A  
HETATM   14  C   UNL     1      -9.835  11.157  67.881  1.00  0.00    -0.187 A  
HETATM   15  C   UNL     1     -10.004  10.183  68.873  1.00  0.00    -0.207 A  
HETATM   16  C   UNL     1     -10.987  10.374  69.861  1.00  0.00    -0.364 A  
HETATM   17  C   UNL     1     -11.760  11.532  69.806  1.00  0.00    -0.353 A  
HETATM   18  C   UNL     1     -11.624  12.510  68.805  1.00  0.00    -0.366 A  
HETATM   19  N   UNL     1     -12.561  11.471  70.914  1.00  0.00    -0.366 NA 
HETATM   20  N   UNL     1     -12.382  10.378  71.670  1.00  0.00    -0.353 NA 
HETATM   21  H   UNL     1     -13.238  12.198  71.146  1.00  0.00     0.000 HD 
HETATM   22  C   UNL     1     -11.446   9.673  71.021  1.00  0.00    -0.371 A  
BRANCH  22  23
HETATM   23  C   UNL     1     -11.014   8.392  71.501  1.00  0.00    -0.326 C  
HETATM   24  C   UNL     1     -11.460   7.195  71.078  1.00  0.00    -0.331 C  
BRANCH  24  25
HETATM   25  C   UNL     1     -11.070   5.906  71.666  1.00  0.00    -0.258 A  
HETATM   26  C   UNL     1     -11.499   5.572  72.949  1.00  0.00    -0.327 A  
HETATM   27  C   UNL     1     -11.056   4.381  73.519  1.00  0.00    -0.388 A  
HETATM   28  C   UNL     1     -10.205   3.557  72.795  1.00  0.00    -0.242 A  
HETATM   29  C   UNL     1      -9.840   3.956  71.521  1.00  0.00    -0.177 A  
HETATM   30  N   UNL     1     -10.255   5.105  70.943  1.00  0.00    -0.229 NA 
ENDBRANCH  24  25
ENDBRANCH  22  23
ENDBRANCH  12  13
ENDBRANCH   7  12
ENDBRANCH   3   6
TORSDOF 5
ENDMDL
MODEL       41
REMARK 921   NORMALIZED FREE ENERGY PREDICTED BY IDOCK:   -6.03 KCAL/MOL
REMARK 922        TOTAL FREE ENERGY PREDICTED BY IDOCK:   -8.82 KCAL/MOL
REMARK 923 INTER-LIGAND FREE ENERGY PREDICTED BY IDOCK:   -7.92 KCAL/MOL
REMARK 924 INTRA-LIGAND FREE ENERGY PREDICTED BY IDOCK:   -0.90 KCAL/MOL
REMARK 927      BINDING AFFINITY PREDICTED BY RF-SCORE:    0.00 PKD
ROOT
HETATM    1  C   UNL     1     -13.811  15.275  71.206  1.00  0.00    -0.478 C  
HETATM    2  N   UNL     1     -12.867  15.815  70.266  1.00  0.00    -0.653 N  
HETATM    3  C   UNL     1     -11.838  15.049  69.762  1.00  0.00    -0.321 C  
HETATM    4  H   UNL     1     -12.960  16.785  69.965  1.00  0.00     0.000 HD 
HETATM    5  O   UNL     1     -11.542  13.941  70.199  1.00  0.00    -0.251 OA 
ENDROOT
BRANCH   3   6
HETATM    6  C   UNL     1     -11.029  15.671  68.668  1.00  0.00    -0.294 A  
HETATM    7  C   UNL     1     -11.223  15.407  67.290  1.00  0.00    -0.270 A  
HETATM    8  C   UNL     1     -10.446  16.119  66.363  1.00  0.00    -0.304 A  
HETATM    9  C   UNL     1      -9.242  17.229  68.149  1.00  0.00    -0.267 A  
HETATM   10  C   UNL     1      -9.471  17.030  66.791  1.00  0.00    -0.270 A  
HETATM   11  C   UNL     1     -10.022  16.556  69.085  1.00  0.00    -0.275 A  
BRANCH   7  12
HETATM   12  S   UNL     1     -12.227  14.022  66.763  1.00  0.00    -0.325 SA 
BRANCH  12  13
HETATM   13  C   UNL     1     -11.211  12.566  66.702  1.00  0.00    -0.307 A  
HETATM   14  C   UNL     1     -11.424  11.610  67.698  1.00  0.00    -0.373 A  
HETATM   15  C   UNL     1     -10.845  10.337  67.631  1.00  0.00    -0.363 A  
HETATM   16  C   UNL     1     -10.039  10.008  66.526  1.00  0.00    -0.296 A  
HETATM   17  C   UNL     1      -9.845  10.973  65.541  1.00  0.00    -0.243 A  
HETATM   18  C   UNL     1     -10.396  12.266  65.602  1.00  0.00    -0.287 A  
HETATM   19  N   UNL     1      -9.093  10.350  64.582  1.00  0.00    -0.203 NA 
HETATM   20  N   UNL     1      -8.777   9.078  64.864  1.00  0.00    -0.181 NA 
HETATM   21  H   UNL     1      -8.797  10.815  63.724  1.00  0.00     0.000 HD 
HETATM   22  C   UNL     1      -9.317   8.859  66.070  1.00  0.00    -0.242 A  
BRANCH  22  23
HETATM   23  C   UNL     1      -9.149   7.603  66.743  1.00  0.00    -0.181 C  
HETATM   24  C   UNL     1     -10.124   6.872  67.314  1.00  0.00    -0.256 C  
BRANCH  24  25
HETATM   25  C   UNL     1      -9.899   5.643  68.085  1.00  0.00    -0.137 A  
HETATM   26  C   UNL     1      -9.963   5.675  69.476  1.00  0.00    -0.263 A  
HETATM   27  C   UNL     1      -9.671   4.517  70.193  1.00  0.00    -0.287 A  
HETATM   28  C   UNL     1      -9.328   3.361  69.504  1.00  0.00    -0.240 A  
HETATM   29  C   UNL     1      -9.304   3.410  68.121  1.00  0.00    -0.184 A  
HETATM   30  N   UNL     1      -9.584   4.519  67.401  1.00  0.00    -0.165 NA 
ENDBRANCH  24  25
ENDBRANCH  22  23
ENDBRANCH  12  13
ENDBRANCH   7  12
ENDBRANCH   3   6
TORSDOF 5
ENDMDL
MODEL       42
REMARK 921   NORMALIZED FREE ENERGY PREDICTED BY IDOCK:   -6.02 KCAL/MOL
REMARK 922        TOTAL FREE ENERGY PREDICTED BY IDOCK:   -8.80 KCAL/MOL
REMARK 923 INTER-LIGAND FREE ENERGY PREDICTED BY IDOCK:   -8.12 KCAL/MOL
REMARK 924 INTRA-LIGAND FREE ENERGY PREDICTED BY IDOCK:   -0.68 KCAL/MOL
REMARK 927      BINDING AFFINITY PREDICTED BY RF-SCORE:    0.00 PKD
ROOT
HETATM    1  C   UNL     1     -13.595  15.415  71.118  1.00  0.00    -0.462 C  
HETATM    2  N   UNL     1     -12.747  15.797  70.021  1.00  0.00    -0.571 N  
HETATM    3  C   UNL     1     -11.399  15.512  70.024  1.00  0.00    -0.321 C  
HETATM    4  H   UNL     1     -13.152  16.288  69.224  1.00  0.00     0.000 HD 
HETATM    5  O   UNL     1     -10.797  15.093  71.008  1.00  0.00    -0.248 OA 
ENDROOT
BRANCH   3   6
HETATM    6  C   UNL     1     -10.662  15.808  68.756  1.00  0.00    -0.253 A  
HETATM    7  C   UNL     1     -11.058  15.335  67.481  1.00  0.00    -0.324 A  
HETATM    8  C   UNL     1     -10.321  15.752  66.361  1.00  0.00    -0.306 A  
HETATM    9  C   UNL     1      -8.774  16.973  67.771  1.00  0.00    -0.222 A  
HETATM   10  C   UNL     1      -9.194  16.573  66.507  1.00  0.00    -0.300 A  
HETATM   11  C   UNL     1      -9.508  16.596  68.892  1.00  0.00    -0.251 A  
BRANCH   7  12
HETATM   12  S   UNL     1     -12.284  14.040  67.332  1.00  0.00    -0.135 SA 
BRANCH  12  13
HETATM   13  C   UNL     1     -11.559  12.500  67.840  1.00  0.00    -0.347 A  
HETATM   14  C   UNL     1     -11.774  12.112  69.165  1.00  0.00    -0.384 A  
HETATM   15  C   UNL     1     -11.443  10.829  69.617  1.00  0.00    -0.376 A  
HETATM   16  C   UNL     1     -10.891   9.904  68.712  1.00  0.00    -0.240 A  
HETATM   17  C   UNL     1     -10.691  10.310  67.395  1.00  0.00    -0.281 A  
HETATM   18  C   UNL     1     -10.992  11.601  66.926  1.00  0.00    -0.342 A  
HETATM   19  N   UNL     1     -10.219   9.197  66.753  1.00  0.00    -0.262 NA 
HETATM   20  N   UNL     1     -10.088   8.117  67.537  1.00  0.00    -0.204 NA 
HETATM   21  H   UNL     1      -9.987   9.190  65.760  1.00  0.00     0.000 HD 
HETATM   22  C   UNL     1     -10.460   8.540  68.752  1.00  0.00    -0.184 A  
BRANCH  22  23
HETATM   23  C   UNL     1     -10.408   7.668  69.891  1.00  0.00    -0.225 C  
HETATM   24  C   UNL     1     -10.419   6.323  69.861  1.00  0.00    -0.284 C  
BRANCH  24  25
HETATM   25  C   UNL     1     -10.469   5.465  71.052  1.00  0.00    -0.232 A  
HETATM   26  C   UNL     1      -9.802   4.242  71.055  1.00  0.00    -0.251 A  
HETATM   27  C   UNL     1      -9.925   3.408  72.163  1.00  0.00    -0.230 A  
HETATM   28  C   UNL     1     -10.704   3.817  73.237  1.00  0.00    -0.287 A  
HETATM   29  C   UNL     1     -11.321   5.054  73.160  1.00  0.00    -0.321 A  
HETATM   30  N   UNL     1     -11.217   5.884  72.098  1.00  0.00    -0.279 NA 
ENDBRANCH  24  25
ENDBRANCH  22  23
ENDBRANCH  12  13
ENDBRANCH   7  12
ENDBRANCH   3   6
TORSDOF 5
ENDMDL
MODEL       43
REMARK 921   NORMALIZED FREE ENERGY PREDICTED BY IDOCK:   -6.00 KCAL/MOL
REMARK 922        TOTAL FREE ENERGY PREDICTED BY IDOCK:   -8.78 KCAL/MOL
REMARK 923 INTER-LIGAND FREE ENERGY PREDICTED BY IDOCK:   -7.91 KCAL/MOL
REMARK 924 INTRA-LIGAND FREE ENERGY PREDICTED BY IDOCK:   -0.86 KCAL/MOL
REMARK 927      BINDING AFFINITY PREDICTED BY RF-SCORE:    0.00 PKD
ROOT
HETATM    1  C   UNL     1     -11.848   5.672  72.564  1.00  0.00    -0.134 C  
HETATM    2  N   UNL     1     -10.759   6.403  71.975  1.00  0.00    -0.220 N  
HETATM    3  C   UNL     1     -10.714   6.656  70.621  1.00  0.00    -0.241 C  
HETATM    4  H   UNL     1     -10.004   6.742  72.571  1.00  0.00     0.000 HD 
HETATM    5  O   UNL     1     -11.475   6.137  69.810  1.00  0.00    -0.433 OA 
ENDROOT
BRANCH   3   6
HETATM    6  C   UNL     1      -9.622   7.568  70.158  1.00  0.00    -0.168 A  
HETATM    7  C   UNL     1      -9.758   8.973  70.045  1.00  0.00    -0.185 A  
HETATM    8  C   UNL     1      -8.629   9.720  69.673  1.00  0.00    -0.201 A  
HETATM    9  C   UNL     1      -7.313   7.701  69.422  1.00  0.00    -0.087 A  
HETATM   10  C   UNL     1      -7.414   9.088  69.375  1.00  0.00    -0.077 A  
HETATM   11  C   UNL     1      -8.412   6.943  69.818  1.00  0.00    -0.133 A  
BRANCH   7  12
HETATM   12  S   UNL     1     -11.375   9.738  70.108  1.00  0.00    -0.232 SA 
BRANCH  12  13
HETATM   13  C   UNL     1     -11.407  11.108  68.978  1.00  0.00    -0.276 A  
HETATM   14  C   UNL     1     -11.246  12.381  69.531  1.00  0.00    -0.171 A  
HETATM   15  C   UNL     1     -11.037  13.509  68.729  1.00  0.00    -0.298 A  
HETATM   16  C   UNL     1     -10.975  13.356  67.332  1.00  0.00    -0.287 A  
HETATM   17  C   UNL     1     -11.131  12.077  66.802  1.00  0.00    -0.305 A  
HETATM   18  C   UNL     1     -11.368  10.935  67.588  1.00  0.00    -0.345 A  
HETATM   19  N   UNL     1     -10.954  12.232  65.454  1.00  0.00    -0.291 NA 
HETATM   20  N   UNL     1     -10.709  13.492  65.067  1.00  0.00    -0.335 NA 
HETATM   21  H   UNL     1     -11.004  11.453  64.797  1.00  0.00     0.000 HD 
HETATM   22  C   UNL     1     -10.753  14.204  66.201  1.00  0.00    -0.297 A  
BRANCH  22  23
HETATM   23  C   UNL     1     -10.586  15.629  66.191  1.00  0.00    -0.325 C  
HETATM   24  C   UNL     1      -9.889  16.352  67.088  1.00  0.00    -0.249 C  
BRANCH  24  25
HETATM   25  C   UNL     1      -9.826  17.819  67.105  1.00  0.00    -0.311 A  
HETATM   26  C   UNL     1      -9.266  18.477  68.197  1.00  0.00    -0.329 A  
HETATM   27  C   UNL     1      -9.285  19.869  68.230  1.00  0.00    -0.345 A  
HETATM   28  C   UNL     1      -9.857  20.565  67.173  1.00  0.00    -0.567 A  
HETATM   29  C   UNL     1     -10.377  19.835  66.119  1.00  0.00    -0.524 A  
HETATM   30  N   UNL     1     -10.371  18.484  66.060  1.00  0.00    -0.547 NA 
ENDBRANCH  24  25
ENDBRANCH  22  23
ENDBRANCH  12  13
ENDBRANCH   7  12
ENDBRANCH   3   6
TORSDOF 5
ENDMDL
MODEL       44
REMARK 921   NORMALIZED FREE ENERGY PREDICTED BY IDOCK:   -5.98 KCAL/MOL
REMARK 922        TOTAL FREE ENERGY PREDICTED BY IDOCK:   -8.75 KCAL/MOL
REMARK 923 INTER-LIGAND FREE ENERGY PREDICTED BY IDOCK:   -8.00 KCAL/MOL
REMARK 924 INTRA-LIGAND FREE ENERGY PREDICTED BY IDOCK:   -0.75 KCAL/MOL
REMARK 927      BINDING AFFINITY PREDICTED BY RF-SCORE:    0.00 PKD
ROOT
HETATM    1  C   UNL     1      -7.260   4.960  65.137  1.00  0.00    -0.064 C  
HETATM    2  N   UNL     1      -7.508   4.377  66.428  1.00  0.00    -0.081 N  
HETATM    3  C   UNL     1      -8.742   4.474  67.034  1.00  0.00    -0.104 C  
HETATM    4  H   UNL     1      -6.755   3.882  66.905  1.00  0.00     0.000 HD 
HETATM    5  O   UNL     1      -9.643   5.199  66.622  1.00  0.00    -0.133 OA 
ENDROOT
BRANCH   3   6
HETATM    6  C   UNL     1      -8.921   3.685  68.292  1.00  0.00    -0.173 A  
HETATM    7  C   UNL     1      -8.842   4.239  69.593  1.00  0.00    -0.086 A  
HETATM    8  C   UNL     1      -9.107   3.401  70.687  1.00  0.00    -0.185 A  
HETATM    9  C   UNL     1      -9.398   1.494  69.221  1.00  0.00    -0.172 A  
HETATM   10  C   UNL     1      -9.393   2.042  70.500  1.00  0.00    -0.183 A  
HETATM   11  C   UNL     1      -9.168   2.314  68.120  1.00  0.00    -0.247 A  
BRANCH   7  12
HETATM   12  S   UNL     1      -8.165   5.877  69.844  1.00  0.00    -0.118 SA 
BRANCH  12  13
HETATM   13  C   UNL     1      -9.428   6.923  70.526  1.00  0.00    -0.169 A  
HETATM   14  C   UNL     1      -9.137   8.287  70.606  1.00  0.00    -0.164 A  
HETATM   15  C   UNL     1     -10.122   9.231  70.918  1.00  0.00    -0.373 A  
HETATM   16  C   UNL     1     -11.441   8.797  71.144  1.00  0.00    -0.344 A  
HETATM   17  C   UNL     1     -11.711   7.433  71.052  1.00  0.00    -0.297 A  
HETATM   18  C   UNL     1     -10.731   6.466  70.766  1.00  0.00    -0.302 A  
HETATM   19  N   UNL     1     -13.061   7.329  71.247  1.00  0.00    -0.524 NA 
HETATM   20  N   UNL     1     -13.683   8.497  71.466  1.00  0.00    -0.344 NA 
HETATM   21  H   UNL     1     -13.554   6.437  71.228  1.00  0.00     0.000 HD 
HETATM   22  C   UNL     1     -12.701   9.408  71.443  1.00  0.00    -0.345 A  
BRANCH  22  23
HETATM   23  C   UNL     1     -12.967  10.795  71.692  1.00  0.00    -0.581 C  
HETATM   24  C   UNL     1     -12.443  11.836  71.019  1.00  0.00    -0.411 C  
BRANCH  24  25
HETATM   25  C   UNL     1     -12.658  13.247  71.370  1.00  0.00    -0.271 A  
HETATM   26  C   UNL     1     -12.251  14.249  70.492  1.00  0.00    -0.427 A  
HETATM   27  C   UNL     1     -12.394  15.580  70.876  1.00  0.00    -0.474 A  
HETATM   28  C   UNL     1     -12.940  15.874  72.118  1.00  0.00    -0.465 A  
HETATM   29  C   UNL     1     -13.333  14.819  72.922  1.00  0.00    -0.484 A  
HETATM   30  N   UNL     1     -13.209  13.518  72.575  1.00  0.00    -0.485 NA 
ENDBRANCH  24  25
ENDBRANCH  22  23
ENDBRANCH  12  13
ENDBRANCH   7  12
ENDBRANCH   3   6
TORSDOF 5
ENDMDL
MODEL       45
REMARK 921   NORMALIZED FREE ENERGY PREDICTED BY IDOCK:   -5.97 KCAL/MOL
REMARK 922        TOTAL FREE ENERGY PREDICTED BY IDOCK:   -8.74 KCAL/MOL
REMARK 923 INTER-LIGAND FREE ENERGY PREDICTED BY IDOCK:   -7.72 KCAL/MOL
REMARK 924 INTRA-LIGAND FREE ENERGY PREDICTED BY IDOCK:   -1.02 KCAL/MOL
REMARK 927      BINDING AFFINITY PREDICTED BY RF-SCORE:    0.00 PKD
ROOT
HETATM    1  C   UNL     1      -5.681   9.365  68.880  1.00  0.00    -0.039 C  
HETATM    2  N   UNL     1      -6.793   8.505  68.579  1.00  0.00    -0.063 N  
HETATM    3  C   UNL     1      -7.550   8.682  67.441  1.00  0.00    -0.093 C  
HETATM    4  H   UNL     1      -7.026   7.747  69.221  1.00  0.00     0.000 HD 
HETATM    5  O   UNL     1      -7.458   9.666  66.713  1.00  0.00    -0.093 OA 
ENDROOT
BRANCH   3   6
HETATM    6  C   UNL     1      -8.567   7.623  67.157  1.00  0.00    -0.121 A  
HETATM    7  C   UNL     1      -9.930   7.713  67.530  1.00  0.00    -0.178 A  
HETATM    8  C   UNL     1     -10.796   6.682  67.133  1.00  0.00    -0.471 A  
HETATM    9  C   UNL     1      -8.961   5.460  66.129  1.00  0.00    -0.142 A  
HETATM   10  C   UNL     1     -10.315   5.570  66.428  1.00  0.00    -0.272 A  
HETATM   11  C   UNL     1      -8.090   6.485  66.487  1.00  0.00    -0.111 A  
BRANCH   7  12
HETATM   12  S   UNL     1     -10.472   8.957  68.697  1.00  0.00    -0.158 SA 
BRANCH  12  13
HETATM   13  C   UNL     1     -10.619  10.513  67.852  1.00  0.00    -0.232 A  
HETATM   14  C   UNL     1     -10.245  11.653  68.567  1.00  0.00    -0.216 A  
HETATM   15  C   UNL     1     -10.109  12.900  67.944  1.00  0.00    -0.232 A  
HETATM   16  C   UNL     1     -10.343  13.004  66.560  1.00  0.00    -0.278 A  
HETATM   17  C   UNL     1     -10.707  11.853  65.865  1.00  0.00    -0.284 A  
HETATM   18  C   UNL     1     -10.875  10.597  66.476  1.00  0.00    -0.168 A  
HETATM   19  N   UNL     1     -10.793  12.246  64.558  1.00  0.00    -0.297 NA 
HETATM   20  N   UNL     1     -10.528  13.544  64.349  1.00  0.00    -0.417 NA 
HETATM   21  H   UNL     1     -11.039  11.605  63.803  1.00  0.00     0.000 HD 
HETATM   22  C   UNL     1     -10.284  14.036  65.571  1.00  0.00    -0.343 A  
BRANCH  22  23
HETATM   23  C   UNL     1     -10.005  15.429  65.769  1.00  0.00    -0.393 C  
HETATM   24  C   UNL     1     -10.505  16.207  66.747  1.00  0.00    -0.294 C  
BRANCH  24  25
HETATM   25  C   UNL     1     -10.279  17.654  66.857  1.00  0.00    -0.334 A  
HETATM   26  C   UNL     1      -9.875  18.202  68.072  1.00  0.00    -0.331 A  
HETATM   27  C   UNL     1      -9.740  19.584  68.177  1.00  0.00    -0.483 A  
HETATM   28  C   UNL     1     -10.006  20.379  67.070  1.00  0.00    -0.568 A  
HETATM   29  C   UNL     1     -10.386  19.753  65.896  1.00  0.00    -0.483 A  
HETATM   30  N   UNL     1     -10.523  18.414  65.765  1.00  0.00    -0.623 NA 
ENDBRANCH  24  25
ENDBRANCH  22  23
ENDBRANCH  12  13
ENDBRANCH   7  12
ENDBRANCH   3   6
TORSDOF 5
ENDMDL
MODEL       46
REMARK 921   NORMALIZED FREE ENERGY PREDICTED BY IDOCK:   -5.95 KCAL/MOL
REMARK 922        TOTAL FREE ENERGY PREDICTED BY IDOCK:   -8.71 KCAL/MOL
REMARK 923 INTER-LIGAND FREE ENERGY PREDICTED BY IDOCK:   -7.79 KCAL/MOL
REMARK 924 INTRA-LIGAND FREE ENERGY PREDICTED BY IDOCK:   -0.92 KCAL/MOL
REMARK 927      BINDING AFFINITY PREDICTED BY RF-SCORE:    0.00 PKD
ROOT
HETATM    1  C   UNL     1     -14.393   8.082  71.378  1.00  0.00    -0.375 C  
HETATM    2  N   UNL     1     -12.975   7.850  71.307  1.00  0.00    -0.505 N  
HETATM    3  C   UNL     1     -12.070   8.864  71.533  1.00  0.00    -0.330 C  
HETATM    4  H   UNL     1     -12.633   6.915  71.085  1.00  0.00     0.000 HD 
HETATM    5  O   UNL     1     -12.387  10.046  71.625  1.00  0.00    -0.378 OA 
ENDROOT
BRANCH   3   6
HETATM    6  C   UNL     1     -10.631   8.459  71.597  1.00  0.00    -0.327 A  
HETATM    7  C   UNL     1      -9.740   8.525  70.498  1.00  0.00    -0.177 A  
HETATM    8  C   UNL     1      -8.395   8.188  70.714  1.00  0.00    -0.120 A  
HETATM    9  C   UNL     1      -8.856   7.622  73.025  1.00  0.00    -0.220 A  
HETATM   10  C   UNL     1      -7.956   7.750  71.972  1.00  0.00    -0.121 A  
HETATM   11  C   UNL     1     -10.189   7.980  72.840  1.00  0.00    -0.384 A  
BRANCH   7  12
HETATM   12  S   UNL     1     -10.361   8.767  68.837  1.00  0.00    -0.198 SA 
BRANCH  12  13
HETATM   13  C   UNL     1      -9.833  10.359  68.252  1.00  0.00    -0.154 A  
HETATM   14  C   UNL     1     -10.665  11.442  68.543  1.00  0.00    -0.235 A  
HETATM   15  C   UNL     1     -10.254  12.763  68.329  1.00  0.00    -0.245 A  
HETATM   16  C   UNL     1      -8.965  13.006  67.819  1.00  0.00    -0.191 A  
HETATM   17  C   UNL     1      -8.149  11.912  67.542  1.00  0.00    -0.156 A  
HETATM   18  C   UNL     1      -8.552  10.577  67.725  1.00  0.00    -0.118 A  
HETATM   19  N   UNL     1      -6.961  12.455  67.137  1.00  0.00    -0.313 NA 
HETATM   20  N   UNL     1      -6.940  13.795  67.117  1.00  0.00    -0.040 NA 
HETATM   21  H   UNL     1      -6.156  11.887  66.871  1.00  0.00     0.000 HD 
HETATM   22  C   UNL     1      -8.173  14.154  67.498  1.00  0.00    -0.186 A  
BRANCH  22  23
HETATM   23  C   UNL     1      -8.562  15.534  67.553  1.00  0.00    -0.184 C  
HETATM   24  C   UNL     1      -8.786  16.338  66.498  1.00  0.00    -0.318 C  
BRANCH  24  25
HETATM   25  C   UNL     1      -9.081  17.773  66.593  1.00  0.00    -0.266 A  
HETATM   26  C   UNL     1     -10.308  18.197  67.099  1.00  0.00    -0.391 A  
HETATM   27  C   UNL     1     -10.600  19.559  67.110  1.00  0.00    -0.605 A  
HETATM   28  C   UNL     1      -9.661  20.458  66.622  1.00  0.00    -0.498 A  
HETATM   29  C   UNL     1      -8.461  19.955  66.152  1.00  0.00    -0.319 A  
HETATM   30  N   UNL     1      -8.150  18.639  66.131  1.00  0.00    -0.438 NA 
ENDBRANCH  24  25
ENDBRANCH  22  23
ENDBRANCH  12  13
ENDBRANCH   7  12
ENDBRANCH   3   6
TORSDOF 5
ENDMDL
MODEL       47
REMARK 921   NORMALIZED FREE ENERGY PREDICTED BY IDOCK:   -5.95 KCAL/MOL
REMARK 922        TOTAL FREE ENERGY PREDICTED BY IDOCK:   -8.71 KCAL/MOL
REMARK 923 INTER-LIGAND FREE ENERGY PREDICTED BY IDOCK:   -7.83 KCAL/MOL
REMARK 924 INTRA-LIGAND FREE ENERGY PREDICTED BY IDOCK:   -0.88 KCAL/MOL
REMARK 927      BINDING AFFINITY PREDICTED BY RF-SCORE:    0.00 PKD
ROOT
HETATM    1  C   UNL     1      -7.961  16.484  68.811  1.00  0.00    -0.236 C  
HETATM    2  N   UNL     1      -8.887  15.655  68.089  1.00  0.00    -0.172 N  
HETATM    3  C   UNL     1     -10.031  16.180  67.525  1.00  0.00    -0.243 C  
HETATM    4  H   UNL     1      -8.695  14.658  67.991  1.00  0.00     0.000 HD 
HETATM    5  O   UNL     1     -10.432  17.319  67.745  1.00  0.00    -0.344 OA 
ENDROOT
BRANCH   3   6
HETATM    6  C   UNL     1     -10.822  15.252  66.659  1.00  0.00    -0.310 A  
HETATM    7  C   UNL     1     -11.859  14.413  67.137  1.00  0.00    -0.410 A  
HETATM    8  C   UNL     1     -12.575  13.648  66.204  1.00  0.00    -0.391 A  
HETATM    9  C   UNL     1     -11.176  14.450  64.396  1.00  0.00    -0.235 A  
HETATM   10  C   UNL     1     -12.242  13.675  64.843  1.00  0.00    -0.447 A  
HETATM   11  C   UNL     1     -10.472  15.240  65.300  1.00  0.00    -0.436 A  
BRANCH   7  12
HETATM   12  S   UNL     1     -12.066  14.135  68.893  1.00  0.00    -0.239 SA 
BRANCH  12  13
HETATM   13  C   UNL     1     -11.471  12.509  69.292  1.00  0.00    -0.293 A  
HETATM   14  C   UNL     1     -12.084  11.863  70.368  1.00  0.00    -0.421 A  
HETATM   15  C   UNL     1     -11.856  10.508  70.638  1.00  0.00    -0.458 A  
HETATM   16  C   UNL     1     -10.997   9.776  69.798  1.00  0.00    -0.287 A  
HETATM   17  C   UNL     1     -10.402  10.438  68.726  1.00  0.00    -0.196 A  
HETATM   18  C   UNL     1     -10.597  11.804  68.452  1.00  0.00    -0.239 A  
HETATM   19  N   UNL     1      -9.695   9.471  68.065  1.00  0.00    -0.144 NA 
HETATM   20  N   UNL     1      -9.773   8.251  68.616  1.00  0.00    -0.153 NA 
HETATM   21  H   UNL     1      -9.154   9.662  67.222  1.00  0.00     0.000 HD 
HETATM   22  C   UNL     1     -10.538   8.424  69.702  1.00  0.00    -0.219 A  
BRANCH  22  23
HETATM   23  C   UNL     1     -10.815   7.338  70.597  1.00  0.00    -0.261 C  
HETATM   24  C   UNL     1      -9.994   6.307  70.872  1.00  0.00    -0.219 C  
BRANCH  24  25
HETATM   25  C   UNL     1     -10.353   5.158  71.714  1.00  0.00    -0.209 A  
HETATM   26  C   UNL     1     -11.106   5.354  72.869  1.00  0.00    -0.360 A  
HETATM   27  C   UNL     1     -11.371   4.264  73.695  1.00  0.00    -0.278 A  
HETATM   28  C   UNL     1     -10.884   3.012  73.344  1.00  0.00    -0.307 A  
HETATM   29  C   UNL     1     -10.158   2.902  72.170  1.00  0.00    -0.135 A  
HETATM   30  N   UNL     1      -9.887   3.941  71.350  1.00  0.00    -0.187 NA 
ENDBRANCH  24  25
ENDBRANCH  22  23
ENDBRANCH  12  13
ENDBRANCH   7  12
ENDBRANCH   3   6
TORSDOF 5
ENDMDL
MODEL       48
REMARK 921   NORMALIZED FREE ENERGY PREDICTED BY IDOCK:   -5.93 KCAL/MOL
REMARK 922        TOTAL FREE ENERGY PREDICTED BY IDOCK:   -8.68 KCAL/MOL
REMARK 923 INTER-LIGAND FREE ENERGY PREDICTED BY IDOCK:   -7.53 KCAL/MOL
REMARK 924 INTRA-LIGAND FREE ENERGY PREDICTED BY IDOCK:   -1.15 KCAL/MOL
REMARK 927      BINDING AFFINITY PREDICTED BY RF-SCORE:    0.00 PKD
ROOT
HETATM    1  C   UNL     1     -12.220  13.782  64.020  1.00  0.00    -0.380 C  
HETATM    2  N   UNL     1     -11.841  14.328  65.295  1.00  0.00    -0.360 N  
HETATM    3  C   UNL     1     -11.796  13.543  66.427  1.00  0.00    -0.394 C  
HETATM    4  H   UNL     1     -11.601  15.317  65.364  1.00  0.00     0.000 HD 
HETATM    5  O   UNL     1     -12.240  12.400  66.476  1.00  0.00    -0.586 OA 
ENDROOT
BRANCH   3   6
HETATM    6  C   UNL     1     -11.226  14.187  67.651  1.00  0.00    -0.315 A  
HETATM    7  C   UNL     1      -9.844  14.220  67.958  1.00  0.00    -0.224 A  
HETATM    8  C   UNL     1      -9.435  14.926  69.100  1.00  0.00    -0.158 A  
HETATM    9  C   UNL     1     -11.734  15.440  69.667  1.00  0.00    -0.355 A  
HETATM   10  C   UNL     1     -10.373  15.539  69.941  1.00  0.00    -0.322 A  
HETATM   11  C   UNL     1     -12.159  14.770  68.523  1.00  0.00    -0.210 A  
BRANCH   7  12
HETATM   12  S   UNL     1      -8.691  13.173  67.074  1.00  0.00    -0.150 SA 
BRANCH  12  13
HETATM   13  C   UNL     1      -9.012  11.478  67.498  1.00  0.00    -0.159 A  
HETATM   14  C   UNL     1      -9.176  11.191  68.855  1.00  0.00    -0.106 A  
HETATM   15  C   UNL     1      -9.644   9.946  69.291  1.00  0.00    -0.215 A  
HETATM   16  C   UNL     1      -9.971   8.964  68.338  1.00  0.00    -0.198 A  
HETATM   17  C   UNL     1      -9.807   9.274  66.990  1.00  0.00    -0.198 A  
HETATM   18  C   UNL     1      -9.313  10.508  66.532  1.00  0.00    -0.189 A  
HETATM   19  N   UNL     1     -10.264   8.172  66.319  1.00  0.00    -0.445 NA 
HETATM   20  N   UNL     1     -10.696   7.180  67.110  1.00  0.00    -0.340 NA 
HETATM   21  H   UNL     1     -10.274   8.110  65.301  1.00  0.00     0.000 HD 
HETATM   22  C   UNL     1     -10.491   7.631  68.355  1.00  0.00    -0.169 A  
BRANCH  22  23
HETATM   23  C   UNL     1     -10.788   6.818  69.499  1.00  0.00    -0.315 C  
HETATM   24  C   UNL     1      -9.890   6.276  70.342  1.00  0.00    -0.207 C  
BRANCH  24  25
HETATM   25  C   UNL     1     -10.227   5.362  71.442  1.00  0.00    -0.216 A  
HETATM   26  C   UNL     1      -9.646   4.097  71.495  1.00  0.00    -0.238 A  
HETATM   27  C   UNL     1     -10.036   3.218  72.502  1.00  0.00    -0.229 A  
HETATM   28  C   UNL     1     -10.988   3.625  73.428  1.00  0.00    -0.312 A  
HETATM   29  C   UNL     1     -11.502   4.904  73.313  1.00  0.00    -0.274 A  
HETATM   30  N   UNL     1     -11.141   5.779  72.347  1.00  0.00    -0.267 NA 
ENDBRANCH  24  25
ENDBRANCH  22  23
ENDBRANCH  12  13
ENDBRANCH   7  12
ENDBRANCH   3   6
TORSDOF 5
ENDMDL
MODEL       49
REMARK 921   NORMALIZED FREE ENERGY PREDICTED BY IDOCK:   -5.87 KCAL/MOL
REMARK 922        TOTAL FREE ENERGY PREDICTED BY IDOCK:   -8.61 KCAL/MOL
REMARK 923 INTER-LIGAND FREE ENERGY PREDICTED BY IDOCK:   -7.53 KCAL/MOL
REMARK 924 INTRA-LIGAND FREE ENERGY PREDICTED BY IDOCK:   -1.08 KCAL/MOL
REMARK 927      BINDING AFFINITY PREDICTED BY RF-SCORE:    0.00 PKD
ROOT
HETATM    1  C   UNL     1      -9.967   1.946  72.992  1.00  0.00    -0.100 C  
HETATM    2  N   UNL     1      -8.850   2.660  72.437  1.00  0.00    -0.073 N  
HETATM    3  C   UNL     1      -9.028   3.811  71.699  1.00  0.00    -0.107 C  
HETATM    4  H   UNL     1      -7.905   2.308  72.592  1.00  0.00     0.000 HD 
HETATM    5  O   UNL     1     -10.125   4.203  71.311  1.00  0.00    -0.169 OA 
ENDROOT
BRANCH   3   6
HETATM    6  C   UNL     1      -7.783   4.549  71.322  1.00  0.00    -0.077 A  
HETATM    7  C   UNL     1      -7.156   5.517  72.145  1.00  0.00    -0.086 A  
HETATM    8  C   UNL     1      -5.948   6.079  71.704  1.00  0.00    -0.035 A  
HETATM    9  C   UNL     1      -6.065   4.831  69.630  1.00  0.00    -0.018 A  
HETATM   10  C   UNL     1      -5.403   5.729  70.461  1.00  0.00    -0.009 A  
HETATM   11  C   UNL     1      -7.249   4.238  70.062  1.00  0.00    -0.046 A  
BRANCH   7  12
HETATM   12  S   UNL     1      -8.011   6.195  73.564  1.00  0.00    -0.101 SA 
BRANCH  12  13
HETATM   13  C   UNL     1      -9.148   7.442  73.008  1.00  0.00    -0.155 A  
HETATM   14  C   UNL     1      -8.691   8.308  72.012  1.00  0.00    -0.243 A  
HETATM   15  C   UNL     1      -9.557   9.183  71.345  1.00  0.00    -0.316 A  
HETATM   16  C   UNL     1     -10.924   9.180  71.678  1.00  0.00    -0.445 A  
HETATM   17  C   UNL     1     -11.360   8.303  72.669  1.00  0.00    -0.350 A  
HETATM   18  C   UNL     1     -10.502   7.435  73.369  1.00  0.00    -0.419 A  
HETATM   19  N   UNL     1     -12.716   8.476  72.719  1.00  0.00    -0.612 NA 
HETATM   20  N   UNL     1     -13.192   9.388  71.860  1.00  0.00    -0.398 NA 
HETATM   21  H   UNL     1     -13.316   7.953  73.357  1.00  0.00     0.000 HD 
HETATM   22  C   UNL     1     -12.104   9.859  71.236  1.00  0.00    -0.394 A  
BRANCH  22  23
HETATM   23  C   UNL     1     -12.201  10.907  70.261  1.00  0.00    -0.432 C  
HETATM   24  C   UNL     1     -11.762  10.851  68.990  1.00  0.00    -0.391 C  
BRANCH  24  25
HETATM   25  C   UNL     1     -11.784  11.980  68.051  1.00  0.00    -0.331 A  
HETATM   26  C   UNL     1     -11.785  13.285  68.536  1.00  0.00    -0.388 A  
HETATM   27  C   UNL     1     -11.884  14.341  67.633  1.00  0.00    -0.420 A  
HETATM   28  C   UNL     1     -11.975  14.067  66.275  1.00  0.00    -0.454 A  
HETATM   29  C   UNL     1     -11.951  12.742  65.876  1.00  0.00    -0.449 A  
HETATM   30  N   UNL     1     -11.854  11.698  66.729  1.00  0.00    -0.516 NA 
ENDBRANCH  24  25
ENDBRANCH  22  23
ENDBRANCH  12  13
ENDBRANCH   7  12
ENDBRANCH   3   6
TORSDOF 5
ENDMDL
MODEL       50
REMARK 921   NORMALIZED FREE ENERGY PREDICTED BY IDOCK:   -5.86 KCAL/MOL
REMARK 922        TOTAL FREE ENERGY PREDICTED BY IDOCK:   -8.60 KCAL/MOL
REMARK 923 INTER-LIGAND FREE ENERGY PREDICTED BY IDOCK:   -8.01 KCAL/MOL
REMARK 924 INTRA-LIGAND FREE ENERGY PREDICTED BY IDOCK:   -0.58 KCAL/MOL
REMARK 927      BINDING AFFINITY PREDICTED BY RF-SCORE:    0.00 PKD
ROOT
HETATM    1  C   UNL     1     -12.390  12.465  63.576  1.00  0.00    -0.546 C  
HETATM    2  N   UNL     1     -11.465  13.254  64.343  1.00  0.00    -0.362 N  
HETATM    3  C   UNL     1     -11.881  13.987  65.434  1.00  0.00    -0.359 C  
HETATM    4  H   UNL     1     -10.481  13.272  64.075  1.00  0.00     0.000 HD 
HETATM    5  O   UNL     1     -13.061  14.169  65.718  1.00  0.00    -0.512 OA 
ENDROOT
BRANCH   3   6
HETATM    6  C   UNL     1     -10.800  14.627  66.246  1.00  0.00    -0.321 A  
HETATM    7  C   UNL     1     -10.732  14.571  67.660  1.00  0.00    -0.254 A  
HETATM    8  C   UNL     1      -9.621  15.148  68.294  1.00  0.00    -0.211 A  
HETATM    9  C   UNL     1      -8.743  15.914  66.169  1.00  0.00    -0.328 A  
HETATM   10  C   UNL     1      -8.630  15.805  67.551  1.00  0.00    -0.180 A  
HETATM   11  C   UNL     1      -9.822  15.323  65.517  1.00  0.00    -0.362 A  
BRANCH   7  12
HETATM   12  S   UNL     1     -12.143  14.026  68.616  1.00  0.00    -0.203 SA 
BRANCH  12  13
HETATM   13  C   UNL     1     -11.962  12.295  68.972  1.00  0.00    -0.248 A  
HETATM   14  C   UNL     1     -11.283  11.527  68.023  1.00  0.00    -0.335 A  
HETATM   15  C   UNL     1     -10.890  10.210  68.288  1.00  0.00    -0.297 A  
HETATM   16  C   UNL     1     -11.174   9.649  69.547  1.00  0.00    -0.144 A  
HETATM   17  C   UNL     1     -11.846  10.435  70.481  1.00  0.00    -0.337 A  
HETATM   18  C   UNL     1     -12.273  11.751  70.226  1.00  0.00    -0.381 A  
HETATM   19  N   UNL     1     -11.913   9.660  71.607  1.00  0.00    -0.392 NA 
HETATM   20  N   UNL     1     -11.357   8.447  71.481  1.00  0.00    -0.262 NA 
HETATM   21  H   UNL     1     -12.351   9.979  72.471  1.00  0.00     0.000 HD 
HETATM   22  C   UNL     1     -10.930   8.406  70.212  1.00  0.00    -0.232 A  
BRANCH  22  23
HETATM   23  C   UNL     1     -10.313   7.228  69.673  1.00  0.00    -0.227 C  
HETATM   24  C   UNL     1     -10.823   6.432  68.715  1.00  0.00    -0.378 C  
BRANCH  24  25
HETATM   25  C   UNL     1     -10.210   5.177  68.262  1.00  0.00    -0.111 A  
HETATM   26  C   UNL     1      -9.682   4.287  69.194  1.00  0.00    -0.226 A  
HETATM   27  C   UNL     1      -9.036   3.140  68.741  1.00  0.00    -0.209 A  
HETATM   28  C   UNL     1      -8.940   2.909  67.375  1.00  0.00    -0.189 A  
HETATM   29  C   UNL     1      -9.507   3.835  66.517  1.00  0.00    -0.187 A  
HETATM   30  N   UNL     1     -10.141   4.956  66.929  1.00  0.00    -0.216 NA 
ENDBRANCH  24  25
ENDBRANCH  22  23
ENDBRANCH  12  13
ENDBRANCH   7  12
ENDBRANCH   3   6
TORSDOF 5
ENDMDL
MODEL       51
REMARK 921   NORMALIZED FREE ENERGY PREDICTED BY IDOCK:   -5.76 KCAL/MOL
REMARK 922        TOTAL FREE ENERGY PREDICTED BY IDOCK:   -8.47 KCAL/MOL
REMARK 923 INTER-LIGAND FREE ENERGY PREDICTED BY IDOCK:   -7.57 KCAL/MOL
REMARK 924 INTRA-LIGAND FREE ENERGY PREDICTED BY IDOCK:   -0.90 KCAL/MOL
REMARK 927      BINDING AFFINITY PREDICTED BY RF-SCORE:    0.00 PKD
ROOT
HETATM    1  C   UNL     1     -14.389   8.432  71.968  1.00  0.00    -0.464 C  
HETATM    2  N   UNL     1     -13.039   7.940  71.967  1.00  0.00    -0.460 N  
HETATM    3  C   UNL     1     -11.962   8.800  71.959  1.00  0.00    -0.376 C  
HETATM    4  H   UNL     1     -12.874   6.933  71.972  1.00  0.00     0.000 HD 
HETATM    5  O   UNL     1     -12.062  10.008  71.771  1.00  0.00    -0.373 OA 
ENDROOT
BRANCH   3   6
HETATM    6  C   UNL     1     -10.616   8.169  72.130  1.00  0.00    -0.358 A  
HETATM    7  C   UNL     1      -9.706   7.943  71.068  1.00  0.00    -0.159 A  
HETATM    8  C   UNL     1      -8.444   7.415  71.378  1.00  0.00    -0.113 A  
HETATM    9  C   UNL     1      -9.038   7.235  73.720  1.00  0.00    -0.266 A  
HETATM   10  C   UNL     1      -8.110   7.073  72.696  1.00  0.00    -0.115 A  
HETATM   11  C   UNL     1     -10.285   7.786  73.439  1.00  0.00    -0.315 A  
BRANCH   7  12
HETATM   12  S   UNL     1     -10.246   8.072  69.366  1.00  0.00    -0.212 SA 
BRANCH  12  13
HETATM   13  C   UNL     1     -10.309   9.789  68.912  1.00  0.00    -0.210 A  
HETATM   14  C   UNL     1      -9.115  10.507  69.008  1.00  0.00    -0.188 A  
HETATM   15  C   UNL     1      -8.988  11.796  68.476  1.00  0.00    -0.132 A  
HETATM   16  C   UNL     1     -10.087  12.377  67.817  1.00  0.00    -0.203 A  
HETATM   17  C   UNL     1     -11.266  11.640  67.726  1.00  0.00    -0.268 A  
HETATM   18  C   UNL     1     -11.423  10.355  68.276  1.00  0.00    -0.218 A  
HETATM   19  N   UNL     1     -12.111  12.421  66.986  1.00  0.00    -0.529 NA 
HETATM   20  N   UNL     1     -11.590  13.595  66.601  1.00  0.00    -0.346 NA 
HETATM   21  H   UNL     1     -13.060  12.134  66.747  1.00  0.00     0.000 HD 
HETATM   22  C   UNL     1     -10.360  13.604  67.132  1.00  0.00    -0.250 A  
BRANCH  22  23
HETATM   23  C   UNL     1      -9.493  14.736  66.980  1.00  0.00    -0.241 C  
HETATM   24  C   UNL     1      -9.847  15.951  66.521  1.00  0.00    -0.277 C  
BRANCH  24  25
HETATM   25  C   UNL     1      -8.909  17.056  66.281  1.00  0.00    -0.254 A  
HETATM   26  C   UNL     1      -7.562  16.784  66.052  1.00  0.00     0.018 A  
HETATM   27  C   UNL     1      -6.676  17.848  65.903  1.00  0.00    -0.312 A  
HETATM   28  C   UNL     1      -7.156  19.149  65.981  1.00  0.00    -0.291 A  
HETATM   29  C   UNL     1      -8.511  19.330  66.194  1.00  0.00    -0.269 A  
HETATM   30  N   UNL     1      -9.394  18.317  66.341  1.00  0.00    -0.389 NA 
ENDBRANCH  24  25
ENDBRANCH  22  23
ENDBRANCH  12  13
ENDBRANCH   7  12
ENDBRANCH   3   6
TORSDOF 5
ENDMDL
MODEL       52
REMARK 921   NORMALIZED FREE ENERGY PREDICTED BY IDOCK:   -5.72 KCAL/MOL
REMARK 922        TOTAL FREE ENERGY PREDICTED BY IDOCK:   -8.41 KCAL/MOL
REMARK 923 INTER-LIGAND FREE ENERGY PREDICTED BY IDOCK:   -7.99 KCAL/MOL
REMARK 924 INTRA-LIGAND FREE ENERGY PREDICTED BY IDOCK:   -0.42 KCAL/MOL
REMARK 927      BINDING AFFINITY PREDICTED BY RF-SCORE:    0.00 PKD
ROOT
HETATM    1  C   UNL     1     -10.181  17.592  68.162  1.00  0.00    -0.371 C  
HETATM    2  N   UNL     1     -11.045  16.944  69.110  1.00  0.00    -0.274 N  
HETATM    3  C   UNL     1     -10.620  15.853  69.839  1.00  0.00    -0.326 C  
HETATM    4  H   UNL     1     -11.992  17.297  69.247  1.00  0.00     0.000 HD 
HETATM    5  O   UNL     1      -9.574  15.253  69.612  1.00  0.00    -0.242 OA 
ENDROOT
BRANCH   3   6
HETATM    6  C   UNL     1     -11.549  15.376  70.910  1.00  0.00    -0.396 A  
HETATM    7  C   UNL     1     -12.125  14.082  70.941  1.00  0.00    -0.329 A  
HETATM    8  C   UNL     1     -12.918  13.736  72.046  1.00  0.00    -0.437 A  
HETATM    9  C   UNL     1     -12.662  15.954  72.989  1.00  0.00    -0.611 A  
HETATM   10  C   UNL     1     -13.175  14.663  73.066  1.00  0.00    -0.587 A  
HETATM   11  C   UNL     1     -11.847  16.308  71.917  1.00  0.00    -0.538 A  
BRANCH   7  12
HETATM   12  S   UNL     1     -12.064  13.026  69.498  1.00  0.00    -0.172 SA 
BRANCH  12  13
HETATM   13  C   UNL     1     -11.929  11.336  70.027  1.00  0.00    -0.368 A  
HETATM   14  C   UNL     1     -10.726  10.684  69.745  1.00  0.00    -0.283 A  
HETATM   15  C   UNL     1     -10.420   9.435  70.298  1.00  0.00    -0.298 A  
HETATM   16  C   UNL     1     -11.341   8.826  71.170  1.00  0.00    -0.345 A  
HETATM   17  C   UNL     1     -12.531   9.497  71.444  1.00  0.00    -0.362 A  
HETATM   18  C   UNL     1     -12.870  10.740  70.879  1.00  0.00    -0.443 A  
HETATM   19  N   UNL     1     -13.175   8.709  72.358  1.00  0.00    -0.552 NA 
HETATM   20  N   UNL     1     -12.516   7.590  72.690  1.00  0.00     0.085 NA 
HETATM   21  H   UNL     1     -14.083   8.952  72.755  1.00  0.00     0.000 HD 
HETATM   22  C   UNL     1     -11.403   7.624  71.945  1.00  0.00    -0.266 A  
BRANCH  22  23
HETATM   23  C   UNL     1     -10.449   6.554  71.983  1.00  0.00    -0.227 C  
HETATM   24  C   UNL     1      -9.919   6.003  73.091  1.00  0.00    -0.187 C  
BRANCH  24  25
HETATM   25  C   UNL     1      -8.866   4.979  73.089  1.00  0.00    -0.111 A  
HETATM   26  C   UNL     1      -7.980   4.893  74.160  1.00  0.00    -0.101 A  
HETATM   27  C   UNL     1      -6.941   3.967  74.105  1.00  0.00    -0.060 A  
HETATM   28  C   UNL     1      -6.817   3.152  72.987  1.00  0.00    -0.034 A  
HETATM   29  C   UNL     1      -7.749   3.291  71.974  1.00  0.00    -0.054 A  
HETATM   30  N   UNL     1      -8.768   4.179  72.002  1.00  0.00    -0.105 NA 
ENDBRANCH  24  25
ENDBRANCH  22  23
ENDBRANCH  12  13
ENDBRANCH   7  12
ENDBRANCH   3   6
TORSDOF 5
ENDMDL
MODEL       53
REMARK 921   NORMALIZED FREE ENERGY PREDICTED BY IDOCK:   -5.70 KCAL/MOL
REMARK 922        TOTAL FREE ENERGY PREDICTED BY IDOCK:   -8.38 KCAL/MOL
REMARK 923 INTER-LIGAND FREE ENERGY PREDICTED BY IDOCK:   -7.92 KCAL/MOL
REMARK 924 INTRA-LIGAND FREE ENERGY PREDICTED BY IDOCK:   -0.47 KCAL/MOL
REMARK 927      BINDING AFFINITY PREDICTED BY RF-SCORE:    0.00 PKD
ROOT
HETATM    1  C   UNL     1     -10.995   4.512  64.962  1.00  0.00     0.031 C  
HETATM    2  N   UNL     1     -11.153   5.441  66.048  1.00  0.00    -0.789 N  
HETATM    3  C   UNL     1     -10.357   5.373  67.172  1.00  0.00    -0.236 C  
HETATM    4  H   UNL     1     -11.870   6.164  65.987  1.00  0.00     0.000 HD 
HETATM    5  O   UNL     1      -9.602   4.436  67.411  1.00  0.00    -0.162 OA 
ENDROOT
BRANCH   3   6
HETATM    6  C   UNL     1     -10.506   6.494  68.151  1.00  0.00    -0.264 A  
HETATM    7  C   UNL     1     -10.190   7.844  67.864  1.00  0.00    -0.209 A  
HETATM    8  C   UNL     1     -10.451   8.810  68.848  1.00  0.00    -0.217 A  
HETATM    9  C   UNL     1     -11.205   7.104  70.394  1.00  0.00    -0.320 A  
HETATM   10  C   UNL     1     -10.964   8.442  70.099  1.00  0.00    -0.216 A  
HETATM   11  C   UNL     1     -10.982   6.133  69.421  1.00  0.00    -0.454 A  
BRANCH   7  12
HETATM   12  S   UNL     1      -9.242   8.265  66.405  1.00  0.00    -0.205 SA 
BRANCH  12  13
HETATM   13  C   UNL     1      -8.943  10.016  66.398  1.00  0.00    -0.144 A  
HETATM   14  C   UNL     1     -10.068  10.845  66.408  1.00  0.00    -0.280 A  
HETATM   15  C   UNL     1      -9.962  12.224  66.622  1.00  0.00    -0.229 A  
HETATM   16  C   UNL     1      -8.693  12.788  66.847  1.00  0.00    -0.169 A  
HETATM   17  C   UNL     1      -7.586  11.943  66.841  1.00  0.00    -0.093 A  
HETATM   18  C   UNL     1      -7.667  10.559  66.601  1.00  0.00    -0.123 A  
HETATM   19  N   UNL     1      -6.526  12.751  67.152  1.00  0.00    -0.442 NA 
HETATM   20  N   UNL     1      -6.847  14.038  67.348  1.00  0.00    -0.226 NA 
HETATM   21  H   UNL     1      -5.571  12.403  67.229  1.00  0.00     0.000 HD 
HETATM   22  C   UNL     1      -8.168  14.089  67.130  1.00  0.00    -0.125 A  
BRANCH  22  23
HETATM   23  C   UNL     1      -8.885  15.330  67.196  1.00  0.00    -0.232 C  
HETATM   24  C   UNL     1      -8.386  16.550  66.923  1.00  0.00    -0.245 C  
BRANCH  24  25
HETATM   25  C   UNL     1      -9.122  17.809  67.103  1.00  0.00    -0.246 A  
HETATM   26  C   UNL     1      -9.330  18.313  68.384  1.00  0.00    -0.328 A  
HETATM   27  C   UNL     1     -10.095  19.466  68.539  1.00  0.00    -0.527 A  
HETATM   28  C   UNL     1     -10.626  20.086  67.416  1.00  0.00    -0.441 A  
HETATM   29  C   UNL     1     -10.357  19.529  66.178  1.00  0.00    -0.520 A  
HETATM   30  N   UNL     1      -9.617  18.412  65.997  1.00  0.00    -0.507 NA 
ENDBRANCH  24  25
ENDBRANCH  22  23
ENDBRANCH  12  13
ENDBRANCH   7  12
ENDBRANCH   3   6
TORSDOF 5
ENDMDL
MODEL       54
REMARK 921   NORMALIZED FREE ENERGY PREDICTED BY IDOCK:   -5.69 KCAL/MOL
REMARK 922        TOTAL FREE ENERGY PREDICTED BY IDOCK:   -8.38 KCAL/MOL
REMARK 923 INTER-LIGAND FREE ENERGY PREDICTED BY IDOCK:   -7.41 KCAL/MOL
REMARK 924 INTRA-LIGAND FREE ENERGY PREDICTED BY IDOCK:   -0.97 KCAL/MOL
REMARK 927      BINDING AFFINITY PREDICTED BY RF-SCORE:    0.00 PKD
ROOT
HETATM    1  C   UNL     1      -9.915  13.516  67.994  1.00  0.00    -0.248 C  
HETATM    2  N   UNL     1     -10.335  13.932  69.305  1.00  0.00    -0.435 N  
HETATM    3  C   UNL     1     -11.513  14.624  69.494  1.00  0.00    -0.297 C  
HETATM    4  H   UNL     1      -9.751  13.712  70.111  1.00  0.00     0.000 HD 
HETATM    5  O   UNL     1     -12.181  15.087  68.575  1.00  0.00    -0.189 OA 
ENDROOT
BRANCH   3   6
HETATM    6  C   UNL     1     -11.920  14.850  70.916  1.00  0.00    -0.374 A  
HETATM    7  C   UNL     1     -12.679  13.929  71.679  1.00  0.00    -0.330 A  
HETATM    8  C   UNL     1     -12.926  14.231  73.027  1.00  0.00    -0.512 A  
HETATM    9  C   UNL     1     -11.794  16.362  72.811  1.00  0.00    -0.531 A  
HETATM   10  C   UNL     1     -12.477  15.434  73.590  1.00  0.00    -0.715 A  
HETATM   11  C   UNL     1     -11.511  16.069  71.479  1.00  0.00    -0.459 A  
BRANCH   7  12
HETATM   12  S   UNL     1     -13.520  12.565  70.883  1.00  0.00     1.105 SA 
BRANCH  12  13
HETATM   13  C   UNL     1     -12.587  11.078  71.153  1.00  0.00    -0.418 A  
HETATM   14  C   UNL     1     -13.132  10.147  72.041  1.00  0.00    -0.538 A  
HETATM   15  C   UNL     1     -12.606   8.856  72.167  1.00  0.00    -0.467 A  
HETATM   16  C   UNL     1     -11.508   8.482  71.371  1.00  0.00    -0.344 A  
HETATM   17  C   UNL     1     -10.984   9.423  70.487  1.00  0.00    -0.274 A  
HETATM   18  C   UNL     1     -11.481  10.733  70.363  1.00  0.00    -0.397 A  
HETATM   19  N   UNL     1      -9.993   8.760  69.816  1.00  0.00    -0.186 NA 
HETATM   20  N   UNL     1      -9.825   7.484  70.192  1.00  0.00    -0.180 NA 
HETATM   21  H   UNL     1      -9.429   9.199  69.089  1.00  0.00     0.000 HD 
HETATM   22  C   UNL     1     -10.721   7.304  71.172  1.00  0.00    -0.228 A  
BRANCH  22  23
HETATM   23  C   UNL     1     -10.814   6.056  71.874  1.00  0.00    -0.304 C  
HETATM   24  C   UNL     1      -9.846   5.491  72.620  1.00  0.00    -0.185 C  
BRANCH  24  25
HETATM   25  C   UNL     1      -9.941   4.163  73.239  1.00  0.00    -0.136 A  
HETATM   26  C   UNL     1     -11.131   3.444  73.158  1.00  0.00    -0.171 A  
HETATM   27  C   UNL     1     -11.226   2.220  73.816  1.00  0.00    -0.293 A  
HETATM   28  C   UNL     1     -10.134   1.747  74.532  1.00  0.00    -0.143 A  
HETATM   29  C   UNL     1      -8.984   2.517  74.548  1.00  0.00    -0.074 A  
HETATM   30  N   UNL     1      -8.863   3.706  73.917  1.00  0.00    -0.088 NA 
ENDBRANCH  24  25
ENDBRANCH  22  23
ENDBRANCH  12  13
ENDBRANCH   7  12
ENDBRANCH   3   6
TORSDOF 5
ENDMDL
MODEL       55
REMARK 921   NORMALIZED FREE ENERGY PREDICTED BY IDOCK:   -5.66 KCAL/MOL
REMARK 922        TOTAL FREE ENERGY PREDICTED BY IDOCK:   -8.33 KCAL/MOL
REMARK 923 INTER-LIGAND FREE ENERGY PREDICTED BY IDOCK:   -7.29 KCAL/MOL
REMARK 924 INTRA-LIGAND FREE ENERGY PREDICTED BY IDOCK:   -1.04 KCAL/MOL
REMARK 927      BINDING AFFINITY PREDICTED BY RF-SCORE:    0.00 PKD
ROOT
HETATM    1  C   UNL     1     -11.902  14.091  69.297  1.00  0.00    -0.344 C  
HETATM    2  N   UNL     1     -11.652  12.877  70.026  1.00  0.00    -0.525 N  
HETATM    3  C   UNL     1     -11.762  11.642  69.424  1.00  0.00    -0.340 C  
HETATM    4  H   UNL     1     -11.387  12.931  71.010  1.00  0.00     0.000 HD 
HETATM    5  O   UNL     1     -12.246  11.474  68.309  1.00  0.00    -0.561 OA 
ENDROOT
BRANCH   3   6
HETATM    6  C   UNL     1     -11.313  10.471  70.239  1.00  0.00    -0.407 A  
HETATM    7  C   UNL     1     -10.142   9.720  69.970  1.00  0.00    -0.257 A  
HETATM    8  C   UNL     1      -9.794   8.693  70.860  1.00  0.00    -0.256 A  
HETATM    9  C   UNL     1     -11.793   9.084  72.172  1.00  0.00    -0.384 A  
HETATM   10  C   UNL     1     -10.609   8.386  71.959  1.00  0.00    -0.387 A  
HETATM   11  C   UNL     1     -12.142  10.127  71.318  1.00  0.00    -0.489 A  
BRANCH   7  12
HETATM   12  S   UNL     1      -9.289   9.898  68.406  1.00  0.00    -0.135 SA 
BRANCH  12  13
HETATM   13  C   UNL     1      -8.238  11.328  68.484  1.00  0.00    -0.150 A  
HETATM   14  C   UNL     1      -8.623  12.432  67.719  1.00  0.00    -0.172 A  
HETATM   15  C   UNL     1      -8.004  13.679  67.864  1.00  0.00    -0.161 A  
HETATM   16  C   UNL     1      -6.977  13.828  68.814  1.00  0.00    -0.109 A  
HETATM   17  C   UNL     1      -6.614  12.716  69.571  1.00  0.00    -0.032 A  
HETATM   18  C   UNL     1      -7.204  11.448  69.423  1.00  0.00    -0.030 A  
HETATM   19  N   UNL     1      -5.661  13.179  70.438  1.00  0.00    -0.160 NA 
HETATM   20  N   UNL     1      -5.371  14.481  70.302  1.00  0.00    -0.100 NA 
HETATM   21  H   UNL     1      -5.208  12.582  71.130  1.00  0.00     0.000 HD 
HETATM   22  C   UNL     1      -6.142  14.890  69.285  1.00  0.00    -0.107 A  
BRANCH  22  23
HETATM   23  C   UNL     1      -6.078  16.238  68.800  1.00  0.00    -0.116 C  
HETATM   24  C   UNL     1      -6.831  17.270  69.222  1.00  0.00    -0.208 C  
BRANCH  24  25
HETATM   25  C   UNL     1      -6.811  18.614  68.629  1.00  0.00    -0.275 A  
HETATM   26  C   UNL     1      -7.453  18.845  67.415  1.00  0.00    -0.244 A  
HETATM   27  C   UNL     1      -7.357  20.106  66.830  1.00  0.00    -0.304 A  
HETATM   28  C   UNL     1      -6.629  21.099  67.473  1.00  0.00    -0.428 A  
HETATM   29  C   UNL     1      -6.035  20.790  68.684  1.00  0.00    -0.346 A  
HETATM   30  N   UNL     1      -6.114  19.576  69.275  1.00  0.00    -0.267 NA 
ENDBRANCH  24  25
ENDBRANCH  22  23
ENDBRANCH  12  13
ENDBRANCH   7  12
ENDBRANCH   3   6
TORSDOF 5
ENDMDL
MODEL       56
REMARK 921   NORMALIZED FREE ENERGY PREDICTED BY IDOCK:   -5.62 KCAL/MOL
REMARK 922        TOTAL FREE ENERGY PREDICTED BY IDOCK:   -8.28 KCAL/MOL
REMARK 923 INTER-LIGAND FREE ENERGY PREDICTED BY IDOCK:   -7.34 KCAL/MOL
REMARK 924 INTRA-LIGAND FREE ENERGY PREDICTED BY IDOCK:   -0.95 KCAL/MOL
REMARK 927      BINDING AFFINITY PREDICTED BY RF-SCORE:    0.00 PKD
ROOT
HETATM    1  C   UNL     1      -5.132   4.829  73.526  1.00  0.00    -0.008 C  
HETATM    2  N   UNL     1      -6.031   4.555  72.438  1.00  0.00    -0.015 N  
HETATM    3  C   UNL     1      -6.598   5.574  71.702  1.00  0.00    -0.052 C  
HETATM    4  H   UNL     1      -6.253   3.587  72.205  1.00  0.00     0.000 HD 
HETATM    5  O   UNL     1      -6.533   6.757  72.021  1.00  0.00    -0.052 OA 
ENDROOT
BRANCH   3   6
HETATM    6  C   UNL     1      -7.377   5.157  70.495  1.00  0.00    -0.066 A  
HETATM    7  C   UNL     1      -8.776   4.930  70.495  1.00  0.00    -0.108 A  
HETATM    8  C   UNL     1      -9.396   4.619  69.275  1.00  0.00    -0.207 A  
HETATM    9  C   UNL     1      -7.263   4.644  68.125  1.00  0.00    -0.065 A  
HETATM   10  C   UNL     1      -8.645   4.488  68.098  1.00  0.00    -0.110 A  
HETATM   11  C   UNL     1      -6.631   4.983  69.319  1.00  0.00    -0.047 A  
BRANCH   7  12
HETATM   12  S   UNL     1      -9.672   4.778  72.036  1.00  0.00    -0.169 SA 
BRANCH  12  13
HETATM   13  C   UNL     1     -10.763   6.170  72.207  1.00  0.00    -0.229 A  
HETATM   14  C   UNL     1     -10.169   7.399  72.503  1.00  0.00    -0.261 A  
HETATM   15  C   UNL     1     -10.892   8.597  72.446  1.00  0.00    -0.312 A  
HETATM   16  C   UNL     1     -12.247   8.563  72.069  1.00  0.00    -0.429 A  
HETATM   17  C   UNL     1     -12.817   7.327  71.771  1.00  0.00    -0.331 A  
HETATM   18  C   UNL     1     -12.116   6.110  71.847  1.00  0.00    -0.225 A  
HETATM   19  N   UNL     1     -14.095   7.616  71.377  1.00  0.00    -0.595 NA 
HETATM   20  N   UNL     1     -14.403   8.921  71.404  1.00  0.00    -0.232 NA 
HETATM   21  H   UNL     1     -14.760   6.899  71.087  1.00  0.00     0.000 HD 
HETATM   22  C   UNL     1     -13.294   9.517  71.861  1.00  0.00    -0.437 A  
BRANCH  22  23
HETATM   23  C   UNL     1     -13.246  10.934  72.079  1.00  0.00    -0.456 C  
HETATM   24  C   UNL     1     -12.887  11.864  71.175  1.00  0.00    -0.346 C  
BRANCH  24  25
HETATM   25  C   UNL     1     -12.750  13.297  71.466  1.00  0.00    -0.281 A  
HETATM   26  C   UNL     1     -13.268  13.818  72.649  1.00  0.00    -0.571 A  
HETATM   27  C   UNL     1     -13.197  15.190  72.871  1.00  0.00    -0.600 A  
HETATM   28  C   UNL     1     -12.608  16.004  71.912  1.00  0.00    -0.433 A  
HETATM   29  C   UNL     1     -12.103  15.404  70.772  1.00  0.00    -0.366 A  
HETATM   30  N   UNL     1     -12.157  14.075  70.531  1.00  0.00    -0.337 NA 
ENDBRANCH  24  25
ENDBRANCH  22  23
ENDBRANCH  12  13
ENDBRANCH   7  12
ENDBRANCH   3   6
TORSDOF 5
ENDMDL
MODEL       57
REMARK 921   NORMALIZED FREE ENERGY PREDICTED BY IDOCK:   -5.62 KCAL/MOL
REMARK 922        TOTAL FREE ENERGY PREDICTED BY IDOCK:   -8.28 KCAL/MOL
REMARK 923 INTER-LIGAND FREE ENERGY PREDICTED BY IDOCK:   -7.57 KCAL/MOL
REMARK 924 INTRA-LIGAND FREE ENERGY PREDICTED BY IDOCK:   -0.71 KCAL/MOL
REMARK 927      BINDING AFFINITY PREDICTED BY RF-SCORE:    0.00 PKD
ROOT
HETATM    1  C   UNL     1      -9.887  18.663  68.303  1.00  0.00    -0.371 C  
HETATM    2  N   UNL     1     -10.782  17.714  68.907  1.00  0.00    -0.325 N  
HETATM    3  C   UNL     1     -10.316  16.541  69.461  1.00  0.00    -0.266 C  
HETATM    4  H   UNL     1     -11.782  17.913  68.928  1.00  0.00     0.000 HD 
HETATM    5  O   UNL     1      -9.165  16.137  69.322  1.00  0.00    -0.255 OA 
ENDROOT
BRANCH   3   6
HETATM    6  C   UNL     1     -11.321  15.721  70.206  1.00  0.00    -0.371 A  
HETATM    7  C   UNL     1     -12.027  14.629  69.643  1.00  0.00    -0.323 A  
HETATM    8  C   UNL     1     -12.885  13.894  70.476  1.00  0.00    -0.250 A  
HETATM    9  C   UNL     1     -12.432  15.379  72.337  1.00  0.00    -0.463 A  
HETATM   10  C   UNL     1     -13.077  14.262  71.815  1.00  0.00    -0.435 A  
HETATM   11  C   UNL     1     -11.552  16.103  71.536  1.00  0.00    -0.502 A  
BRANCH   7  12
HETATM   12  S   UNL     1     -12.031  14.365  67.873  1.00  0.00    -0.258 SA 
BRANCH  12  13
HETATM   13  C   UNL     1     -11.149  12.865  67.513  1.00  0.00    -0.269 A  
HETATM   14  C   UNL     1     -11.629  11.697  68.112  1.00  0.00    -0.389 A  
HETATM   15  C   UNL     1     -11.158  10.433  67.737  1.00  0.00    -0.365 A  
HETATM   16  C   UNL     1     -10.187  10.335  66.723  1.00  0.00    -0.286 A  
HETATM   17  C   UNL     1      -9.728  11.512  66.135  1.00  0.00    -0.223 A  
HETATM   18  C   UNL     1     -10.168  12.793  66.515  1.00  0.00    -0.261 A  
HETATM   19  N   UNL     1      -8.863  11.101  65.158  1.00  0.00    -0.366 NA 
HETATM   20  N   UNL     1      -8.716   9.771  65.069  1.00  0.00    -0.161 NA 
HETATM   21  H   UNL     1      -8.371  11.752  64.547  1.00  0.00     0.000 HD 
HETATM   22  C   UNL     1      -9.492   9.283  66.046  1.00  0.00    -0.247 A  
BRANCH  22  23
HETATM   23  C   UNL     1      -9.562   7.875  66.306  1.00  0.00    -0.200 C  
HETATM   24  C   UNL     1      -8.661   6.951  65.923  1.00  0.00    -0.146 C  
BRANCH  24  25
HETATM   25  C   UNL     1      -8.819   5.504  66.117  1.00  0.00    -0.139 A  
HETATM   26  C   UNL     1      -8.753   4.965  67.400  1.00  0.00    -0.103 A  
HETATM   27  C   UNL     1      -8.828   3.583  67.556  1.00  0.00    -0.147 A  
HETATM   28  C   UNL     1      -8.971   2.779  66.432  1.00  0.00    -0.153 A  
HETATM   29  C   UNL     1      -9.044   3.397  65.196  1.00  0.00    -0.144 A  
HETATM   30  N   UNL     1      -8.976   4.735  65.015  1.00  0.00    -0.152 NA 
ENDBRANCH  24  25
ENDBRANCH  22  23
ENDBRANCH  12  13
ENDBRANCH   7  12
ENDBRANCH   3   6
TORSDOF 5
ENDMDL
MODEL       58
REMARK 921   NORMALIZED FREE ENERGY PREDICTED BY IDOCK:   -5.61 KCAL/MOL
REMARK 922        TOTAL FREE ENERGY PREDICTED BY IDOCK:   -8.28 KCAL/MOL
REMARK 923 INTER-LIGAND FREE ENERGY PREDICTED BY IDOCK:   -7.59 KCAL/MOL
REMARK 924 INTRA-LIGAND FREE ENERGY PREDICTED BY IDOCK:   -0.69 KCAL/MOL
REMARK 927      BINDING AFFINITY PREDICTED BY RF-SCORE:    0.00 PKD
ROOT
HETATM    1  C   UNL     1     -10.476   7.248  71.482  1.00  0.00    -0.202 C  
HETATM    2  N   UNL     1      -9.949   7.234  70.144  1.00  0.00    -0.183 N  
HETATM    3  C   UNL     1      -8.929   8.080  69.766  1.00  0.00    -0.145 C  
HETATM    4  H   UNL     1     -10.338   6.585  69.461  1.00  0.00     0.000 HD 
HETATM    5  O   UNL     1      -8.528   9.010  70.460  1.00  0.00    -0.159 OA 
ENDROOT
BRANCH   3   6
HETATM    6  C   UNL     1      -8.356   7.852  68.403  1.00  0.00    -0.124 A  
HETATM    7  C   UNL     1      -8.963   8.300  67.204  1.00  0.00    -0.138 A  
HETATM    8  C   UNL     1      -8.281   8.088  65.996  1.00  0.00    -0.120 A  
HETATM    9  C   UNL     1      -6.505   6.909  67.149  1.00  0.00    -0.049 A  
HETATM   10  C   UNL     1      -7.056   7.406  65.972  1.00  0.00    -0.066 A  
HETATM   11  C   UNL     1      -7.150   7.136  68.362  1.00  0.00    -0.085 A  
BRANCH   7  12
HETATM   12  S   UNL     1     -10.659   8.872  67.202  1.00  0.00    -0.151 SA 
BRANCH  12  13
HETATM   13  C   UNL     1     -10.716  10.505  67.900  1.00  0.00    -0.260 A  
HETATM   14  C   UNL     1     -10.310  11.555  67.074  1.00  0.00    -0.254 A  
HETATM   15  C   UNL     1     -10.514  12.893  67.431  1.00  0.00    -0.235 A  
HETATM   16  C   UNL     1     -11.157  13.187  68.648  1.00  0.00    -0.304 A  
HETATM   17  C   UNL     1     -11.560  12.125  69.454  1.00  0.00    -0.317 A  
HETATM   18  C   UNL     1     -11.341  10.775  69.126  1.00  0.00    -0.348 A  
HETATM   19  N   UNL     1     -12.204  12.710  70.510  1.00  0.00    -0.411 NA 
HETATM   20  N   UNL     1     -12.243  14.050  70.463  1.00  0.00    -0.343 NA 
HETATM   21  H   UNL     1     -12.619  12.173  71.270  1.00  0.00     0.000 HD 
HETATM   22  C   UNL     1     -11.574  14.365  69.346  1.00  0.00    -0.304 A  
BRANCH  22  23
HETATM   23  C   UNL     1     -11.355  15.732  68.971  1.00  0.00    -0.354 C  
HETATM   24  C   UNL     1     -10.811  16.161  67.817  1.00  0.00    -0.318 C  
BRANCH  24  25
HETATM   25  C   UNL     1     -10.506  17.565  67.512  1.00  0.00    -0.355 A  
HETATM   26  C   UNL     1     -10.147  18.435  68.538  1.00  0.00    -0.413 A  
HETATM   27  C   UNL     1      -9.936  19.779  68.240  1.00  0.00    -0.557 A  
HETATM   28  C   UNL     1     -10.086  20.216  66.931  1.00  0.00    -0.592 A  
HETATM   29  C   UNL     1     -10.429  19.283  65.969  1.00  0.00    -0.487 A  
HETATM   30  N   UNL     1     -10.637  17.972  66.229  1.00  0.00    -0.314 NA 
ENDBRANCH  24  25
ENDBRANCH  22  23
ENDBRANCH  12  13
ENDBRANCH   7  12
ENDBRANCH   3   6
TORSDOF 5
ENDMDL
MODEL       59
REMARK 921   NORMALIZED FREE ENERGY PREDICTED BY IDOCK:   -5.61 KCAL/MOL
REMARK 922        TOTAL FREE ENERGY PREDICTED BY IDOCK:   -8.27 KCAL/MOL
REMARK 923 INTER-LIGAND FREE ENERGY PREDICTED BY IDOCK:   -7.27 KCAL/MOL
REMARK 924 INTRA-LIGAND FREE ENERGY PREDICTED BY IDOCK:   -1.00 KCAL/MOL
REMARK 927      BINDING AFFINITY PREDICTED BY RF-SCORE:    0.00 PKD
ROOT
HETATM    1  C   UNL     1      -8.580  10.203  63.825  1.00  0.00    -0.200 C  
HETATM    2  N   UNL     1      -8.631  10.306  65.258  1.00  0.00    -0.158 N  
HETATM    3  C   UNL     1      -8.863   9.201  66.049  1.00  0.00    -0.168 C  
HETATM    4  H   UNL     1      -8.493  11.215  65.699  1.00  0.00     0.000 HD 
HETATM    5  O   UNL     1      -9.217   8.113  65.605  1.00  0.00    -0.108 OA 
ENDROOT
BRANCH   3   6
HETATM    6  C   UNL     1      -8.724   9.407  67.524  1.00  0.00    -0.123 A  
HETATM    7  C   UNL     1      -9.768   9.872  68.360  1.00  0.00    -0.149 A  
HETATM    8  C   UNL     1      -9.528   9.946  69.741  1.00  0.00    -0.254 A  
HETATM    9  C   UNL     1      -7.234   9.231  69.431  1.00  0.00    -0.068 A  
HETATM   10  C   UNL     1      -8.273   9.618  70.272  1.00  0.00    -0.217 A  
HETATM   11  C   UNL     1      -7.460   9.120  68.062  1.00  0.00    -0.084 A  
BRANCH   7  12
HETATM   12  S   UNL     1     -11.247  10.592  67.654  1.00  0.00    -0.204 SA 
BRANCH  12  13
HETATM   13  C   UNL     1     -10.950  12.315  67.335  1.00  0.00    -0.253 A  
HETATM   14  C   UNL     1      -9.887  12.906  68.021  1.00  0.00    -0.223 A  
HETATM   15  C   UNL     1      -9.422  14.186  67.695  1.00  0.00    -0.213 A  
HETATM   16  C   UNL     1     -10.034  14.889  66.641  1.00  0.00    -0.267 A  
HETATM   17  C   UNL     1     -11.088  14.278  65.965  1.00  0.00    -0.319 A  
HETATM   18  C   UNL     1     -11.587  13.005  66.294  1.00  0.00    -0.408 A  
HETATM   19  N   UNL     1     -11.422  15.156  64.970  1.00  0.00    -0.361 NA 
HETATM   20  N   UNL     1     -10.688  16.277  64.949  1.00  0.00    -0.685 NA 
HETATM   21  H   UNL     1     -12.169  14.972  64.300  1.00  0.00     0.000 HD 
HETATM   22  C   UNL     1      -9.854  16.150  65.989  1.00  0.00    -0.347 A  
BRANCH  22  23
HETATM   23  C   UNL     1      -8.928  17.191  66.331  1.00  0.00    -0.291 C  
HETATM   24  C   UNL     1      -8.880  17.858  67.499  1.00  0.00    -0.248 C  
BRANCH  24  25
HETATM   25  C   UNL     1      -7.985  18.990  67.775  1.00  0.00    -0.263 A  
HETATM   26  C   UNL     1      -7.675  19.892  66.761  1.00  0.00    -0.317 A  
HETATM   27  C   UNL     1      -6.765  20.914  67.021  1.00  0.00    -0.396 A  
HETATM   28  C   UNL     1      -6.194  21.009  68.283  1.00  0.00    -0.311 A  
HETATM   29  C   UNL     1      -6.568  20.081  69.239  1.00  0.00    -0.311 A  
HETATM   30  N   UNL     1      -7.450  19.081  69.015  1.00  0.00    -0.326 NA 
ENDBRANCH  24  25
ENDBRANCH  22  23
ENDBRANCH  12  13
ENDBRANCH   7  12
ENDBRANCH   3   6
TORSDOF 5
ENDMDL
MODEL       60
REMARK 921   NORMALIZED FREE ENERGY PREDICTED BY IDOCK:   -5.59 KCAL/MOL
REMARK 922        TOTAL FREE ENERGY PREDICTED BY IDOCK:   -8.25 KCAL/MOL
REMARK 923 INTER-LIGAND FREE ENERGY PREDICTED BY IDOCK:   -7.29 KCAL/MOL
REMARK 924 INTRA-LIGAND FREE ENERGY PREDICTED BY IDOCK:   -0.96 KCAL/MOL
REMARK 927      BINDING AFFINITY PREDICTED BY RF-SCORE:    0.00 PKD
ROOT
HETATM    1  C   UNL     1      -9.467   4.074  69.383  1.00  0.00    -0.189 C  
HETATM    2  N   UNL     1      -8.879   4.964  68.419  1.00  0.00    -0.101 N  
HETATM    3  C   UNL     1      -9.658   5.765  67.612  1.00  0.00    -0.114 C  
HETATM    4  H   UNL     1      -7.863   5.003  68.329  1.00  0.00     0.000 HD 
HETATM    5  O   UNL     1     -10.877   5.653  67.523  1.00  0.00    -0.233 OA 
ENDROOT
BRANCH   3   6
HETATM    6  C   UNL     1      -8.926   6.764  66.774  1.00  0.00    -0.141 A  
HETATM    7  C   UNL     1      -8.640   8.088  67.188  1.00  0.00    -0.124 A  
HETATM    8  C   UNL     1      -7.876   8.899  66.335  1.00  0.00    -0.103 A  
HETATM    9  C   UNL     1      -7.798   7.151  64.660  1.00  0.00    -0.123 A  
HETATM   10  C   UNL     1      -7.451   8.429  65.085  1.00  0.00    -0.084 A  
HETATM   11  C   UNL     1      -8.529   6.319  65.504  1.00  0.00    -0.145 A  
BRANCH   7  12
HETATM   12  S   UNL     1      -9.451   8.787  68.623  1.00  0.00    -0.142 SA 
BRANCH  12  13
HETATM   13  C   UNL     1     -10.088  10.390  68.200  1.00  0.00    -0.155 A  
HETATM   14  C   UNL     1      -9.358  11.494  68.648  1.00  0.00    -0.142 A  
HETATM   15  C   UNL     1      -9.635  12.790  68.198  1.00  0.00    -0.223 A  
HETATM   16  C   UNL     1     -10.666  12.985  67.261  1.00  0.00    -0.261 A  
HETATM   17  C   UNL     1     -11.376  11.870  66.821  1.00  0.00    -0.330 A  
HETATM   18  C   UNL     1     -11.132  10.563  67.280  1.00  0.00    -0.284 A  
HETATM   19  N   UNL     1     -12.245  12.356  65.882  1.00  0.00    -0.632 NA 
HETATM   20  N   UNL     1     -12.167  13.679  65.685  1.00  0.00    -0.423 NA 
HETATM   21  H   UNL     1     -12.899  11.760  65.375  1.00  0.00     0.000 HD 
HETATM   22  C   UNL     1     -11.228  14.091  66.547  1.00  0.00    -0.322 A  
BRANCH  22  23
HETATM   23  C   UNL     1     -10.889  15.479  66.671  1.00  0.00    -0.285 C  
HETATM   24  C   UNL     1      -9.892  16.113  66.028  1.00  0.00    -0.375 C  
BRANCH  24  25
HETATM   25  C   UNL     1      -9.509  17.512  66.259  1.00  0.00    -0.219 A  
HETATM   26  C   UNL     1     -10.480  18.449  66.604  1.00  0.00    -0.415 A  
HETATM   27  C   UNL     1     -10.110  19.784  66.743  1.00  0.00    -0.564 A  
HETATM   28  C   UNL     1      -8.785  20.147  66.540  1.00  0.00    -0.338 A  
HETATM   29  C   UNL     1      -7.880  19.151  66.216  1.00  0.00    -0.293 A  
HETATM   30  N   UNL     1      -8.211  17.848  66.076  1.00  0.00    -0.527 NA 
ENDBRANCH  24  25
ENDBRANCH  22  23
ENDBRANCH  12  13
ENDBRANCH   7  12
ENDBRANCH   3   6
TORSDOF 5
ENDMDL
MODEL       61
REMARK 921   NORMALIZED FREE ENERGY PREDICTED BY IDOCK:   -5.56 KCAL/MOL
REMARK 922        TOTAL FREE ENERGY PREDICTED BY IDOCK:   -8.21 KCAL/MOL
REMARK 923 INTER-LIGAND FREE ENERGY PREDICTED BY IDOCK:   -7.64 KCAL/MOL
REMARK 924 INTRA-LIGAND FREE ENERGY PREDICTED BY IDOCK:   -0.57 KCAL/MOL
REMARK 927      BINDING AFFINITY PREDICTED BY RF-SCORE:    0.00 PKD
ROOT
HETATM    1  C   UNL     1      -8.028   5.297  68.500  1.00  0.00    -0.087 C  
HETATM    2  N   UNL     1      -8.535   6.232  67.533  1.00  0.00    -0.109 N  
HETATM    3  C   UNL     1      -8.128   7.549  67.526  1.00  0.00    -0.113 C  
HETATM    4  H   UNL     1      -9.211   5.915  66.838  1.00  0.00     0.000 HD 
HETATM    5  O   UNL     1      -7.466   8.058  68.426  1.00  0.00    -0.098 OA 
ENDROOT
BRANCH   3   6
HETATM    6  C   UNL     1      -8.597   8.376  66.371  1.00  0.00    -0.139 A  
HETATM    7  C   UNL     1      -9.643   9.327  66.451  1.00  0.00    -0.238 A  
HETATM    8  C   UNL     1      -9.931  10.093  65.311  1.00  0.00    -0.381 A  
HETATM    9  C   UNL     1      -8.258   8.901  64.026  1.00  0.00    -0.168 A  
HETATM   10  C   UNL     1      -9.236   9.887  64.111  1.00  0.00    -0.312 A  
HETATM   11  C   UNL     1      -7.935   8.152  65.154  1.00  0.00    -0.126 A  
BRANCH   7  12
HETATM   12  S   UNL     1     -10.735   9.360  67.869  1.00  0.00    -0.160 SA 
BRANCH  12  13
HETATM   13  C   UNL     1     -10.765  11.007  68.534  1.00  0.00    -0.202 A  
HETATM   14  C   UNL     1      -9.943  11.950  67.911  1.00  0.00    -0.195 A  
HETATM   15  C   UNL     1     -10.042  13.316  68.201  1.00  0.00    -0.241 A  
HETATM   16  C   UNL     1     -11.001  13.752  69.134  1.00  0.00    -0.246 A  
HETATM   17  C   UNL     1     -11.815  12.796  69.737  1.00  0.00    -0.310 A  
HETATM   18  C   UNL     1     -11.715  11.416  69.480  1.00  0.00    -0.417 A  
HETATM   19  N   UNL     1     -12.675  13.513  70.523  1.00  0.00    -0.212 NA 
HETATM   20  N   UNL     1     -12.484  14.840  70.488  1.00  0.00    -0.333 NA 
HETATM   21  H   UNL     1     -13.402  13.075  71.089  1.00  0.00     0.000 HD 
HETATM   22  C   UNL     1     -11.437  15.005  69.669  1.00  0.00    -0.294 A  
BRANCH  22  23
HETATM   23  C   UNL     1     -10.891  16.307  69.414  1.00  0.00    -0.331 C  
HETATM   24  C   UNL     1     -10.716  16.871  68.204  1.00  0.00    -0.375 C  
BRANCH  24  25
HETATM   25  C   UNL     1     -10.057  18.163  67.976  1.00  0.00    -0.367 A  
HETATM   26  C   UNL     1     -10.646  19.102  67.133  1.00  0.00    -0.564 A  
HETATM   27  C   UNL     1      -9.969  20.290  66.868  1.00  0.00    -0.592 A  
HETATM   28  C   UNL     1      -8.729  20.510  67.454  1.00  0.00    -0.373 A  
HETATM   29  C   UNL     1      -8.223  19.532  68.293  1.00  0.00    -0.338 A  
HETATM   30  N   UNL     1      -8.859  18.372  68.568  1.00  0.00    -0.318 NA 
ENDBRANCH  24  25
ENDBRANCH  22  23
ENDBRANCH  12  13
ENDBRANCH   7  12
ENDBRANCH   3   6
TORSDOF 5
ENDMDL
MODEL       62
REMARK 921   NORMALIZED FREE ENERGY PREDICTED BY IDOCK:   -5.53 KCAL/MOL
REMARK 922        TOTAL FREE ENERGY PREDICTED BY IDOCK:   -8.17 KCAL/MOL
REMARK 923 INTER-LIGAND FREE ENERGY PREDICTED BY IDOCK:   -7.10 KCAL/MOL
REMARK 924 INTRA-LIGAND FREE ENERGY PREDICTED BY IDOCK:   -1.07 KCAL/MOL
REMARK 927      BINDING AFFINITY PREDICTED BY RF-SCORE:    0.00 PKD
ROOT
HETATM    1  C   UNL     1     -12.781   9.898  71.017  1.00  0.00    -0.334 C  
HETATM    2  N   UNL     1     -12.015   8.899  70.323  1.00  0.00    -0.455 N  
HETATM    3  C   UNL     1     -10.680   9.089  70.037  1.00  0.00    -0.229 C  
HETATM    4  H   UNL     1     -12.468   8.031  70.037  1.00  0.00     0.000 HD 
HETATM    5  O   UNL     1     -10.104  10.164  70.179  1.00  0.00    -0.246 OA 
ENDROOT
BRANCH   3   6
HETATM    6  C   UNL     1      -9.956   7.912  69.466  1.00  0.00    -0.189 A  
HETATM    7  C   UNL     1      -9.783   7.685  68.078  1.00  0.00    -0.152 A  
HETATM    8  C   UNL     1      -9.014   6.581  67.678  1.00  0.00    -0.114 A  
HETATM    9  C   UNL     1      -8.711   5.893  69.981  1.00  0.00    -0.133 A  
HETATM   10  C   UNL     1      -8.475   5.699  68.624  1.00  0.00    -0.105 A  
HETATM   11  C   UNL     1      -9.445   6.999  70.401  1.00  0.00    -0.162 A  
BRANCH   7  12
HETATM   12  S   UNL     1     -10.733   8.615  66.880  1.00  0.00     0.090 SA 
BRANCH  12  13
HETATM   13  C   UNL     1     -10.058  10.253  66.756  1.00  0.00    -0.216 A  
HETATM   14  C   UNL     1     -10.957  11.314  66.891  1.00  0.00    -0.348 A  
HETATM   15  C   UNL     1     -10.517  12.636  67.029  1.00  0.00    -0.244 A  
HETATM   16  C   UNL     1      -9.135  12.901  67.046  1.00  0.00    -0.228 A  
HETATM   17  C   UNL     1      -8.257  11.828  66.917  1.00  0.00    -0.166 A  
HETATM   18  C   UNL     1      -8.677  10.496  66.751  1.00  0.00    -0.136 A  
HETATM   19  N   UNL     1      -7.010  12.379  67.039  1.00  0.00    -0.359 NA 
HETATM   20  N   UNL     1      -7.005  13.707  67.223  1.00  0.00    -0.128 NA 
HETATM   21  H   UNL     1      -6.155  11.825  66.993  1.00  0.00     0.000 HD 
HETATM   22  C   UNL     1      -8.299  14.053  67.194  1.00  0.00    -0.156 A  
BRANCH  22  23
HETATM   23  C   UNL     1      -8.704  15.424  67.309  1.00  0.00    -0.215 C  
HETATM   24  C   UNL     1      -8.954  16.266  66.289  1.00  0.00    -0.366 C  
BRANCH  24  25
HETATM   25  C   UNL     1      -9.266  17.693  66.445  1.00  0.00    -0.244 A  
HETATM   26  C   UNL     1      -8.456  18.496  67.244  1.00  0.00    -0.264 A  
HETATM   27  C   UNL     1      -8.812  19.828  67.442  1.00  0.00    -0.393 A  
HETATM   28  C   UNL     1      -9.959  20.322  66.835  1.00  0.00    -0.592 A  
HETATM   29  C   UNL     1     -10.699  19.460  66.044  1.00  0.00    -0.417 A  
HETATM   30  N   UNL     1     -10.376  18.165  65.833  1.00  0.00    -0.595 NA 
ENDBRANCH  24  25
ENDBRANCH  22  23
ENDBRANCH  12  13
ENDBRANCH   7  12
ENDBRANCH   3   6
TORSDOF 5
ENDMDL
MODEL       63
REMARK 921   NORMALIZED FREE ENERGY PREDICTED BY IDOCK:   -5.52 KCAL/MOL
REMARK 922        TOTAL FREE ENERGY PREDICTED BY IDOCK:   -8.15 KCAL/MOL
REMARK 923 INTER-LIGAND FREE ENERGY PREDICTED BY IDOCK:   -7.19 KCAL/MOL
REMARK 924 INTRA-LIGAND FREE ENERGY PREDICTED BY IDOCK:   -0.96 KCAL/MOL
REMARK 927      BINDING AFFINITY PREDICTED BY RF-SCORE:    0.00 PKD
ROOT
HETATM    1  C   UNL     1      -6.639   7.646  71.881  1.00  0.00    -0.043 C  
HETATM    2  N   UNL     1      -7.636   7.175  70.958  1.00  0.00    -0.084 N  
HETATM    3  C   UNL     1      -8.080   7.964  69.919  1.00  0.00    -0.118 C  
HETATM    4  H   UNL     1      -8.022   6.238  71.074  1.00  0.00     0.000 HD 
HETATM    5  O   UNL     1      -7.810   9.157  69.811  1.00  0.00    -0.075 OA 
ENDROOT
BRANCH   3   6
HETATM    6  C   UNL     1      -8.989   7.301  68.933  1.00  0.00    -0.133 A  
HETATM    7  C   UNL     1     -10.401   7.422  68.950  1.00  0.00    -0.206 A  
HETATM    8  C   UNL     1     -11.131   6.812  67.919  1.00  0.00    -0.262 A  
HETATM    9  C   UNL     1      -9.105   5.891  66.961  1.00  0.00    -0.116 A  
HETATM   10  C   UNL     1     -10.485   6.061  66.927  1.00  0.00    -0.344 A  
HETATM   11  C   UNL     1      -8.358   6.514  67.958  1.00  0.00    -0.116 A  
BRANCH   7  12
HETATM   12  S   UNL     1     -11.237   8.098  70.381  1.00  0.00    -0.172 SA 
BRANCH  12  13
HETATM   13  C   UNL     1     -11.304   9.866  70.227  1.00  0.00    -0.291 A  
HETATM   14  C   UNL     1     -10.835  10.409  69.028  1.00  0.00    -0.273 A  
HETATM   15  C   UNL     1     -11.036  11.756  68.704  1.00  0.00    -0.289 A  
HETATM   16  C   UNL     1     -11.739  12.581  69.602  1.00  0.00    -0.372 A  
HETATM   17  C   UNL     1     -12.204  12.017  70.787  1.00  0.00    -0.286 A  
HETATM   18  C   UNL     1     -11.990  10.674  71.145  1.00  0.00    -0.401 A  
HETATM   19  N   UNL     1     -12.894  13.023  71.407  1.00  0.00    -0.344 NA 
HETATM   20  N   UNL     1     -12.908  14.183  70.734  1.00  0.00    -0.329 NA 
HETATM   21  H   UNL     1     -13.360  12.901  72.306  1.00  0.00     0.000 HD 
HETATM   22  C   UNL     1     -12.174  13.944  69.640  1.00  0.00    -0.321 A  
BRANCH  22  23
HETATM   23  C   UNL     1     -11.911  14.977  68.680  1.00  0.00    -0.325 C  
HETATM   24  C   UNL     1     -10.917  15.883  68.742  1.00  0.00    -0.301 C  
BRANCH  24  25
HETATM   25  C   UNL     1     -10.741  16.991  67.794  1.00  0.00    -0.318 A  
HETATM   26  C   UNL     1     -10.651  18.299  68.266  1.00  0.00    -0.249 A  
HETATM   27  C   UNL     1     -10.563  19.342  67.348  1.00  0.00    -0.603 A  
HETATM   28  C   UNL     1     -10.563  19.054  65.990  1.00  0.00    -0.499 A  
HETATM   29  C   UNL     1     -10.639  17.727  65.606  1.00  0.00    -0.123 A  
HETATM   30  N   UNL     1     -10.724  16.694  66.475  1.00  0.00    -0.196 NA 
ENDBRANCH  24  25
ENDBRANCH  22  23
ENDBRANCH  12  13
ENDBRANCH   7  12
ENDBRANCH   3   6
TORSDOF 5
ENDMDL
MODEL       64
REMARK 921   NORMALIZED FREE ENERGY PREDICTED BY IDOCK:   -5.51 KCAL/MOL
REMARK 922        TOTAL FREE ENERGY PREDICTED BY IDOCK:   -8.15 KCAL/MOL
REMARK 923 INTER-LIGAND FREE ENERGY PREDICTED BY IDOCK:   -7.16 KCAL/MOL
REMARK 924 INTRA-LIGAND FREE ENERGY PREDICTED BY IDOCK:   -0.98 KCAL/MOL
REMARK 927      BINDING AFFINITY PREDICTED BY RF-SCORE:    0.00 PKD
ROOT
HETATM    1  C   UNL     1     -10.633   5.990  67.496  1.00  0.00    -0.273 C  
HETATM    2  N   UNL     1     -11.167   7.070  68.282  1.00  0.00    -0.509 N  
HETATM    3  C   UNL     1     -10.351   8.055  68.796  1.00  0.00    -0.206 C  
HETATM    4  H   UNL     1     -12.170   7.108  68.463  1.00  0.00     0.000 HD 
HETATM    5  O   UNL     1      -9.125   7.993  68.784  1.00  0.00    -0.144 OA 
ENDROOT
BRANCH   3   6
HETATM    6  C   UNL     1     -11.045   9.209  69.448  1.00  0.00    -0.027 A  
HETATM    7  C   UNL     1     -11.397  10.405  68.776  1.00  0.00    -0.214 A  
HETATM    8  C   UNL     1     -12.115  11.378  69.487  1.00  0.00    -0.370 A  
HETATM    9  C   UNL     1     -12.019  10.044  71.508  1.00  0.00    -0.438 A  
HETATM   10  C   UNL     1     -12.432  11.193  70.840  1.00  0.00    -0.509 A  
HETATM   11  C   UNL     1     -11.332   9.052  70.813  1.00  0.00    -0.329 A  
BRANCH   7  12
HETATM   12  S   UNL     1     -10.715  10.775  67.163  1.00  0.00    -0.267 SA 
BRANCH  12  13
HETATM   13  C   UNL     1      -9.536  12.094  67.325  1.00  0.00    -0.185 A  
HETATM   14  C   UNL     1      -9.766  13.238  66.558  1.00  0.00    -0.273 A  
HETATM   15  C   UNL     1      -9.038  14.417  66.761  1.00  0.00    -0.278 A  
HETATM   16  C   UNL     1      -8.059  14.453  67.771  1.00  0.00    -0.174 A  
HETATM   17  C   UNL     1      -7.852  13.303  68.529  1.00  0.00    -0.110 A  
HETATM   18  C   UNL     1      -8.553  12.101  68.325  1.00  0.00    -0.175 A  
HETATM   19  N   UNL     1      -6.911  13.659  69.457  1.00  0.00    -0.311 NA 
HETATM   20  N   UNL     1      -6.488  14.928  69.360  1.00  0.00    -0.120 NA 
HETATM   21  H   UNL     1      -6.561  13.014  70.164  1.00  0.00     0.000 HD 
HETATM   22  C   UNL     1      -7.153  15.423  68.308  1.00  0.00    -0.114 A  
BRANCH  22  23
HETATM   23  C   UNL     1      -6.930  16.763  67.850  1.00  0.00    -0.156 C  
HETATM   24  C   UNL     1      -6.697  17.139  66.579  1.00  0.00    -0.290 C  
BRANCH  24  25
HETATM   25  C   UNL     1      -6.368  18.509  66.162  1.00  0.00    -0.199 A  
HETATM   26  C   UNL     1      -6.174  19.498  67.124  1.00  0.00    -0.194 A  
HETATM   27  C   UNL     1      -5.940  20.806  66.708  1.00  0.00    -0.271 A  
HETATM   28  C   UNL     1      -5.901  21.090  65.349  1.00  0.00    -0.274 A  
HETATM   29  C   UNL     1      -6.088  20.046  64.460  1.00  0.00    -0.271 A  
HETATM   30  N   UNL     1      -6.315  18.768  64.835  1.00  0.00    -0.485 NA 
ENDBRANCH  24  25
ENDBRANCH  22  23
ENDBRANCH  12  13
ENDBRANCH   7  12
ENDBRANCH   3   6
TORSDOF 5
ENDMDL
MODEL       65
REMARK 921   NORMALIZED FREE ENERGY PREDICTED BY IDOCK:   -5.50 KCAL/MOL
REMARK 922        TOTAL FREE ENERGY PREDICTED BY IDOCK:   -8.13 KCAL/MOL
REMARK 923 INTER-LIGAND FREE ENERGY PREDICTED BY IDOCK:   -7.21 KCAL/MOL
REMARK 924 INTRA-LIGAND FREE ENERGY PREDICTED BY IDOCK:   -0.91 KCAL/MOL
REMARK 927      BINDING AFFINITY PREDICTED BY RF-SCORE:    0.00 PKD
ROOT
HETATM    1  C   UNL     1      -9.357   3.366  69.113  1.00  0.00    -0.167 C  
HETATM    2  N   UNL     1     -10.005   4.405  69.866  1.00  0.00    -0.218 N  
HETATM    3  C   UNL     1      -9.319   5.526  70.280  1.00  0.00    -0.154 C  
HETATM    4  H   UNL     1     -10.994   4.311  70.099  1.00  0.00     0.000 HD 
HETATM    5  O   UNL     1      -8.099   5.640  70.205  1.00  0.00    -0.100 OA 
ENDROOT
BRANCH   3   6
HETATM    6  C   UNL     1     -10.143   6.607  70.906  1.00  0.00    -0.208 A  
HETATM    7  C   UNL     1     -10.875   7.572  70.170  1.00  0.00    -0.249 A  
HETATM    8  C   UNL     1     -11.670   8.484  70.881  1.00  0.00    -0.274 A  
HETATM    9  C   UNL     1     -10.922   7.566  72.995  1.00  0.00    -0.443 A  
HETATM   10  C   UNL     1     -11.700   8.472  72.282  1.00  0.00    -0.443 A  
HETATM   11  C   UNL     1     -10.150   6.632  72.309  1.00  0.00    -0.191 A  
BRANCH   7  12
HETATM   12  S   UNL     1     -10.583   7.791  68.418  1.00  0.00    -0.051 SA 
BRANCH  12  13
HETATM   13  C   UNL     1     -10.052   9.462  68.128  1.00  0.00    -0.181 A  
HETATM   14  C   UNL     1     -11.006  10.344  67.615  1.00  0.00    -0.374 A  
HETATM   15  C   UNL     1     -10.772  11.722  67.551  1.00  0.00    -0.262 A  
HETATM   16  C   UNL     1      -9.551  12.234  68.027  1.00  0.00    -0.206 A  
HETATM   17  C   UNL     1      -8.617  11.338  68.541  1.00  0.00    -0.156 A  
HETATM   18  C   UNL     1      -8.821   9.947  68.591  1.00  0.00    -0.128 A  
HETATM   19  N   UNL     1      -7.585  12.121  68.981  1.00  0.00    -0.323 NA 
HETATM   20  N   UNL     1      -7.764  13.436  68.789  1.00  0.00    -0.086 NA 
HETATM   21  H   UNL     1      -6.748  11.737  69.419  1.00  0.00     0.000 HD 
HETATM   22  C   UNL     1      -8.949  13.525  68.171  1.00  0.00    -0.187 A  
BRANCH  22  23
HETATM   23  C   UNL     1      -9.474  14.791  67.747  1.00  0.00    -0.204 C  
HETATM   24  C   UNL     1      -8.935  15.998  67.999  1.00  0.00    -0.187 C  
BRANCH  24  25
HETATM   25  C   UNL     1      -9.556  17.279  67.639  1.00  0.00    -0.256 A  
HETATM   26  C   UNL     1      -9.986  17.498  66.332  1.00  0.00    -0.330 A  
HETATM   27  C   UNL     1     -10.502  18.745  65.991  1.00  0.00    -0.483 A  
HETATM   28  C   UNL     1     -10.579  19.736  66.961  1.00  0.00    -0.586 A  
HETATM   29  C   UNL     1     -10.145  19.431  68.239  1.00  0.00    -0.433 A  
HETATM   30  N   UNL     1      -9.642  18.228  68.598  1.00  0.00    -0.334 NA 
ENDBRANCH  24  25
ENDBRANCH  22  23
ENDBRANCH  12  13
ENDBRANCH   7  12
ENDBRANCH   3   6
TORSDOF 5
ENDMDL
MODEL       66
REMARK 921   NORMALIZED FREE ENERGY PREDICTED BY IDOCK:   -5.49 KCAL/MOL
REMARK 922        TOTAL FREE ENERGY PREDICTED BY IDOCK:   -8.11 KCAL/MOL
REMARK 923 INTER-LIGAND FREE ENERGY PREDICTED BY IDOCK:   -7.37 KCAL/MOL
REMARK 924 INTRA-LIGAND FREE ENERGY PREDICTED BY IDOCK:   -0.74 KCAL/MOL
REMARK 927      BINDING AFFINITY PREDICTED BY RF-SCORE:    0.00 PKD
ROOT
HETATM    1  C   UNL     1     -10.641   6.280  66.880  1.00  0.00    -0.305 C  
HETATM    2  N   UNL     1     -11.100   7.261  67.826  1.00  0.00    -0.522 N  
HETATM    3  C   UNL     1     -10.240   8.190  68.371  1.00  0.00    -0.209 C  
HETATM    4  H   UNL     1     -12.083   7.270  68.099  1.00  0.00     0.000 HD 
HETATM    5  O   UNL     1      -9.020   8.140  68.243  1.00  0.00    -0.136 OA 
ENDROOT
BRANCH   3   6
HETATM    6  C   UNL     1     -10.870   9.257  69.208  1.00  0.00    -0.170 A  
HETATM    7  C   UNL     1     -11.377  10.474  68.690  1.00  0.00    -0.252 A  
HETATM    8  C   UNL     1     -12.015  11.357  69.575  1.00  0.00    -0.409 A  
HETATM    9  C   UNL     1     -11.540   9.899  71.451  1.00  0.00    -0.428 A  
HETATM   10  C   UNL     1     -12.104  11.065  70.943  1.00  0.00    -0.444 A  
HETATM   11  C   UNL     1     -10.930   8.995  70.586  1.00  0.00    -0.308 A  
BRANCH   7  12
HETATM   12  S   UNL     1     -10.978  10.988  67.022  1.00  0.00    -0.238 SA 
BRANCH  12  13
HETATM   13  C   UNL     1      -9.622  12.134  67.083  1.00  0.00    -0.194 A  
HETATM   14  C   UNL     1      -9.877  13.378  67.666  1.00  0.00    -0.226 A  
HETATM   15  C   UNL     1      -8.844  14.274  67.967  1.00  0.00    -0.178 A  
HETATM   16  C   UNL     1      -7.515  13.908  67.686  1.00  0.00    -0.187 A  
HETATM   17  C   UNL     1      -7.282  12.661  67.111  1.00  0.00    -0.033 A  
HETATM   18  C   UNL     1      -8.307  11.757  66.777  1.00  0.00    -0.165 A  
HETATM   19  N   UNL     1      -5.920  12.563  67.024  1.00  0.00    -0.460 NA 
HETATM   20  N   UNL     1      -5.256  13.634  67.480  1.00  0.00    -0.334 NA 
HETATM   21  H   UNL     1      -5.449  11.742  66.643  1.00  0.00     0.000 HD 
HETATM   22  C   UNL     1      -6.217  14.487  67.858  1.00  0.00    -0.155 A  
BRANCH  22  23
HETATM   23  C   UNL     1      -5.898  15.791  68.363  1.00  0.00    -0.109 C  
HETATM   24  C   UNL     1      -6.781  16.749  68.702  1.00  0.00    -0.174 C  
BRANCH  24  25
HETATM   25  C   UNL     1      -6.414  18.110  69.117  1.00  0.00    -0.255 A  
HETATM   26  C   UNL     1      -6.680  19.187  68.275  1.00  0.00    -0.277 A  
HETATM   27  C   UNL     1      -6.256  20.459  68.652  1.00  0.00    -0.354 A  
HETATM   28  C   UNL     1      -5.585  20.621  69.857  1.00  0.00    -0.386 A  
HETATM   29  C   UNL     1      -5.375  19.501  70.642  1.00  0.00    -0.236 A  
HETATM   30  N   UNL     1      -5.777  18.256  70.302  1.00  0.00    -0.230 NA 
ENDBRANCH  24  25
ENDBRANCH  22  23
ENDBRANCH  12  13
ENDBRANCH   7  12
ENDBRANCH   3   6
TORSDOF 5
ENDMDL
MODEL       67
REMARK 921   NORMALIZED FREE ENERGY PREDICTED BY IDOCK:   -5.48 KCAL/MOL
REMARK 922        TOTAL FREE ENERGY PREDICTED BY IDOCK:   -8.11 KCAL/MOL
REMARK 923 INTER-LIGAND FREE ENERGY PREDICTED BY IDOCK:   -7.26 KCAL/MOL
REMARK 924 INTRA-LIGAND FREE ENERGY PREDICTED BY IDOCK:   -0.85 KCAL/MOL
REMARK 927      BINDING AFFINITY PREDICTED BY RF-SCORE:    0.00 PKD
ROOT
HETATM    1  C   UNL     1      -7.411  10.086  62.621  1.00  0.00    -0.127 C  
HETATM    2  N   UNL     1      -7.402   9.787  64.027  1.00  0.00    -0.123 N  
HETATM    3  C   UNL     1      -6.973   8.565  64.498  1.00  0.00    -0.073 C  
HETATM    4  H   UNL     1      -7.719  10.495  64.691  1.00  0.00     0.000 HD 
HETATM    5  O   UNL     1      -6.749   7.601  63.773  1.00  0.00    -0.056 OA 
ENDROOT
BRANCH   3   6
HETATM    6  C   UNL     1      -6.852   8.439  65.984  1.00  0.00    -0.064 A  
HETATM    7  C   UNL     1      -7.913   8.045  66.835  1.00  0.00    -0.104 A  
HETATM    8  C   UNL     1      -7.643   7.890  68.204  1.00  0.00    -0.116 A  
HETATM    9  C   UNL     1      -5.354   8.621  67.886  1.00  0.00    -0.035 A  
HETATM   10  C   UNL     1      -6.370   8.167  68.721  1.00  0.00    -0.045 A  
HETATM   11  C   UNL     1      -5.593   8.751  66.520  1.00  0.00    -0.046 A  
BRANCH   7  12
HETATM   12  S   UNL     1      -9.597   8.009  66.230  1.00  0.00    -0.098 SA 
BRANCH  12  13
HETATM   13  C   UNL     1     -10.365   9.575  66.574  1.00  0.00    -0.193 A  
HETATM   14  C   UNL     1     -10.755   9.805  67.895  1.00  0.00    -0.312 A  
HETATM   15  C   UNL     1     -11.166  11.071  68.329  1.00  0.00    -0.340 A  
HETATM   16  C   UNL     1     -11.174  12.141  67.415  1.00  0.00    -0.362 A  
HETATM   17  C   UNL     1     -10.774  11.890  66.105  1.00  0.00    -0.278 A  
HETATM   18  C   UNL     1     -10.383  10.621  65.641  1.00  0.00    -0.285 A  
HETATM   19  N   UNL     1     -10.819  13.109  65.485  1.00  0.00    -0.280 NA 
HETATM   20  N   UNL     1     -11.219  14.118  66.273  1.00  0.00    -0.322 NA 
HETATM   21  H   UNL     1     -10.568  13.240  64.506  1.00  0.00     0.000 HD 
HETATM   22  C   UNL     1     -11.478  13.539  67.452  1.00  0.00    -0.336 A  
BRANCH  22  23
HETATM   23  C   UNL     1     -11.986  14.298  68.558  1.00  0.00    -0.352 C  
HETATM   24  C   UNL     1     -11.822  14.007  69.862  1.00  0.00    -0.393 C  
BRANCH  24  25
HETATM   25  C   UNL     1     -12.446  14.750  70.965  1.00  0.00    -0.330 A  
HETATM   26  C   UNL     1     -11.655  15.510  71.824  1.00  0.00    -0.515 A  
HETATM   27  C   UNL     1     -12.254  16.145  72.909  1.00  0.00    -0.640 A  
HETATM   28  C   UNL     1     -13.622  16.009  73.104  1.00  0.00    -0.517 A  
HETATM   29  C   UNL     1     -14.337  15.249  72.195  1.00  0.00    -0.555 A  
HETATM   30  N   UNL     1     -13.782  14.624  71.133  1.00  0.00    -0.364 NA 
ENDBRANCH  24  25
ENDBRANCH  22  23
ENDBRANCH  12  13
ENDBRANCH   7  12
ENDBRANCH   3   6
TORSDOF 5
ENDMDL
MODEL       68
REMARK 921   NORMALIZED FREE ENERGY PREDICTED BY IDOCK:   -5.46 KCAL/MOL
REMARK 922        TOTAL FREE ENERGY PREDICTED BY IDOCK:   -8.08 KCAL/MOL
REMARK 923 INTER-LIGAND FREE ENERGY PREDICTED BY IDOCK:   -7.28 KCAL/MOL
REMARK 924 INTRA-LIGAND FREE ENERGY PREDICTED BY IDOCK:   -0.80 KCAL/MOL
REMARK 927      BINDING AFFINITY PREDICTED BY RF-SCORE:    0.00 PKD
ROOT
HETATM    1  C   UNL     1      -7.226  10.133  64.635  1.00  0.00    -0.124 C  
HETATM    2  N   UNL     1      -8.311  11.075  64.567  1.00  0.00    -0.364 N  
HETATM    3  C   UNL     1      -9.561  10.765  65.058  1.00  0.00    -0.254 C  
HETATM    4  H   UNL     1      -8.152  11.991  64.148  1.00  0.00     0.000 HD 
HETATM    5  O   UNL     1      -9.890   9.636  65.410  1.00  0.00    -0.315 OA 
ENDROOT
BRANCH   3   6
HETATM    6  C   UNL     1     -10.553  11.884  65.083  1.00  0.00    -0.333 A  
HETATM    7  C   UNL     1     -10.589  12.890  66.079  1.00  0.00    -0.270 A  
HETATM    8  C   UNL     1     -11.523  13.928  65.941  1.00  0.00    -0.328 A  
HETATM    9  C   UNL     1     -12.431  12.911  63.938  1.00  0.00    -0.417 A  
HETATM   10  C   UNL     1     -12.429  13.943  64.871  1.00  0.00    -0.420 A  
HETATM   11  C   UNL     1     -11.493  11.888  64.040  1.00  0.00    -0.480 A  
BRANCH   7  12
HETATM   12  S   UNL     1      -9.661  12.697  67.598  1.00  0.00    -0.202 SA 
BRANCH  12  13
HETATM   13  C   UNL     1     -10.277  11.278  68.471  1.00  0.00    -0.205 A  
HETATM   14  C   UNL     1      -9.351  10.278  68.777  1.00  0.00    -0.166 A  
HETATM   15  C   UNL     1      -9.665   9.225  69.643  1.00  0.00    -0.192 A  
HETATM   16  C   UNL     1     -10.943   9.179  70.232  1.00  0.00    -0.279 A  
HETATM   17  C   UNL     1     -11.849  10.190  69.919  1.00  0.00    -0.135 A  
HETATM   18  C   UNL     1     -11.562  11.242  69.031  1.00  0.00    -0.386 A  
HETATM   19  N   UNL     1     -12.953   9.919  70.681  1.00  0.00    -0.573 NA 
HETATM   20  N   UNL     1     -12.844   8.823  71.446  1.00  0.00    -0.309 NA 
HETATM   21  H   UNL     1     -13.789  10.502  70.668  1.00  0.00     0.000 HD 
HETATM   22  C   UNL     1     -11.631   8.333  71.158  1.00  0.00    -0.279 A  
BRANCH  22  23
HETATM   23  C   UNL     1     -11.162   7.115  71.752  1.00  0.00    -0.278 C  
HETATM   24  C   UNL     1     -10.020   6.471  71.445  1.00  0.00    -0.202 C  
BRANCH  24  25
HETATM   25  C   UNL     1      -9.623   5.171  72.000  1.00  0.00    -0.151 A  
HETATM   26  C   UNL     1      -8.979   4.238  71.189  1.00  0.00    -0.166 A  
HETATM   27  C   UNL     1      -8.680   2.983  71.712  1.00  0.00    -0.110 A  
HETATM   28  C   UNL     1      -9.025   2.694  73.025  1.00  0.00    -0.092 A  
HETATM   29  C   UNL     1      -9.648   3.682  73.767  1.00  0.00    -0.102 A  
HETATM   30  N   UNL     1      -9.949   4.910  73.287  1.00  0.00    -0.151 NA 
ENDBRANCH  24  25
ENDBRANCH  22  23
ENDBRANCH  12  13
ENDBRANCH   7  12
ENDBRANCH   3   6
TORSDOF 5
ENDMDL
MODEL       69
REMARK 921   NORMALIZED FREE ENERGY PREDICTED BY IDOCK:   -5.46 KCAL/MOL
REMARK 922        TOTAL FREE ENERGY PREDICTED BY IDOCK:   -8.07 KCAL/MOL
REMARK 923 INTER-LIGAND FREE ENERGY PREDICTED BY IDOCK:   -7.16 KCAL/MOL
REMARK 924 INTRA-LIGAND FREE ENERGY PREDICTED BY IDOCK:   -0.91 KCAL/MOL
REMARK 927      BINDING AFFINITY PREDICTED BY RF-SCORE:    0.00 PKD
ROOT
HETATM    1  C   UNL     1     -10.286   5.883  71.405  1.00  0.00    -0.218 C  
HETATM    2  N   UNL     1      -9.460   6.115  70.252  1.00  0.00    -0.159 N  
HETATM    3  C   UNL     1      -8.889   7.347  70.014  1.00  0.00    -0.141 C  
HETATM    4  H   UNL     1      -9.292   5.352  69.595  1.00  0.00     0.000 HD 
HETATM    5  O   UNL     1      -9.180   8.360  70.643  1.00  0.00    -0.147 OA 
ENDROOT
BRANCH   3   6
HETATM    6  C   UNL     1      -7.918   7.413  68.878  1.00  0.00    -0.126 A  
HETATM    7  C   UNL     1      -8.238   7.909  67.590  1.00  0.00    -0.124 A  
HETATM    8  C   UNL     1      -7.212   7.989  66.637  1.00  0.00    -0.081 A  
HETATM    9  C   UNL     1      -5.632   6.993  68.181  1.00  0.00    -0.021 A  
HETATM   10  C   UNL     1      -5.917   7.543  66.935  1.00  0.00    -0.046 A  
HETATM   11  C   UNL     1      -6.628   6.933  69.151  1.00  0.00    -0.048 A  
BRANCH   7  12
HETATM   12  S   UNL     1      -9.944   8.169  67.115  1.00  0.00    -0.265 SA 
BRANCH  12  13
HETATM   13  C   UNL     1     -10.186   9.892  66.758  1.00  0.00    -0.236 A  
HETATM   14  C   UNL     1      -9.974  10.786  67.811  1.00  0.00    -0.195 A  
HETATM   15  C   UNL     1      -9.920  12.169  67.600  1.00  0.00    -0.199 A  
HETATM   16  C   UNL     1     -10.070  12.671  66.294  1.00  0.00    -0.264 A  
HETATM   17  C   UNL     1     -10.273  11.761  65.258  1.00  0.00    -0.267 A  
HETATM   18  C   UNL     1     -10.357  10.371  65.452  1.00  0.00    -0.270 A  
HETATM   19  N   UNL     1     -10.310  12.525  64.124  1.00  0.00    -0.410 NA 
HETATM   20  N   UNL     1     -10.160  13.841  64.334  1.00  0.00    -0.211 NA 
HETATM   21  H   UNL     1     -10.441  12.127  63.194  1.00  0.00     0.000 HD 
HETATM   22  C   UNL     1     -10.048  13.956  65.664  1.00  0.00    -0.313 A  
BRANCH  22  23
HETATM   23  C   UNL     1      -9.920  15.239  66.291  1.00  0.00    -0.304 C  
HETATM   24  C   UNL     1     -10.636  16.341  65.997  1.00  0.00    -0.288 C  
BRANCH  24  25
HETATM   25  C   UNL     1     -10.405  17.665  66.589  1.00  0.00    -0.333 A  
HETATM   26  C   UNL     1     -10.174  17.783  67.957  1.00  0.00    -0.377 A  
HETATM   27  C   UNL     1     -10.035  19.053  68.511  1.00  0.00    -0.486 A  
HETATM   28  C   UNL     1     -10.125  20.167  67.687  1.00  0.00    -0.542 A  
HETATM   29  C   UNL     1     -10.340  19.961  66.336  1.00  0.00    -0.495 A  
HETATM   30  N   UNL     1     -10.477  18.741  65.771  1.00  0.00    -0.601 NA 
ENDBRANCH  24  25
ENDBRANCH  22  23
ENDBRANCH  12  13
ENDBRANCH   7  12
ENDBRANCH   3   6
TORSDOF 5
ENDMDL
MODEL       70
REMARK 921   NORMALIZED FREE ENERGY PREDICTED BY IDOCK:   -5.43 KCAL/MOL
REMARK 922        TOTAL FREE ENERGY PREDICTED BY IDOCK:   -8.04 KCAL/MOL
REMARK 923 INTER-LIGAND FREE ENERGY PREDICTED BY IDOCK:   -7.13 KCAL/MOL
REMARK 924 INTRA-LIGAND FREE ENERGY PREDICTED BY IDOCK:   -0.91 KCAL/MOL
REMARK 927      BINDING AFFINITY PREDICTED BY RF-SCORE:    0.00 PKD
ROOT
HETATM    1  C   UNL     1     -11.330   6.093  68.923  1.00  0.00    -0.122 C  
HETATM    2  N   UNL     1     -10.013   6.323  69.452  1.00  0.00    -0.154 N  
HETATM    3  C   UNL     1      -9.470   5.495  70.410  1.00  0.00    -0.163 C  
HETATM    4  H   UNL     1      -9.469   7.116  69.110  1.00  0.00     0.000 HD 
HETATM    5  O   UNL     1     -10.112   4.635  71.005  1.00  0.00    -0.203 OA 
ENDROOT
BRANCH   3   6
HETATM    6  C   UNL     1      -8.034   5.740  70.753  1.00  0.00    -0.113 A  
HETATM    7  C   UNL     1      -7.601   6.365  71.948  1.00  0.00    -0.095 A  
HETATM    8  C   UNL     1      -6.220   6.463  72.182  1.00  0.00    -0.042 A  
HETATM    9  C   UNL     1      -5.734   5.450  70.035  1.00  0.00    -0.016 A  
HETATM   10  C   UNL     1      -5.296   5.999  71.236  1.00  0.00    -0.018 A  
HETATM   11  C   UNL     1      -7.099   5.316  69.796  1.00  0.00    -0.059 A  
BRANCH   7  12
HETATM   12  S   UNL     1      -8.764   7.240  72.990  1.00  0.00    -0.137 SA 
BRANCH  12  13
HETATM   13  C   UNL     1      -9.582   8.484  72.020  1.00  0.00    -0.301 A  
HETATM   14  C   UNL     1      -8.834   9.076  70.999  1.00  0.00    -0.291 A  
HETATM   15  C   UNL     1      -9.428   9.902  70.038  1.00  0.00    -0.246 A  
HETATM   16  C   UNL     1     -10.814  10.133  70.094  1.00  0.00    -0.368 A  
HETATM   17  C   UNL     1     -11.542   9.527  71.116  1.00  0.00    -0.367 A  
HETATM   18  C   UNL     1     -10.961   8.715  72.107  1.00  0.00    -0.434 A  
HETATM   19  N   UNL     1     -12.843   9.872  70.871  1.00  0.00    -0.492 NA 
HETATM   20  N   UNL     1     -13.019  10.650  69.794  1.00  0.00    -0.039 NA 
HETATM   21  H   UNL     1     -13.617   9.563  71.460  1.00  0.00     0.000 HD 
HETATM   22  C   UNL     1     -11.781  10.852  69.322  1.00  0.00    -0.324 A  
BRANCH  22  23
HETATM   23  C   UNL     1     -11.547  11.692  68.183  1.00  0.00    -0.389 C  
HETATM   24  C   UNL     1     -11.761  13.020  68.119  1.00  0.00    -0.391 C  
BRANCH  24  25
HETATM   25  C   UNL     1     -11.609  13.829  66.903  1.00  0.00    -0.370 A  
HETATM   26  C   UNL     1     -12.431  13.592  65.804  1.00  0.00    -0.514 A  
HETATM   27  C   UNL     1     -12.220  14.317  64.634  1.00  0.00    -0.470 A  
HETATM   28  C   UNL     1     -11.201  15.259  64.594  1.00  0.00    -0.366 A  
HETATM   29  C   UNL     1     -10.440  15.444  65.735  1.00  0.00    -0.355 A  
HETATM   30  N   UNL     1     -10.624  14.756  66.884  1.00  0.00    -0.289 NA 
ENDBRANCH  24  25
ENDBRANCH  22  23
ENDBRANCH  12  13
ENDBRANCH   7  12
ENDBRANCH   3   6
TORSDOF 5
ENDMDL
MODEL       71
REMARK 921   NORMALIZED FREE ENERGY PREDICTED BY IDOCK:   -5.42 KCAL/MOL
REMARK 922        TOTAL FREE ENERGY PREDICTED BY IDOCK:   -8.02 KCAL/MOL
REMARK 923 INTER-LIGAND FREE ENERGY PREDICTED BY IDOCK:   -6.99 KCAL/MOL
REMARK 924 INTRA-LIGAND FREE ENERGY PREDICTED BY IDOCK:   -1.04 KCAL/MOL
REMARK 927      BINDING AFFINITY PREDICTED BY RF-SCORE:    0.00 PKD
ROOT
HETATM    1  C   UNL     1     -12.362  14.431  68.994  1.00  0.00    -0.095 C  
HETATM    2  N   UNL     1     -11.716  15.498  68.279  1.00  0.00    -0.422 N  
HETATM    3  C   UNL     1     -11.010  16.480  68.941  1.00  0.00    -0.325 C  
HETATM    4  H   UNL     1     -11.780  15.528  67.262  1.00  0.00     0.000 HD 
HETATM    5  O   UNL     1     -11.032  16.625  70.159  1.00  0.00    -0.321 OA 
ENDROOT
BRANCH   3   6
HETATM    6  C   UNL     1     -10.245  17.434  68.078  1.00  0.00    -0.345 A  
HETATM    7  C   UNL     1      -8.941  17.184  67.585  1.00  0.00    -0.226 A  
HETATM    8  C   UNL     1      -8.367  18.129  66.721  1.00  0.00    -0.270 A  
HETATM    9  C   UNL     1     -10.298  19.578  66.942  1.00  0.00    -0.566 A  
HETATM   10  C   UNL     1      -9.046  19.312  66.395  1.00  0.00    -0.381 A  
HETATM   11  C   UNL     1     -10.898  18.639  67.777  1.00  0.00    -0.313 A  
BRANCH   7  12
HETATM   12  S   UNL     1      -7.957  15.847  68.254  1.00  0.00    -0.143 SA 
BRANCH  12  13
HETATM   13  C   UNL     1      -8.441  14.329  67.469  1.00  0.00    -0.187 A  
HETATM   14  C   UNL     1      -8.157  13.148  68.160  1.00  0.00    -0.155 A  
HETATM   15  C   UNL     1      -8.679  11.914  67.752  1.00  0.00    -0.158 A  
HETATM   16  C   UNL     1      -9.522  11.865  66.626  1.00  0.00    -0.217 A  
HETATM   17  C   UNL     1      -9.798  13.055  65.957  1.00  0.00    -0.255 A  
HETATM   18  C   UNL     1      -9.263  14.300  66.334  1.00  0.00    -0.226 A  
HETATM   19  N   UNL     1     -10.681  12.707  64.971  1.00  0.00    -0.284 NA 
HETATM   20  N   UNL     1     -10.990  11.403  64.938  1.00  0.00    -0.256 NA 
HETATM   21  H   UNL     1     -11.071  13.383  64.316  1.00  0.00     0.000 HD 
HETATM   22  C   UNL     1     -10.261  10.861  65.923  1.00  0.00    -0.257 A  
BRANCH  22  23
HETATM   23  C   UNL     1     -10.283   9.449  66.174  1.00  0.00    -0.264 C  
HETATM   24  C   UNL     1      -9.257   8.596  65.997  1.00  0.00    -0.276 C  
BRANCH  24  25
HETATM   25  C   UNL     1      -9.347   7.140  66.166  1.00  0.00    -0.045 A  
HETATM   26  C   UNL     1     -10.414   6.588  66.872  1.00  0.00    -0.347 A  
HETATM   27  C   UNL     1     -10.441   5.212  67.086  1.00  0.00    -0.224 A  
HETATM   28  C   UNL     1      -9.410   4.427  66.589  1.00  0.00    -0.169 A  
HETATM   29  C   UNL     1      -8.396   5.053  65.885  1.00  0.00    -0.116 A  
HETATM   30  N   UNL     1      -8.345   6.385  65.660  1.00  0.00    -0.143 NA 
ENDBRANCH  24  25
ENDBRANCH  22  23
ENDBRANCH  12  13
ENDBRANCH   7  12
ENDBRANCH   3   6
TORSDOF 5
ENDMDL
MODEL       72
REMARK 921   NORMALIZED FREE ENERGY PREDICTED BY IDOCK:   -5.41 KCAL/MOL
REMARK 922        TOTAL FREE ENERGY PREDICTED BY IDOCK:   -8.02 KCAL/MOL
REMARK 923 INTER-LIGAND FREE ENERGY PREDICTED BY IDOCK:   -7.26 KCAL/MOL
REMARK 924 INTRA-LIGAND FREE ENERGY PREDICTED BY IDOCK:   -0.76 KCAL/MOL
REMARK 927      BINDING AFFINITY PREDICTED BY RF-SCORE:    0.00 PKD
ROOT
HETATM    1  C   UNL     1      -5.694   3.512  73.785  1.00  0.00    -0.003 C  
HETATM    2  N   UNL     1      -6.695   3.430  72.756  1.00  0.00    -0.028 N  
HETATM    3  C   UNL     1      -6.752   4.354  71.735  1.00  0.00    -0.030 C  
HETATM    4  H   UNL     1      -7.378   2.673  72.782  1.00  0.00     0.000 HD 
HETATM    5  O   UNL     1      -6.095   5.391  71.723  1.00  0.00    -0.027 OA 
ENDROOT
BRANCH   3   6
HETATM    6  C   UNL     1      -7.727   4.064  70.639  1.00  0.00    -0.048 A  
HETATM    7  C   UNL     1      -9.099   4.414  70.685  1.00  0.00    -0.117 A  
HETATM    8  C   UNL     1      -9.889   4.153  69.555  1.00  0.00    -0.183 A  
HETATM    9  C   UNL     1      -8.015   3.114  68.423  1.00  0.00    -0.063 A  
HETATM   10  C   UNL     1      -9.347   3.517  68.430  1.00  0.00    -0.228 A  
HETATM   11  C   UNL     1      -7.206   3.391  69.522  1.00  0.00    -0.045 A  
BRANCH   7  12
HETATM   12  S   UNL     1      -9.855   4.922  72.226  1.00  0.00    -0.175 SA 
BRANCH  12  13
HETATM   13  C   UNL     1     -10.426   6.597  72.063  1.00  0.00    -0.204 A  
HETATM   14  C   UNL     1      -9.901   7.337  71.001  1.00  0.00    -0.183 A  
HETATM   15  C   UNL     1     -10.430   8.582  70.641  1.00  0.00    -0.234 A  
HETATM   16  C   UNL     1     -11.527   9.095  71.359  1.00  0.00    -0.420 A  
HETATM   17  C   UNL     1     -12.039   8.337  72.409  1.00  0.00    -0.369 A  
HETATM   18  C   UNL     1     -11.506   7.096  72.804  1.00  0.00    -0.234 A  
HETATM   19  N   UNL     1     -13.120   9.045  72.858  1.00  0.00    -0.726 NA 
HETATM   20  N   UNL     1     -13.344  10.192  72.201  1.00  0.00    -0.410 NA 
HETATM   21  H   UNL     1     -13.706   8.727  73.630  1.00  0.00     0.000 HD 
HETATM   22  C   UNL     1     -12.356  10.260  71.300  1.00  0.00    -0.403 A  
BRANCH  22  23
HETATM   23  C   UNL     1     -12.223  11.389  70.425  1.00  0.00    -0.450 C  
HETATM   24  C   UNL     1     -11.978  11.343  69.102  1.00  0.00    -0.395 C  
BRANCH  24  25
HETATM   25  C   UNL     1     -11.744  12.522  68.258  1.00  0.00    -0.340 A  
HETATM   26  C   UNL     1     -11.391  13.736  68.844  1.00  0.00    -0.328 A  
HETATM   27  C   UNL     1     -11.250  14.860  68.034  1.00  0.00    -0.318 A  
HETATM   28  C   UNL     1     -11.460  14.742  66.666  1.00  0.00    -0.339 A  
HETATM   29  C   UNL     1     -11.792  13.497  66.163  1.00  0.00    -0.389 A  
HETATM   30  N   UNL     1     -11.934  12.389  66.925  1.00  0.00    -0.575 NA 
ENDBRANCH  24  25
ENDBRANCH  22  23
ENDBRANCH  12  13
ENDBRANCH   7  12
ENDBRANCH   3   6
TORSDOF 5
ENDMDL
MODEL       73
REMARK 921   NORMALIZED FREE ENERGY PREDICTED BY IDOCK:   -5.37 KCAL/MOL
REMARK 922        TOTAL FREE ENERGY PREDICTED BY IDOCK:   -7.96 KCAL/MOL
REMARK 923 INTER-LIGAND FREE ENERGY PREDICTED BY IDOCK:   -8.28 KCAL/MOL
REMARK 924 INTRA-LIGAND FREE ENERGY PREDICTED BY IDOCK:    0.32 KCAL/MOL
REMARK 927      BINDING AFFINITY PREDICTED BY RF-SCORE:    0.00 PKD
ROOT
HETATM    1  C   UNL     1      -6.756   3.437  66.256  1.00  0.00    -0.048 C  
HETATM    2  N   UNL     1      -7.518   4.224  67.187  1.00  0.00    -0.076 N  
HETATM    3  C   UNL     1      -8.889   4.328  67.086  1.00  0.00    -0.113 C  
HETATM    4  H   UNL     1      -7.034   4.716  67.939  1.00  0.00     0.000 HD 
HETATM    5  O   UNL     1      -9.529   3.926  66.119  1.00  0.00    -0.165 OA 
ENDROOT
BRANCH   3   6
HETATM    6  C   UNL     1      -9.579   5.034  68.210  1.00  0.00    -0.187 A  
HETATM    7  C   UNL     1     -10.074   6.359  68.128  1.00  0.00    -0.149 A  
HETATM    8  C   UNL     1     -10.772   6.875  69.231  1.00  0.00    -0.265 A  
HETATM    9  C   UNL     1     -10.380   4.844  70.493  1.00  0.00    -0.242 A  
HETATM   10  C   UNL     1     -10.932   6.118  70.399  1.00  0.00    -0.404 A  
HETATM   11  C   UNL     1      -9.711   4.301  69.399  1.00  0.00    -0.257 A  
BRANCH   7  12
HETATM   12  S   UNL     1      -9.592   7.428  66.775  1.00  0.00    -0.193 SA 
BRANCH  12  13
HETATM   13  C   UNL     1     -10.330   9.026  67.013  1.00  0.00    -0.269 A  
HETATM   14  C   UNL     1     -10.678   9.367  68.323  1.00  0.00    -0.220 A  
HETATM   15  C   UNL     1     -11.061  10.670  68.665  1.00  0.00    -0.315 A  
HETATM   16  C   UNL     1     -11.085  11.662  67.668  1.00  0.00    -0.314 A  
HETATM   17  C   UNL     1     -10.728  11.301  66.371  1.00  0.00    -0.267 A  
HETATM   18  C   UNL     1     -10.365   9.994  66.000  1.00  0.00    -0.222 A  
HETATM   19  N   UNL     1     -10.777  12.467  65.656  1.00  0.00    -0.260 NA 
HETATM   20  N   UNL     1     -11.142  13.542  66.371  1.00  0.00    -0.300 NA 
HETATM   21  H   UNL     1     -10.555  12.516  64.662  1.00  0.00     0.000 HD 
HETATM   22  C   UNL     1     -11.371  13.063  67.601  1.00  0.00    -0.300 A  
BRANCH  22  23
HETATM   23  C   UNL     1     -11.836  13.916  68.656  1.00  0.00    -0.407 C  
HETATM   24  C   UNL     1     -11.683  13.701  69.976  1.00  0.00    -0.319 C  
BRANCH  24  25
HETATM   25  C   UNL     1     -12.265  14.543  71.029  1.00  0.00    -0.339 A  
HETATM   26  C   UNL     1     -11.442  15.375  71.785  1.00  0.00    -0.497 A  
HETATM   27  C   UNL     1     -12.000  16.108  72.829  1.00  0.00    -0.638 A  
HETATM   28  C   UNL     1     -13.360  15.994  73.088  1.00  0.00    -0.624 A  
HETATM   29  C   UNL     1     -14.109  15.158  72.279  1.00  0.00    -0.534 A  
HETATM   30  N   UNL     1     -13.594  14.437  71.257  1.00  0.00    -0.350 NA 
ENDBRANCH  24  25
ENDBRANCH  22  23
ENDBRANCH  12  13
ENDBRANCH   7  12
ENDBRANCH   3   6
TORSDOF 5
ENDMDL
MODEL       74
REMARK 921   NORMALIZED FREE ENERGY PREDICTED BY IDOCK:   -5.36 KCAL/MOL
REMARK 922        TOTAL FREE ENERGY PREDICTED BY IDOCK:   -7.95 KCAL/MOL
REMARK 923 INTER-LIGAND FREE ENERGY PREDICTED BY IDOCK:   -7.14 KCAL/MOL
REMARK 924 INTRA-LIGAND FREE ENERGY PREDICTED BY IDOCK:   -0.81 KCAL/MOL
REMARK 927      BINDING AFFINITY PREDICTED BY RF-SCORE:    0.00 PKD
ROOT
HETATM    1  C   UNL     1      -6.428  20.249  64.611  1.00  0.00    -0.261 C  
HETATM    2  N   UNL     1      -6.309  19.377  65.748  1.00  0.00    -0.206 N  
HETATM    3  C   UNL     1      -7.176  19.467  66.815  1.00  0.00    -0.218 C  
HETATM    4  H   UNL     1      -5.567  18.677  65.766  1.00  0.00     0.000 HD 
HETATM    5  O   UNL     1      -7.975  20.387  66.962  1.00  0.00    -0.321 OA 
ENDROOT
BRANCH   3   6
HETATM    6  C   UNL     1      -7.054  18.398  67.854  1.00  0.00    -0.229 A  
HETATM    7  C   UNL     1      -7.935  17.295  67.964  1.00  0.00    -0.215 A  
HETATM    8  C   UNL     1      -7.661  16.320  68.936  1.00  0.00    -0.212 A  
HETATM    9  C   UNL     1      -5.755  17.585  69.736  1.00  0.00    -0.238 A  
HETATM   10  C   UNL     1      -6.572  16.461  69.808  1.00  0.00    -0.108 A  
HETATM   11  C   UNL     1      -5.991  18.548  68.759  1.00  0.00    -0.212 A  
BRANCH   7  12
HETATM   12  S   UNL     1      -9.491  17.283  67.078  1.00  0.00    -0.270 SA 
BRANCH  12  13
HETATM   13  C   UNL     1     -10.119  15.622  67.042  1.00  0.00    -0.253 A  
HETATM   14  C   UNL     1      -9.463  14.720  66.200  1.00  0.00    -0.324 A  
HETATM   15  C   UNL     1      -9.724  13.346  66.249  1.00  0.00    -0.280 A  
HETATM   16  C   UNL     1     -10.662  12.858  67.178  1.00  0.00    -0.268 A  
HETATM   17  C   UNL     1     -11.300  13.774  68.012  1.00  0.00    -0.288 A  
HETATM   18  C   UNL     1     -11.071  15.161  67.962  1.00  0.00    -0.310 A  
HETATM   19  N   UNL     1     -12.083  13.011  68.835  1.00  0.00    -0.243 NA 
HETATM   20  N   UNL     1     -12.016  11.693  68.602  1.00  0.00    -0.459 NA 
HETATM   21  H   UNL     1     -12.670  13.412  69.567  1.00  0.00     0.000 HD 
HETATM   22  C   UNL     1     -11.176  11.580  67.564  1.00  0.00    -0.298 A  
BRANCH  22  23
HETATM   23  C   UNL     1     -10.883  10.303  66.979  1.00  0.00    -0.248 C  
HETATM   24  C   UNL     1     -10.322   9.253  67.607  1.00  0.00    -0.311 C  
BRANCH  24  25
HETATM   25  C   UNL     1      -9.941   7.996  66.950  1.00  0.00    -0.268 A  
HETATM   26  C   UNL     1     -10.660   6.832  67.210  1.00  0.00    -0.390 A  
HETATM   27  C   UNL     1     -10.237   5.635  66.637  1.00  0.00    -0.276 A  
HETATM   28  C   UNL     1      -9.114   5.634  65.819  1.00  0.00    -0.139 A  
HETATM   29  C   UNL     1      -8.467   6.837  65.599  1.00  0.00    -0.138 A  
HETATM   30  N   UNL     1      -8.857   8.013  66.141  1.00  0.00    -0.159 NA 
ENDBRANCH  24  25
ENDBRANCH  22  23
ENDBRANCH  12  13
ENDBRANCH   7  12
ENDBRANCH   3   6
TORSDOF 5
ENDMDL
MODEL       75
REMARK 921   NORMALIZED FREE ENERGY PREDICTED BY IDOCK:   -5.36 KCAL/MOL
REMARK 922        TOTAL FREE ENERGY PREDICTED BY IDOCK:   -7.95 KCAL/MOL
REMARK 923 INTER-LIGAND FREE ENERGY PREDICTED BY IDOCK:   -6.75 KCAL/MOL
REMARK 924 INTRA-LIGAND FREE ENERGY PREDICTED BY IDOCK:   -1.20 KCAL/MOL
REMARK 927      BINDING AFFINITY PREDICTED BY RF-SCORE:    0.00 PKD
ROOT
HETATM    1  C   UNL     1     -11.946   9.641  71.243  1.00  0.00    -0.380 C  
HETATM    2  N   UNL     1     -11.374   8.395  71.676  1.00  0.00    -0.268 N  
HETATM    3  C   UNL     1     -12.040   7.201  71.503  1.00  0.00    -0.342 C  
HETATM    4  H   UNL     1     -10.456   8.395  72.121  1.00  0.00     0.000 HD 
HETATM    5  O   UNL     1     -13.212   7.125  71.148  1.00  0.00    -0.347 OA 
ENDROOT
BRANCH   3   6
HETATM    6  C   UNL     1     -11.269   5.964  71.840  1.00  0.00    -0.323 A  
HETATM    7  C   UNL     1     -10.493   5.235  70.906  1.00  0.00    -0.215 A  
HETATM    8  C   UNL     1      -9.756   4.136  71.372  1.00  0.00    -0.251 A  
HETATM    9  C   UNL     1     -10.647   4.421  73.607  1.00  0.00    -0.309 A  
HETATM   10  C   UNL     1      -9.825   3.739  72.715  1.00  0.00    -0.202 A  
HETATM   11  C   UNL     1     -11.363   5.533  73.173  1.00  0.00    -0.282 A  
BRANCH   7  12
HETATM   12  S   UNL     1     -10.660   5.540  69.150  1.00  0.00    -0.181 SA 
BRANCH  12  13
HETATM   13  C   UNL     1      -9.913   7.105  68.765  1.00  0.00    -0.163 A  
HETATM   14  C   UNL     1     -10.602   7.926  67.869  1.00  0.00    -0.215 A  
HETATM   15  C   UNL     1     -10.229   9.259  67.658  1.00  0.00    -0.285 A  
HETATM   16  C   UNL     1      -9.141   9.789  68.376  1.00  0.00    -0.123 A  
HETATM   17  C   UNL     1      -8.473   8.955  69.269  1.00  0.00    -0.121 A  
HETATM   18  C   UNL     1      -8.814   7.607  69.477  1.00  0.00    -0.139 A  
HETATM   19  N   UNL     1      -7.530   9.754  69.856  1.00  0.00    -0.122 NA 
HETATM   20  N   UNL     1      -7.523  11.021  69.416  1.00  0.00    -0.108 NA 
HETATM   21  H   UNL     1      -6.885   9.415  70.569  1.00  0.00     0.000 HD 
HETATM   22  C   UNL     1      -8.481  11.055  68.480  1.00  0.00    -0.153 A  
BRANCH  22  23
HETATM   23  C   UNL     1      -8.747  12.248  67.731  1.00  0.00    -0.174 C  
HETATM   24  C   UNL     1      -9.797  13.074  67.899  1.00  0.00    -0.224 C  
BRANCH  24  25
HETATM   25  C   UNL     1     -10.092  14.230  67.044  1.00  0.00    -0.260 A  
HETATM   26  C   UNL     1     -10.280  14.050  65.675  1.00  0.00    -0.351 A  
HETATM   27  C   UNL     1     -10.483  15.168  64.870  1.00  0.00    -0.350 A  
HETATM   28  C   UNL     1     -10.496  16.430  65.449  1.00  0.00    -0.333 A  
HETATM   29  C   UNL     1     -10.317  16.519  66.818  1.00  0.00    -0.296 A  
HETATM   30  N   UNL     1     -10.121  15.452  67.625  1.00  0.00    -0.234 NA 
ENDBRANCH  24  25
ENDBRANCH  22  23
ENDBRANCH  12  13
ENDBRANCH   7  12
ENDBRANCH   3   6
TORSDOF 5
ENDMDL
MODEL       76
REMARK 921   NORMALIZED FREE ENERGY PREDICTED BY IDOCK:   -5.36 KCAL/MOL
REMARK 922        TOTAL FREE ENERGY PREDICTED BY IDOCK:   -7.95 KCAL/MOL
REMARK 923 INTER-LIGAND FREE ENERGY PREDICTED BY IDOCK:   -7.39 KCAL/MOL
REMARK 924 INTRA-LIGAND FREE ENERGY PREDICTED BY IDOCK:   -0.55 KCAL/MOL
REMARK 927      BINDING AFFINITY PREDICTED BY RF-SCORE:    0.00 PKD
ROOT
HETATM    1  C   UNL     1      -9.377   6.044  66.928  1.00  0.00    -0.131 C  
HETATM    2  N   UNL     1      -9.738   7.190  66.138  1.00  0.00    -0.417 N  
HETATM    3  C   UNL     1      -9.046   8.378  66.239  1.00  0.00    -0.194 C  
HETATM    4  H   UNL     1     -10.523   7.123  65.490  1.00  0.00     0.000 HD 
HETATM    5  O   UNL     1      -8.215   8.604  67.113  1.00  0.00    -0.106 OA 
ENDROOT
BRANCH   3   6
HETATM    6  C   UNL     1      -9.409   9.436  65.246  1.00  0.00    -0.303 A  
HETATM    7  C   UNL     1     -10.188  10.578  65.555  1.00  0.00    -0.256 A  
HETATM    8  C   UNL     1     -10.390  11.535  64.549  1.00  0.00    -0.354 A  
HETATM    9  C   UNL     1      -9.173  10.183  62.949  1.00  0.00    -0.316 A  
HETATM   10  C   UNL     1      -9.876  11.342  63.259  1.00  0.00    -0.428 A  
HETATM   11  C   UNL     1      -8.935   9.235  63.941  1.00  0.00    -0.092 A  
BRANCH   7  12
HETATM   12  S   UNL     1     -11.105  10.664  67.090  1.00  0.00    -0.102 SA 
BRANCH  12  13
HETATM   13  C   UNL     1     -10.760  12.217  67.880  1.00  0.00    -0.215 A  
HETATM   14  C   UNL     1      -9.714  12.974  67.346  1.00  0.00    -0.213 A  
HETATM   15  C   UNL     1      -9.490  14.298  67.740  1.00  0.00    -0.216 A  
HETATM   16  C   UNL     1     -10.348  14.887  68.688  1.00  0.00    -0.237 A  
HETATM   17  C   UNL     1     -11.388  14.117  69.202  1.00  0.00    -0.279 A  
HETATM   18  C   UNL     1     -11.615  12.777  68.840  1.00  0.00    -0.362 A  
HETATM   19  N   UNL     1     -12.077  14.964  70.027  1.00  0.00    -0.319 NA 
HETATM   20  N   UNL     1     -11.570  16.203  70.098  1.00  0.00    -0.300 NA 
HETATM   21  H   UNL     1     -12.907  14.677  70.545  1.00  0.00     0.000 HD 
HETATM   22  C   UNL     1     -10.486  16.167  69.312  1.00  0.00    -0.267 A  
BRANCH  22  23
HETATM   23  C   UNL     1      -9.634  17.312  69.168  1.00  0.00    -0.091 C  
HETATM   24  C   UNL     1      -9.061  17.735  68.026  1.00  0.00    -0.269 C  
BRANCH  24  25
HETATM   25  C   UNL     1      -8.109  18.851  67.936  1.00  0.00    -0.272 A  
HETATM   26  C   UNL     1      -7.238  19.106  68.992  1.00  0.00    -0.370 A  
HETATM   27  C   UNL     1      -6.397  20.214  68.921  1.00  0.00    -0.358 A  
HETATM   28  C   UNL     1      -6.446  21.032  67.800  1.00  0.00    -0.407 A  
HETATM   29  C   UNL     1      -7.329  20.698  66.788  1.00  0.00    -0.235 A  
HETATM   30  N   UNL     1      -8.155  19.628  66.830  1.00  0.00    -0.283 NA 
ENDBRANCH  24  25
ENDBRANCH  22  23
ENDBRANCH  12  13
ENDBRANCH   7  12
ENDBRANCH   3   6
TORSDOF 5
ENDMDL
MODEL       77
REMARK 921   NORMALIZED FREE ENERGY PREDICTED BY IDOCK:   -5.34 KCAL/MOL
REMARK 922        TOTAL FREE ENERGY PREDICTED BY IDOCK:   -7.93 KCAL/MOL
REMARK 923 INTER-LIGAND FREE ENERGY PREDICTED BY IDOCK:   -7.12 KCAL/MOL
REMARK 924 INTRA-LIGAND FREE ENERGY PREDICTED BY IDOCK:   -0.81 KCAL/MOL
REMARK 927      BINDING AFFINITY PREDICTED BY RF-SCORE:    0.00 PKD
ROOT
HETATM    1  C   UNL     1      -9.747   2.902  71.251  1.00  0.00    -0.135 C  
HETATM    2  N   UNL     1      -9.492   3.464  69.953  1.00  0.00    -0.178 N  
HETATM    3  C   UNL     1      -9.960   4.714  69.607  1.00  0.00    -0.211 C  
HETATM    4  H   UNL     1      -8.953   2.927  69.272  1.00  0.00     0.000 HD 
HETATM    5  O   UNL     1     -10.761   5.348  70.287  1.00  0.00    -0.285 OA 
ENDROOT
BRANCH   3   6
HETATM    6  C   UNL     1      -9.486   5.254  68.295  1.00  0.00    -0.155 A  
HETATM    7  C   UNL     1      -8.601   6.352  68.164  1.00  0.00    -0.117 A  
HETATM    8  C   UNL     1      -8.173   6.708  66.875  1.00  0.00    -0.113 A  
HETATM    9  C   UNL     1      -9.572   4.995  65.883  1.00  0.00    -0.176 A  
HETATM   10  C   UNL     1      -8.648   6.026  65.746  1.00  0.00    -0.155 A  
HETATM   11  C   UNL     1      -9.985   4.606  67.155  1.00  0.00    -0.215 A  
BRANCH   7  12
HETATM   12  S   UNL     1      -8.256   7.414  69.562  1.00  0.00    -0.132 SA 
BRANCH  12  13
HETATM   13  C   UNL     1      -8.992   9.005  69.271  1.00  0.00    -0.144 A  
HETATM   14  C   UNL     1      -8.125  10.099  69.232  1.00  0.00    -0.149 A  
HETATM   15  C   UNL     1      -8.553  11.360  68.798  1.00  0.00    -0.085 A  
HETATM   16  C   UNL     1      -9.885  11.526  68.379  1.00  0.00    -0.204 A  
HETATM   17  C   UNL     1     -10.731  10.419  68.419  1.00  0.00    -0.225 A  
HETATM   18  C   UNL     1     -10.329   9.151  68.876  1.00  0.00    -0.232 A  
HETATM   19  N   UNL     1     -11.914  10.863  67.895  1.00  0.00    -0.735 NA 
HETATM   20  N   UNL     1     -11.912  12.154  67.532  1.00  0.00    -0.553 NA 
HETATM   21  H   UNL     1     -12.732  10.262  67.790  1.00  0.00     0.000 HD 
HETATM   22  C   UNL     1     -10.686  12.589  67.854  1.00  0.00    -0.217 A  
BRANCH  22  23
HETATM   23  C   UNL     1     -10.309  13.959  67.659  1.00  0.00    -0.242 C  
HETATM   24  C   UNL     1     -10.970  15.037  68.119  1.00  0.00    -0.281 C  
BRANCH  24  25
HETATM   25  C   UNL     1     -10.610  16.428  67.811  1.00  0.00    -0.321 A  
HETATM   26  C   UNL     1     -10.362  17.325  68.847  1.00  0.00    -0.352 A  
HETATM   27  C   UNL     1     -10.098  18.657  68.537  1.00  0.00    -0.426 A  
HETATM   28  C   UNL     1     -10.085  19.055  67.206  1.00  0.00    -0.436 A  
HETATM   29  C   UNL     1     -10.326  18.096  66.238  1.00  0.00    -0.397 A  
HETATM   30  N   UNL     1     -10.583  16.797  66.510  1.00  0.00    -0.250 NA 
ENDBRANCH  24  25
ENDBRANCH  22  23
ENDBRANCH  12  13
ENDBRANCH   7  12
ENDBRANCH   3   6
TORSDOF 5
ENDMDL
MODEL       78
REMARK 921   NORMALIZED FREE ENERGY PREDICTED BY IDOCK:   -5.30 KCAL/MOL
REMARK 922        TOTAL FREE ENERGY PREDICTED BY IDOCK:   -7.87 KCAL/MOL
REMARK 923 INTER-LIGAND FREE ENERGY PREDICTED BY IDOCK:   -7.07 KCAL/MOL
REMARK 924 INTRA-LIGAND FREE ENERGY PREDICTED BY IDOCK:   -0.80 KCAL/MOL
REMARK 927      BINDING AFFINITY PREDICTED BY RF-SCORE:    0.00 PKD
ROOT
HETATM    1  C   UNL     1      -9.959  18.406  66.284  1.00  0.00    -0.366 C  
HETATM    2  N   UNL     1     -10.645  17.543  67.206  1.00  0.00    -0.323 N  
HETATM    3  C   UNL     1     -10.271  16.226  67.370  1.00  0.00    -0.275 C  
HETATM    4  H   UNL     1     -11.424  17.912  67.751  1.00  0.00     0.000 HD 
HETATM    5  O   UNL     1      -9.474  15.652  66.635  1.00  0.00    -0.230 OA 
ENDROOT
BRANCH   3   6
HETATM    6  C   UNL     1     -10.950  15.484  68.478  1.00  0.00    -0.288 A  
HETATM    7  C   UNL     1     -11.772  14.347  68.282  1.00  0.00    -0.341 A  
HETATM    8  C   UNL     1     -12.285  13.697  69.415  1.00  0.00    -0.307 A  
HETATM    9  C   UNL     1     -11.280  15.346  70.878  1.00  0.00    -0.397 A  
HETATM   10  C   UNL     1     -12.031  14.188  70.703  1.00  0.00    -0.385 A  
HETATM   11  C   UNL     1     -10.736  15.989  69.769  1.00  0.00    -0.331 A  
BRANCH   7  12
HETATM   12  S   UNL     1     -12.356  13.919  66.645  1.00  0.00    -0.278 SA 
BRANCH  12  13
HETATM   13  C   UNL     1     -11.193  12.808  65.892  1.00  0.00    -0.300 A  
HETATM   14  C   UNL     1     -10.912  11.629  66.586  1.00  0.00    -0.349 A  
HETATM   15  C   UNL     1     -10.187  10.585  65.998  1.00  0.00    -0.310 A  
HETATM   16  C   UNL     1      -9.741  10.723  64.670  1.00  0.00    -0.344 A  
HETATM   17  C   UNL     1     -10.039  11.904  63.994  1.00  0.00    -0.334 A  
HETATM   18  C   UNL     1     -10.742  12.974  64.575  1.00  0.00    -0.404 A  
HETATM   19  N   UNL     1      -9.549  11.717  62.730  1.00  0.00    -0.567 NA 
HETATM   20  N   UNL     1      -8.955  10.531  62.534  1.00  0.00    -0.245 NA 
HETATM   21  H   UNL     1      -9.628  12.423  61.998  1.00  0.00     0.000 HD 
HETATM   22  C   UNL     1      -9.030   9.919  63.723  1.00  0.00    -0.250 A  
BRANCH  22  23
HETATM   23  C   UNL     1      -8.450   8.624  63.930  1.00  0.00    -0.075 C  
HETATM   24  C   UNL     1      -7.476   8.063  63.190  1.00  0.00    -0.118 C  
BRANCH  24  25
HETATM   25  C   UNL     1      -6.979   6.692  63.369  1.00  0.00    -0.052 A  
HETATM   26  C   UNL     1      -5.634   6.407  63.148  1.00  0.00    -0.022 A  
HETATM   27  C   UNL     1      -5.198   5.088  63.247  1.00  0.00    -0.009 A  
HETATM   28  C   UNL     1      -6.112   4.094  63.568  1.00  0.00    -0.018 A  
HETATM   29  C   UNL     1      -7.427   4.464  63.788  1.00  0.00    -0.055 A  
HETATM   30  N   UNL     1      -7.878   5.736  63.700  1.00  0.00    -0.101 NA 
ENDBRANCH  24  25
ENDBRANCH  22  23
ENDBRANCH  12  13
ENDBRANCH   7  12
ENDBRANCH   3   6
TORSDOF 5
ENDMDL
MODEL       79
REMARK 921   NORMALIZED FREE ENERGY PREDICTED BY IDOCK:   -5.24 KCAL/MOL
REMARK 922        TOTAL FREE ENERGY PREDICTED BY IDOCK:   -7.79 KCAL/MOL
REMARK 923 INTER-LIGAND FREE ENERGY PREDICTED BY IDOCK:   -6.83 KCAL/MOL
REMARK 924 INTRA-LIGAND FREE ENERGY PREDICTED BY IDOCK:   -0.96 KCAL/MOL
REMARK 927      BINDING AFFINITY PREDICTED BY RF-SCORE:    0.00 PKD
ROOT
HETATM    1  C   UNL     1     -11.010   5.993  68.824  1.00  0.00    -0.312 C  
HETATM    2  N   UNL     1      -9.764   6.192  69.514  1.00  0.00    -0.144 N  
HETATM    3  C   UNL     1      -9.147   5.163  70.192  1.00  0.00    -0.128 C  
HETATM    4  H   UNL     1      -9.327   7.114  69.501  1.00  0.00     0.000 HD 
HETATM    5  O   UNL     1      -9.682   4.081  70.413  1.00  0.00    -0.187 OA 
ENDROOT
BRANCH   3   6
HETATM    6  C   UNL     1      -7.779   5.452  70.723  1.00  0.00    -0.090 A  
HETATM    7  C   UNL     1      -7.464   5.529  72.102  1.00  0.00    -0.099 A  
HETATM    8  C   UNL     1      -6.123   5.731  72.465  1.00  0.00    -0.040 A  
HETATM    9  C   UNL     1      -5.464   5.893  70.139  1.00  0.00    -0.012 A  
HETATM   10  C   UNL     1      -5.131   5.900  71.489  1.00  0.00    -0.016 A  
HETATM   11  C   UNL     1      -6.784   5.664  69.756  1.00  0.00    -0.052 A  
BRANCH   7  12
HETATM   12  S   UNL     1      -8.764   5.638  73.326  1.00  0.00    -0.117 SA 
BRANCH  12  13
HETATM   13  C   UNL     1      -9.847   6.980  72.898  1.00  0.00    -0.177 A  
HETATM   14  C   UNL     1      -9.254   8.102  72.314  1.00  0.00    -0.266 A  
HETATM   15  C   UNL     1     -10.021   9.122  71.739  1.00  0.00    -0.257 A  
HETATM   16  C   UNL     1     -11.424   9.009  71.738  1.00  0.00    -0.442 A  
HETATM   17  C   UNL     1     -11.993   7.878  72.320  1.00  0.00    -0.337 A  
HETATM   18  C   UNL     1     -11.243   6.855  72.926  1.00  0.00    -0.254 A  
HETATM   19  N   UNL     1     -13.338   8.014  72.106  1.00  0.00    -0.501 NA 
HETATM   20  N   UNL     1     -13.686   9.131  71.451  1.00  0.00    -0.331 NA 
HETATM   21  H   UNL     1     -14.019   7.324  72.420  1.00  0.00     0.000 HD 
HETATM   22  C   UNL     1     -12.529   9.774  71.248  1.00  0.00    -0.367 A  
BRANCH  22  23
HETATM   23  C   UNL     1     -12.494  11.058  70.608  1.00  0.00    -0.465 C  
HETATM   24  C   UNL     1     -11.808  11.370  69.493  1.00  0.00    -0.426 C  
BRANCH  24  25
HETATM   25  C   UNL     1     -11.712  12.721  68.925  1.00  0.00    -0.326 A  
HETATM   26  C   UNL     1     -11.058  12.919  67.712  1.00  0.00    -0.291 A  
HETATM   27  C   UNL     1     -10.911  14.217  67.228  1.00  0.00    -0.288 A  
HETATM   28  C   UNL     1     -11.421  15.277  67.965  1.00  0.00    -0.351 A  
HETATM   29  C   UNL     1     -12.071  14.992  69.153  1.00  0.00    -0.225 A  
HETATM   30  N   UNL     1     -12.230  13.743  69.644  1.00  0.00    -0.329 NA 
ENDBRANCH  24  25
ENDBRANCH  22  23
ENDBRANCH  12  13
ENDBRANCH   7  12
ENDBRANCH   3   6
TORSDOF 5
ENDMDL
MODEL       80
REMARK 921   NORMALIZED FREE ENERGY PREDICTED BY IDOCK:   -5.23 KCAL/MOL
REMARK 922        TOTAL FREE ENERGY PREDICTED BY IDOCK:   -7.78 KCAL/MOL
REMARK 923 INTER-LIGAND FREE ENERGY PREDICTED BY IDOCK:   -6.77 KCAL/MOL
REMARK 924 INTRA-LIGAND FREE ENERGY PREDICTED BY IDOCK:   -1.02 KCAL/MOL
REMARK 927      BINDING AFFINITY PREDICTED BY RF-SCORE:    0.00 PKD
ROOT
HETATM    1  C   UNL     1      -9.194  11.197  62.593  1.00  0.00    -0.323 C  
HETATM    2  N   UNL     1      -8.566  10.835  63.834  1.00  0.00    -0.345 N  
HETATM    3  C   UNL     1      -8.293   9.520  64.144  1.00  0.00    -0.172 C  
HETATM    4  H   UNL     1      -8.316  11.567  64.500  1.00  0.00     0.000 HD 
HETATM    5  O   UNL     1      -8.718   8.570  63.494  1.00  0.00    -0.018 OA 
ENDROOT
BRANCH   3   6
HETATM    6  C   UNL     1      -7.488   9.290  65.384  1.00  0.00    -0.098 A  
HETATM    7  C   UNL     1      -8.049   8.976  66.646  1.00  0.00    -0.107 A  
HETATM    8  C   UNL     1      -7.176   8.707  67.711  1.00  0.00    -0.088 A  
HETATM    9  C   UNL     1      -5.250   9.174  66.316  1.00  0.00    -0.036 A  
HETATM   10  C   UNL     1      -5.787   8.795  67.543  1.00  0.00    -0.043 A  
HETATM   11  C   UNL     1      -6.098   9.415  65.238  1.00  0.00    -0.065 A  
BRANCH   7  12
HETATM   12  S   UNL     1      -9.803   9.181  66.937  1.00  0.00    -0.239 SA 
BRANCH  12  13
HETATM   13  C   UNL     1     -10.220  10.898  66.753  1.00  0.00    -0.231 A  
HETATM   14  C   UNL     1      -9.397  11.817  67.408  1.00  0.00    -0.174 A  
HETATM   15  C   UNL     1      -9.491  13.193  67.163  1.00  0.00    -0.239 A  
HETATM   16  C   UNL     1     -10.429  13.660  66.225  1.00  0.00    -0.291 A  
HETATM   17  C   UNL     1     -11.235  12.725  65.578  1.00  0.00    -0.294 A  
HETATM   18  C   UNL     1     -11.175  11.343  65.828  1.00  0.00    -0.157 A  
HETATM   19  N   UNL     1     -11.979  13.457  64.693  1.00  0.00    -0.381 NA 
HETATM   20  N   UNL     1     -11.733  14.775  64.717  1.00  0.00    -0.413 NA 
HETATM   21  H   UNL     1     -12.663  13.035  64.066  1.00  0.00     0.000 HD 
HETATM   22  C   UNL     1     -10.811  14.925  65.677  1.00  0.00    -0.341 A  
BRANCH  22  23
HETATM   23  C   UNL     1     -10.321  16.224  66.040  1.00  0.00    -0.363 C  
HETATM   24  C   UNL     1      -9.032  16.562  66.225  1.00  0.00    -0.359 C  
BRANCH  24  25
HETATM   25  C   UNL     1      -8.575  17.875  66.699  1.00  0.00    -0.262 A  
HETATM   26  C   UNL     1      -8.651  18.188  68.054  1.00  0.00    -0.272 A  
HETATM   27  C   UNL     1      -8.286  19.464  68.474  1.00  0.00    -0.392 A  
HETATM   28  C   UNL     1      -7.853  20.390  67.534  1.00  0.00    -0.332 A  
HETATM   29  C   UNL     1      -7.792  19.993  66.210  1.00  0.00    -0.298 A  
HETATM   30  N   UNL     1      -8.138  18.761  65.775  1.00  0.00    -0.435 NA 
ENDBRANCH  24  25
ENDBRANCH  22  23
ENDBRANCH  12  13
ENDBRANCH   7  12
ENDBRANCH   3   6
TORSDOF 5
ENDMDL
MODEL       81
REMARK 921   NORMALIZED FREE ENERGY PREDICTED BY IDOCK:   -5.22 KCAL/MOL
REMARK 922        TOTAL FREE ENERGY PREDICTED BY IDOCK:   -7.77 KCAL/MOL
REMARK 923 INTER-LIGAND FREE ENERGY PREDICTED BY IDOCK:   -6.79 KCAL/MOL
REMARK 924 INTRA-LIGAND FREE ENERGY PREDICTED BY IDOCK:   -0.98 KCAL/MOL
REMARK 927      BINDING AFFINITY PREDICTED BY RF-SCORE:    0.00 PKD
ROOT
HETATM    1  C   UNL     1      -8.918   6.183  67.670  1.00  0.00    -0.111 C  
HETATM    2  N   UNL     1      -9.085   5.629  68.986  1.00  0.00    -0.111 N  
HETATM    3  C   UNL     1      -8.019   5.105  69.684  1.00  0.00    -0.079 C  
HETATM    4  H   UNL     1     -10.012   5.624  69.411  1.00  0.00     0.000 HD 
HETATM    5  O   UNL     1      -6.915   4.904  69.186  1.00  0.00    -0.049 OA 
ENDROOT
BRANCH   3   6
HETATM    6  C   UNL     1      -8.290   4.716  71.103  1.00  0.00    -0.106 A  
HETATM    7  C   UNL     1      -8.166   5.599  72.204  1.00  0.00    -0.112 A  
HETATM    8  C   UNL     1      -8.527   5.128  73.476  1.00  0.00    -0.112 A  
HETATM    9  C   UNL     1      -9.002   2.927  72.580  1.00  0.00    -0.111 A  
HETATM   10  C   UNL     1      -8.952   3.804  73.659  1.00  0.00    -0.088 A  
HETATM   11  C   UNL     1      -8.677   3.382  71.305  1.00  0.00    -0.122 A  
BRANCH   7  12
HETATM   12  S   UNL     1      -7.324   7.167  72.021  1.00  0.00    -0.081 SA 
BRANCH  12  13
HETATM   13  C   UNL     1      -8.471   8.365  71.385  1.00  0.00    -0.155 A  
HETATM   14  C   UNL     1      -8.234   8.836  70.091  1.00  0.00    -0.117 A  
HETATM   15  C   UNL     1      -9.180   9.608  69.406  1.00  0.00    -0.196 A  
HETATM   16  C   UNL     1     -10.404   9.907  70.031  1.00  0.00    -0.320 A  
HETATM   17  C   UNL     1     -10.623   9.422  71.318  1.00  0.00    -0.330 A  
HETATM   18  C   UNL     1      -9.676   8.667  72.034  1.00  0.00    -0.391 A  
HETATM   19  N   UNL     1     -11.899   9.806  71.625  1.00  0.00    -0.390 NA 
HETATM   20  N   UNL     1     -12.518  10.501  70.660  1.00  0.00    -0.341 NA 
HETATM   21  H   UNL     1     -12.344   9.582  72.516  1.00  0.00     0.000 HD 
HETATM   22  C   UNL     1     -11.605  10.606  69.686  1.00  0.00    -0.296 A  
BRANCH  22  23
HETATM   23  C   UNL     1     -11.881  11.338  68.484  1.00  0.00    -0.355 C  
HETATM   24  C   UNL     1     -11.227  11.217  67.313  1.00  0.00    -0.347 C  
BRANCH  24  25
HETATM   25  C   UNL     1     -11.469  12.058  66.134  1.00  0.00    -0.339 A  
HETATM   26  C   UNL     1     -10.898  11.718  64.910  1.00  0.00    -0.353 A  
HETATM   27  C   UNL     1     -11.075  12.569  63.823  1.00  0.00    -0.503 A  
HETATM   28  C   UNL     1     -11.820  13.731  63.984  1.00  0.00    -0.410 A  
HETATM   29  C   UNL     1     -12.367  13.986  65.229  1.00  0.00    -0.465 A  
HETATM   30  N   UNL     1     -12.212  13.177  66.301  1.00  0.00    -0.393 NA 
ENDBRANCH  24  25
ENDBRANCH  22  23
ENDBRANCH  12  13
ENDBRANCH   7  12
ENDBRANCH   3   6
TORSDOF 5
ENDMDL
MODEL       82
REMARK 921   NORMALIZED FREE ENERGY PREDICTED BY IDOCK:   -5.22 KCAL/MOL
REMARK 922        TOTAL FREE ENERGY PREDICTED BY IDOCK:   -7.77 KCAL/MOL
REMARK 923 INTER-LIGAND FREE ENERGY PREDICTED BY IDOCK:   -6.91 KCAL/MOL
REMARK 924 INTRA-LIGAND FREE ENERGY PREDICTED BY IDOCK:   -0.85 KCAL/MOL
REMARK 927      BINDING AFFINITY PREDICTED BY RF-SCORE:    0.00 PKD
ROOT
HETATM    1  C   UNL     1     -13.752  14.927  71.486  1.00  0.00    -0.450 C  
HETATM    2  N   UNL     1     -12.814  15.555  70.596  1.00  0.00    -0.565 N  
HETATM    3  C   UNL     1     -11.856  14.821  69.929  1.00  0.00    -0.316 C  
HETATM    4  H   UNL     1     -12.858  16.565  70.454  1.00  0.00     0.000 HD 
HETATM    5  O   UNL     1     -11.614  13.644  70.174  1.00  0.00    -0.236 OA 
ENDROOT
BRANCH   3   6
HETATM    6  C   UNL     1     -11.054  15.563  68.907  1.00  0.00    -0.282 A  
HETATM    7  C   UNL     1     -11.233  15.427  67.508  1.00  0.00    -0.302 A  
HETATM    8  C   UNL     1     -10.467  16.241  66.660  1.00  0.00    -0.290 A  
HETATM    9  C   UNL     1      -9.298  17.200  68.553  1.00  0.00    -0.274 A  
HETATM   10  C   UNL     1      -9.514  17.127  67.180  1.00  0.00    -0.249 A  
HETATM   11  C   UNL     1     -10.069  16.424  69.414  1.00  0.00    -0.243 A  
BRANCH   7  12
HETATM   12  S   UNL     1     -12.204  14.078  66.843  1.00  0.00    -0.291 SA 
BRANCH  12  13
HETATM   13  C   UNL     1     -11.162  12.650  66.670  1.00  0.00    -0.300 A  
HETATM   14  C   UNL     1     -11.531  11.513  67.392  1.00  0.00    -0.349 A  
HETATM   15  C   UNL     1     -10.921  10.272  67.171  1.00  0.00    -0.233 A  
HETATM   16  C   UNL     1      -9.919  10.166  66.188  1.00  0.00    -0.310 A  
HETATM   17  C   UNL     1      -9.572  11.311  65.475  1.00  0.00    -0.228 A  
HETATM   18  C   UNL     1     -10.153  12.572  65.699  1.00  0.00    -0.285 A  
HETATM   19  N   UNL     1      -8.644  10.887  64.563  1.00  0.00    -0.365 NA 
HETATM   20  N   UNL     1      -8.356   9.580  64.629  1.00  0.00    -0.146 NA 
HETATM   21  H   UNL     1      -8.207  11.515  63.887  1.00  0.00     0.000 HD 
HETATM   22  C   UNL     1      -9.101   9.125  65.645  1.00  0.00    -0.219 A  
BRANCH  22  23
HETATM   23  C   UNL     1      -9.030   7.755  66.064  1.00  0.00    -0.185 C  
HETATM   24  C   UNL     1      -8.283   6.789  65.497  1.00  0.00    -0.131 C  
BRANCH  24  25
HETATM   25  C   UNL     1      -8.316   5.374  65.889  1.00  0.00    -0.123 A  
HETATM   26  C   UNL     1      -7.201   4.568  65.670  1.00  0.00    -0.072 A  
HETATM   27  C   UNL     1      -7.278   3.212  65.977  1.00  0.00    -0.070 A  
HETATM   28  C   UNL     1      -8.459   2.699  66.497  1.00  0.00    -0.104 A  
HETATM   29  C   UNL     1      -9.514   3.572  66.699  1.00  0.00    -0.156 A  
HETATM   30  N   UNL     1      -9.467   4.892  66.412  1.00  0.00    -0.143 NA 
ENDBRANCH  24  25
ENDBRANCH  22  23
ENDBRANCH  12  13
ENDBRANCH   7  12
ENDBRANCH   3   6
TORSDOF 5
ENDMDL
MODEL       83
REMARK 921   NORMALIZED FREE ENERGY PREDICTED BY IDOCK:   -5.20 KCAL/MOL
REMARK 922        TOTAL FREE ENERGY PREDICTED BY IDOCK:   -7.74 KCAL/MOL
REMARK 923 INTER-LIGAND FREE ENERGY PREDICTED BY IDOCK:   -6.74 KCAL/MOL
REMARK 924 INTRA-LIGAND FREE ENERGY PREDICTED BY IDOCK:   -1.00 KCAL/MOL
REMARK 927      BINDING AFFINITY PREDICTED BY RF-SCORE:    0.00 PKD
ROOT
HETATM    1  C   UNL     1      -6.255   8.231  73.428  1.00  0.00    -0.100 C  
HETATM    2  N   UNL     1      -6.747   7.201  72.555  1.00  0.00    -0.063 N  
HETATM    3  C   UNL     1      -7.126   5.968  73.042  1.00  0.00    -0.084 C  
HETATM    4  H   UNL     1      -6.818   7.385  71.554  1.00  0.00     0.000 HD 
HETATM    5  O   UNL     1      -6.907   5.598  74.191  1.00  0.00    -0.079 OA 
ENDROOT
BRANCH   3   6
HETATM    6  C   UNL     1      -7.778   5.046  72.061  1.00  0.00    -0.104 A  
HETATM    7  C   UNL     1      -9.159   5.069  71.748  1.00  0.00    -0.137 A  
HETATM    8  C   UNL     1      -9.628   4.200  70.751  1.00  0.00    -0.260 A  
HETATM    9  C   UNL     1      -7.420   3.237  70.482  1.00  0.00    -0.040 A  
HETATM   10  C   UNL     1      -8.761   3.299  70.116  1.00  0.00    -0.126 A  
HETATM   11  C   UNL     1      -6.928   4.111  71.448  1.00  0.00    -0.035 A  
BRANCH   7  12
HETATM   12  S   UNL     1     -10.308   5.979  72.776  1.00  0.00    -0.209 SA 
BRANCH  12  13
HETATM   13  C   UNL     1     -10.639   7.550  72.017  1.00  0.00    -0.211 A  
HETATM   14  C   UNL     1      -9.983   7.815  70.812  1.00  0.00    -0.184 A  
HETATM   15  C   UNL     1     -10.326   8.915  70.016  1.00  0.00    -0.219 A  
HETATM   16  C   UNL     1     -11.364   9.767  70.433  1.00  0.00    -0.362 A  
HETATM   17  C   UNL     1     -12.009   9.480  71.634  1.00  0.00    -0.401 A  
HETATM   18  C   UNL     1     -11.663   8.397  72.462  1.00  0.00    -0.429 A  
HETATM   19  N   UNL     1     -12.997  10.422  71.735  1.00  0.00    -0.454 NA 
HETATM   20  N   UNL     1     -13.041  11.292  70.717  1.00  0.00    -0.066 NA 
HETATM   21  H   UNL     1     -13.646  10.459  72.521  1.00  0.00     0.000 HD 
HETATM   22  C   UNL     1     -12.024  10.931  69.924  1.00  0.00    -0.353 A  
BRANCH  22  23
HETATM   23  C   UNL     1     -11.710  11.668  68.734  1.00  0.00    -0.392 C  
HETATM   24  C   UNL     1     -11.359  12.966  68.674  1.00  0.00    -0.327 C  
BRANCH  24  25
HETATM   25  C   UNL     1     -11.147  13.714  67.428  1.00  0.00    -0.282 A  
HETATM   26  C   UNL     1     -12.047  13.577  66.374  1.00  0.00    -0.467 A  
HETATM   27  C   UNL     1     -11.787  14.234  65.174  1.00  0.00    -0.384 A  
HETATM   28  C   UNL     1     -10.642  15.010  65.060  1.00  0.00    -0.437 A  
HETATM   29  C   UNL     1      -9.808  15.107  66.160  1.00  0.00    -0.300 A  
HETATM   30  N   UNL     1     -10.037  14.482  67.337  1.00  0.00    -0.235 NA 
ENDBRANCH  24  25
ENDBRANCH  22  23
ENDBRANCH  12  13
ENDBRANCH   7  12
ENDBRANCH   3   6
TORSDOF 5
ENDMDL
MODEL       84
REMARK 921   NORMALIZED FREE ENERGY PREDICTED BY IDOCK:   -5.19 KCAL/MOL
REMARK 922        TOTAL FREE ENERGY PREDICTED BY IDOCK:   -7.73 KCAL/MOL
REMARK 923 INTER-LIGAND FREE ENERGY PREDICTED BY IDOCK:   -7.39 KCAL/MOL
REMARK 924 INTRA-LIGAND FREE ENERGY PREDICTED BY IDOCK:   -0.34 KCAL/MOL
REMARK 927      BINDING AFFINITY PREDICTED BY RF-SCORE:    0.00 PKD
ROOT
HETATM    1  C   UNL     1      -7.133  16.726  66.683  1.00  0.00    -0.240 C  
HETATM    2  N   UNL     1      -8.228  16.177  67.434  1.00  0.00    -0.155 N  
HETATM    3  C   UNL     1      -9.288  15.556  66.808  1.00  0.00    -0.245 C  
HETATM    4  H   UNL     1      -8.222  16.247  68.452  1.00  0.00     0.000 HD 
HETATM    5  O   UNL     1      -9.469  15.586  65.595  1.00  0.00    -0.320 OA 
ENDROOT
BRANCH   3   6
HETATM    6  C   UNL     1     -10.276  14.879  67.704  1.00  0.00    -0.236 A  
HETATM    7  C   UNL     1     -10.315  13.481  67.927  1.00  0.00    -0.249 A  
HETATM    8  C   UNL     1     -11.244  12.983  68.854  1.00  0.00    -0.326 A  
HETATM    9  C   UNL     1     -12.141  15.203  69.224  1.00  0.00    -0.278 A  
HETATM   10  C   UNL     1     -12.142  13.841  69.504  1.00  0.00    -0.386 A  
HETATM   11  C   UNL     1     -11.207  15.722  68.331  1.00  0.00    -0.362 A  
BRANCH   7  12
HETATM   12  S   UNL     1      -9.401  12.366  66.867  1.00  0.00    -0.217 SA 
BRANCH  12  13
HETATM   13  C   UNL     1      -9.609  10.705  67.463  1.00  0.00    -0.161 A  
HETATM   14  C   UNL     1      -9.545  10.523  68.847  1.00  0.00    -0.199 A  
HETATM   15  C   UNL     1      -9.908   9.310  69.445  1.00  0.00    -0.177 A  
HETATM   16  C   UNL     1     -10.359   8.253  68.634  1.00  0.00    -0.225 A  
HETATM   17  C   UNL     1     -10.421   8.458  67.258  1.00  0.00    -0.303 A  
HETATM   18  C   UNL     1     -10.037   9.659  66.634  1.00  0.00    -0.307 A  
HETATM   19  N   UNL     1     -10.952   7.302  66.755  1.00  0.00    -0.545 NA 
HETATM   20  N   UNL     1     -11.229   6.370  67.677  1.00  0.00    -0.280 NA 
HETATM   21  H   UNL     1     -11.124   7.161  65.759  1.00  0.00     0.000 HD 
HETATM   22  C   UNL     1     -10.838   6.919  68.835  1.00  0.00    -0.207 A  
BRANCH  22  23
HETATM   23  C   UNL     1     -10.928   6.195  70.070  1.00  0.00    -0.441 C  
HETATM   24  C   UNL     1      -9.982   5.390  70.588  1.00  0.00    -0.280 C  
BRANCH  24  25
HETATM   25  C   UNL     1     -10.151   4.582  71.803  1.00  0.00    -0.184 A  
HETATM   26  C   UNL     1     -10.714   5.153  72.942  1.00  0.00    -0.300 A  
HETATM   27  C   UNL     1     -10.795   4.394  74.108  1.00  0.00    -0.267 A  
HETATM   28  C   UNL     1     -10.318   3.090  74.103  1.00  0.00    -0.221 A  
HETATM   29  C   UNL     1      -9.788   2.595  72.925  1.00  0.00    -0.122 A  
HETATM   30  N   UNL     1      -9.698   3.308  71.780  1.00  0.00    -0.159 NA 
ENDBRANCH  24  25
ENDBRANCH  22  23
ENDBRANCH  12  13
ENDBRANCH   7  12
ENDBRANCH   3   6
TORSDOF 5
ENDMDL
MODEL       85
REMARK 921   NORMALIZED FREE ENERGY PREDICTED BY IDOCK:   -5.19 KCAL/MOL
REMARK 922        TOTAL FREE ENERGY PREDICTED BY IDOCK:   -7.72 KCAL/MOL
REMARK 923 INTER-LIGAND FREE ENERGY PREDICTED BY IDOCK:   -6.81 KCAL/MOL
REMARK 924 INTRA-LIGAND FREE ENERGY PREDICTED BY IDOCK:   -0.92 KCAL/MOL
REMARK 927      BINDING AFFINITY PREDICTED BY RF-SCORE:    0.00 PKD
ROOT
HETATM    1  C   UNL     1     -12.365  13.041  63.224  1.00  0.00    -0.306 C  
HETATM    2  N   UNL     1     -12.158  13.987  64.286  1.00  0.00    -0.539 N  
HETATM    3  C   UNL     1     -10.933  14.115  64.904  1.00  0.00    -0.397 C  
HETATM    4  H   UNL     1     -12.934  14.577  64.588  1.00  0.00     0.000 HD 
HETATM    5  O   UNL     1     -10.004  13.331  64.734  1.00  0.00    -0.243 OA 
ENDROOT
BRANCH   3   6
HETATM    6  C   UNL     1     -10.800  15.248  65.872  1.00  0.00    -0.345 A  
HETATM    7  C   UNL     1     -11.159  15.166  67.240  1.00  0.00    -0.332 A  
HETATM    8  C   UNL     1     -10.910  16.279  68.058  1.00  0.00    -0.339 A  
HETATM    9  C   UNL     1     -10.084  17.548  66.166  1.00  0.00    -0.317 A  
HETATM   10  C   UNL     1     -10.367  17.457  67.525  1.00  0.00    -0.351 A  
HETATM   11  C   UNL     1     -10.294  16.445  65.343  1.00  0.00    -0.287 A  
BRANCH   7  12
HETATM   12  S   UNL     1     -12.142  13.797  67.842  1.00  0.00    -0.188 SA 
BRANCH  12  13
HETATM   13  C   UNL     1     -11.056  12.567  68.525  1.00  0.00    -0.262 A  
HETATM   14  C   UNL     1     -11.642  11.599  69.345  1.00  0.00    -0.392 A  
HETATM   15  C   UNL     1     -10.936  10.464  69.760  1.00  0.00    -0.345 A  
HETATM   16  C   UNL     1      -9.608  10.286  69.330  1.00  0.00    -0.237 A  
HETATM   17  C   UNL     1      -9.047  11.259  68.506  1.00  0.00    -0.173 A  
HETATM   18  C   UNL     1      -9.729  12.420  68.099  1.00  0.00    -0.214 A  
HETATM   19  N   UNL     1      -7.800  10.784  68.202  1.00  0.00    -0.108 NA 
HETATM   20  N   UNL     1      -7.505   9.601  68.761  1.00  0.00    -0.074 NA 
HETATM   21  H   UNL     1      -7.149  11.287  67.600  1.00  0.00     0.000 HD 
HETATM   22  C   UNL     1      -8.588   9.295  69.488  1.00  0.00    -0.147 A  
BRANCH  22  23
HETATM   23  C   UNL     1      -8.635   8.105  70.287  1.00  0.00    -0.131 C  
HETATM   24  C   UNL     1      -8.445   6.846  69.848  1.00  0.00    -0.140 C  
BRANCH  24  25
HETATM   25  C   UNL     1      -8.605   5.644  70.676  1.00  0.00    -0.130 A  
HETATM   26  C   UNL     1      -9.681   4.788  70.455  1.00  0.00    -0.281 A  
HETATM   27  C   UNL     1      -9.858   3.695  71.300  1.00  0.00    -0.211 A  
HETATM   28  C   UNL     1      -8.957   3.484  72.336  1.00  0.00    -0.126 A  
HETATM   29  C   UNL     1      -7.906   4.373  72.475  1.00  0.00    -0.085 A  
HETATM   30  N   UNL     1      -7.709   5.441  71.670  1.00  0.00    -0.103 NA 
ENDBRANCH  24  25
ENDBRANCH  22  23
ENDBRANCH  12  13
ENDBRANCH   7  12
ENDBRANCH   3   6
TORSDOF 5
ENDMDL
MODEL       86
REMARK 921   NORMALIZED FREE ENERGY PREDICTED BY IDOCK:   -5.18 KCAL/MOL
REMARK 922        TOTAL FREE ENERGY PREDICTED BY IDOCK:   -7.72 KCAL/MOL
REMARK 923 INTER-LIGAND FREE ENERGY PREDICTED BY IDOCK:   -6.73 KCAL/MOL
REMARK 924 INTRA-LIGAND FREE ENERGY PREDICTED BY IDOCK:   -0.98 KCAL/MOL
REMARK 927      BINDING AFFINITY PREDICTED BY RF-SCORE:    0.00 PKD
ROOT
HETATM    1  C   UNL     1      -6.882  11.369  68.621  1.00  0.00    -0.078 C  
HETATM    2  N   UNL     1      -7.696  12.507  68.950  1.00  0.00    -0.319 N  
HETATM    3  C   UNL     1      -8.502  13.109  68.007  1.00  0.00    -0.181 C  
HETATM    4  H   UNL     1      -7.678  12.877  69.900  1.00  0.00     0.000 HD 
HETATM    5  O   UNL     1      -8.451  12.850  66.809  1.00  0.00    -0.137 OA 
ENDROOT
BRANCH   3   6
HETATM    6  C   UNL     1      -9.424  14.173  68.513  1.00  0.00    -0.202 A  
HETATM    7  C   UNL     1     -10.830  14.024  68.607  1.00  0.00    -0.258 A  
HETATM    8  C   UNL     1     -11.571  15.072  69.173  1.00  0.00    -0.333 A  
HETATM    9  C   UNL     1      -9.571  16.416  69.427  1.00  0.00    -0.137 A  
HETATM   10  C   UNL     1     -10.944  16.254  69.589  1.00  0.00    -0.346 A  
HETATM   11  C   UNL     1      -8.813  15.377  68.896  1.00  0.00    -0.211 A  
BRANCH   7  12
HETATM   12  S   UNL     1     -11.656  12.665  67.785  1.00  0.00    -0.358 SA 
BRANCH  12  13
HETATM   13  C   UNL     1     -11.817  11.314  68.929  1.00  0.00    -0.345 A  
HETATM   14  C   UNL     1     -10.803  10.354  68.912  1.00  0.00    -0.273 A  
HETATM   15  C   UNL     1     -10.705   9.372  69.905  1.00  0.00    -0.258 A  
HETATM   16  C   UNL     1     -11.646   9.358  70.952  1.00  0.00    -0.380 A  
HETATM   17  C   UNL     1     -12.644  10.329  70.952  1.00  0.00    -0.371 A  
HETATM   18  C   UNL     1     -12.776  11.309  69.951  1.00  0.00    -0.033 A  
HETATM   19  N   UNL     1     -13.347  10.108  72.105  1.00  0.00    -0.552 NA 
HETATM   20  N   UNL     1     -12.899   9.081  72.841  1.00  0.00    -0.222 NA 
HETATM   21  H   UNL     1     -14.146  10.678  72.383  1.00  0.00     0.000 HD 
HETATM   22  C   UNL     1     -11.877   8.583  72.132  1.00  0.00    -0.379 A  
BRANCH  22  23
HETATM   23  C   UNL     1     -11.160   7.423  72.576  1.00  0.00    -0.350 C  
HETATM   24  C   UNL     1      -9.963   7.418  73.193  1.00  0.00    -0.318 C  
BRANCH  24  25
HETATM   25  C   UNL     1      -9.211   6.205  73.539  1.00  0.00    -0.131 A  
HETATM   26  C   UNL     1      -9.875   5.108  74.081  1.00  0.00    -0.190 A  
HETATM   27  C   UNL     1      -9.134   3.996  74.474  1.00  0.00    -0.111 A  
HETATM   28  C   UNL     1      -7.754   4.009  74.312  1.00  0.00    -0.079 A  
HETATM   29  C   UNL     1      -7.175   5.133  73.751  1.00  0.00    -0.083 A  
HETATM   30  N   UNL     1      -7.870   6.224  73.359  1.00  0.00    -0.098 NA 
ENDBRANCH  24  25
ENDBRANCH  22  23
ENDBRANCH  12  13
ENDBRANCH   7  12
ENDBRANCH   3   6
TORSDOF 5
ENDMDL
MODEL       87
REMARK 921   NORMALIZED FREE ENERGY PREDICTED BY IDOCK:   -5.16 KCAL/MOL
REMARK 922        TOTAL FREE ENERGY PREDICTED BY IDOCK:   -7.70 KCAL/MOL
REMARK 923 INTER-LIGAND FREE ENERGY PREDICTED BY IDOCK:   -6.71 KCAL/MOL
REMARK 924 INTRA-LIGAND FREE ENERGY PREDICTED BY IDOCK:   -0.99 KCAL/MOL
REMARK 927      BINDING AFFINITY PREDICTED BY RF-SCORE:    0.00 PKD
ROOT
HETATM    1  C   UNL     1      -6.875   7.543  71.942  1.00  0.00    -0.061 C  
HETATM    2  N   UNL     1      -7.454   7.178  70.677  1.00  0.00    -0.079 N  
HETATM    3  C   UNL     1      -8.105   5.975  70.506  1.00  0.00    -0.112 C  
HETATM    4  H   UNL     1      -7.381   7.823  69.890  1.00  0.00     0.000 HD 
HETATM    5  O   UNL     1      -8.083   5.070  71.334  1.00  0.00    -0.107 OA 
ENDROOT
BRANCH   3   6
HETATM    6  C   UNL     1      -8.808   5.789  69.198  1.00  0.00    -0.112 A  
HETATM    7  C   UNL     1     -10.153   6.163  68.961  1.00  0.00    -0.173 A  
HETATM    8  C   UNL     1     -10.666   6.004  67.665  1.00  0.00    -0.377 A  
HETATM    9  C   UNL     1      -8.588   5.015  66.909  1.00  0.00    -0.105 A  
HETATM   10  C   UNL     1      -9.885   5.444  66.645  1.00  0.00    -0.193 A  
HETATM   11  C   UNL     1      -8.049   5.191  68.180  1.00  0.00    -0.094 A  
BRANCH   7  12
HETATM   12  S   UNL     1     -11.237   6.570  70.326  1.00  0.00    -0.401 SA 
BRANCH  12  13
HETATM   13  C   UNL     1     -11.343   8.337  70.470  1.00  0.00    -0.219 A  
HETATM   14  C   UNL     1     -10.725   9.086  69.466  1.00  0.00    -0.215 A  
HETATM   15  C   UNL     1     -10.924  10.468  69.352  1.00  0.00    -0.297 A  
HETATM   16  C   UNL     1     -11.777  11.115  70.265  1.00  0.00    -0.431 A  
HETATM   17  C   UNL     1     -12.388  10.348  71.254  1.00  0.00    -0.401 A  
HETATM   18  C   UNL     1     -12.181   8.964  71.402  1.00  0.00    -0.374 A  
HETATM   19  N   UNL     1     -13.195  11.223  71.929  1.00  0.00    -0.461 NA 
HETATM   20  N   UNL     1     -13.152  12.483  71.472  1.00  0.00    -0.348 NA 
HETATM   21  H   UNL     1     -13.781  10.941  72.714  1.00  0.00     0.000 HD 
HETATM   22  C   UNL     1     -12.260  12.446  70.473  1.00  0.00    -0.295 A  
BRANCH  22  23
HETATM   23  C   UNL     1     -11.898  13.634  69.756  1.00  0.00    -0.392 C  
HETATM   24  C   UNL     1     -10.662  14.161  69.665  1.00  0.00     0.016 C  
BRANCH  24  25
HETATM   25  C   UNL     1     -10.347  15.436  69.008  1.00  0.00    -0.243 A  
HETATM   26  C   UNL     1     -11.350  16.141  68.345  1.00  0.00    -0.345 A  
HETATM   27  C   UNL     1     -11.016  17.308  67.663  1.00  0.00    -0.133 A  
HETATM   28  C   UNL     1      -9.696  17.741  67.664  1.00  0.00    -0.282 A  
HETATM   29  C   UNL     1      -8.765  16.991  68.361  1.00  0.00    -0.247 A  
HETATM   30  N   UNL     1      -9.061  15.856  69.033  1.00  0.00    -0.225 NA 
ENDBRANCH  24  25
ENDBRANCH  22  23
ENDBRANCH  12  13
ENDBRANCH   7  12
ENDBRANCH   3   6
TORSDOF 5
ENDMDL
MODEL       88
REMARK 921   NORMALIZED FREE ENERGY PREDICTED BY IDOCK:   -5.14 KCAL/MOL
REMARK 922        TOTAL FREE ENERGY PREDICTED BY IDOCK:   -7.67 KCAL/MOL
REMARK 923 INTER-LIGAND FREE ENERGY PREDICTED BY IDOCK:   -6.51 KCAL/MOL
REMARK 924 INTRA-LIGAND FREE ENERGY PREDICTED BY IDOCK:   -1.16 KCAL/MOL
REMARK 927      BINDING AFFINITY PREDICTED BY RF-SCORE:    0.00 PKD
ROOT
HETATM    1  C   UNL     1      -9.236  10.009  68.550  1.00  0.00    -0.141 C  
HETATM    2  N   UNL     1     -10.000  10.895  69.386  1.00  0.00    -0.421 N  
HETATM    3  C   UNL     1     -11.341  11.120  69.157  1.00  0.00    -0.273 C  
HETATM    4  H   UNL     1      -9.541  11.367  70.165  1.00  0.00     0.000 HD 
HETATM    5  O   UNL     1     -11.927  10.743  68.147  1.00  0.00    -0.527 OA 
ENDROOT
BRANCH   3   6
HETATM    6  C   UNL     1     -12.059  11.925  70.193  1.00  0.00    -0.382 A  
HETATM    7  C   UNL     1     -12.810  11.362  71.254  1.00  0.00    -0.379 A  
HETATM    8  C   UNL     1     -13.370  12.230  72.204  1.00  0.00    -0.473 A  
HETATM    9  C   UNL     1     -12.550  14.163  70.993  1.00  0.00    -0.439 A  
HETATM   10  C   UNL     1     -13.231  13.620  72.078  1.00  0.00    -0.522 A  
HETATM   11  C   UNL     1     -11.961  13.318  70.056  1.00  0.00    -0.399 A  
BRANCH   7  12
HETATM   12  S   UNL     1     -13.257   9.629  71.231  1.00  0.00    -0.310 SA 
BRANCH  12  13
HETATM   13  C   UNL     1     -11.783   8.653  71.403  1.00  0.00    -0.297 A  
HETATM   14  C   UNL     1     -11.641   7.571  70.531  1.00  0.00    -0.224 A  
HETATM   15  C   UNL     1     -10.436   6.867  70.423  1.00  0.00    -0.229 A  
HETATM   16  C   UNL     1      -9.336   7.267  71.204  1.00  0.00    -0.156 A  
HETATM   17  C   UNL     1      -9.497   8.352  72.062  1.00  0.00    -0.268 A  
HETATM   18  C   UNL     1     -10.706   9.057  72.204  1.00  0.00    -0.226 A  
HETATM   19  N   UNL     1      -8.263   8.543  72.621  1.00  0.00    -0.364 NA 
HETATM   20  N   UNL     1      -7.326   7.676  72.210  1.00  0.00    -0.073 NA 
HETATM   21  H   UNL     1      -8.070   9.284  73.295  1.00  0.00     0.000 HD 
HETATM   22  C   UNL     1      -7.973   6.860  71.367  1.00  0.00    -0.108 A  
BRANCH  22  23
HETATM   23  C   UNL     1      -7.308   5.750  70.748  1.00  0.00    -0.084 C  
HETATM   24  C   UNL     1      -6.960   5.657  69.451  1.00  0.00    -0.063 C  
BRANCH  24  25
HETATM   25  C   UNL     1      -6.373   4.461  68.832  1.00  0.00    -0.032 A  
HETATM   26  C   UNL     1      -6.316   4.357  67.444  1.00  0.00    -0.041 A  
HETATM   27  C   UNL     1      -5.827   3.183  66.875  1.00  0.00    -0.023 A  
HETATM   28  C   UNL     1      -5.406   2.152  67.703  1.00  0.00    -0.017 A  
HETATM   29  C   UNL     1      -5.481   2.343  69.071  1.00  0.00    -0.013 A  
HETATM   30  N   UNL     1      -5.949   3.471  69.651  1.00  0.00    -0.022 NA 
ENDBRANCH  24  25
ENDBRANCH  22  23
ENDBRANCH  12  13
ENDBRANCH   7  12
ENDBRANCH   3   6
TORSDOF 5
ENDMDL
MODEL       89
REMARK 921   NORMALIZED FREE ENERGY PREDICTED BY IDOCK:   -5.13 KCAL/MOL
REMARK 922        TOTAL FREE ENERGY PREDICTED BY IDOCK:   -7.65 KCAL/MOL
REMARK 923 INTER-LIGAND FREE ENERGY PREDICTED BY IDOCK:   -7.33 KCAL/MOL
REMARK 924 INTRA-LIGAND FREE ENERGY PREDICTED BY IDOCK:   -0.33 KCAL/MOL
REMARK 927      BINDING AFFINITY PREDICTED BY RF-SCORE:    0.00 PKD
ROOT
HETATM    1  C   UNL     1      -7.678  16.867  67.680  1.00  0.00    -0.165 C  
HETATM    2  N   UNL     1      -8.671  16.393  68.606  1.00  0.00    -0.223 N  
HETATM    3  C   UNL     1     -10.018  16.524  68.343  1.00  0.00    -0.250 C  
HETATM    4  H   UNL     1      -8.373  15.951  69.476  1.00  0.00     0.000 HD 
HETATM    5  O   UNL     1     -10.465  17.197  67.419  1.00  0.00    -0.335 OA 
ENDROOT
BRANCH   3   6
HETATM    6  C   UNL     1     -10.944  15.842  69.300  1.00  0.00    -0.293 A  
HETATM    7  C   UNL     1     -11.656  14.655  69.003  1.00  0.00    -0.298 A  
HETATM    8  C   UNL     1     -12.432  14.075  70.019  1.00  0.00    -0.339 A  
HETATM    9  C   UNL     1     -11.889  15.886  71.535  1.00  0.00    -0.536 A  
HETATM   10  C   UNL     1     -12.538  14.682  71.278  1.00  0.00    -0.403 A  
HETATM   11  C   UNL     1     -11.090  16.462  70.551  1.00  0.00    -0.214 A  
BRANCH   7  12
HETATM   12  S   UNL     1     -11.779  14.066  67.317  1.00  0.00    -0.409 SA 
BRANCH  12  13
HETATM   13  C   UNL     1     -11.533  12.307  67.303  1.00  0.00    -0.357 A  
HETATM   14  C   UNL     1     -11.052  11.750  66.115  1.00  0.00    -0.358 A  
HETATM   15  C   UNL     1     -10.615  10.421  66.051  1.00  0.00    -0.136 A  
HETATM   16  C   UNL     1     -10.649   9.631  67.214  1.00  0.00    -0.315 A  
HETATM   17  C   UNL     1     -11.125  10.208  68.389  1.00  0.00    -0.218 A  
HETATM   18  C   UNL     1     -11.593  11.532  68.470  1.00  0.00    -0.377 A  
HETATM   19  N   UNL     1     -10.973   9.239  69.343  1.00  0.00    -0.393 NA 
HETATM   20  N   UNL     1     -10.452   8.090  68.889  1.00  0.00    -0.213 NA 
HETATM   21  H   UNL     1     -11.233   9.378  70.319  1.00  0.00     0.000 HD 
HETATM   22  C   UNL     1     -10.280   8.296  67.576  1.00  0.00    -0.243 A  
BRANCH  22  23
HETATM   23  C   UNL     1      -9.780   7.260  66.720  1.00  0.00    -0.260 C  
HETATM   24  C   UNL     1     -10.260   6.006  66.627  1.00  0.00    -0.246 C  
BRANCH  24  25
HETATM   25  C   UNL     1      -9.657   4.942  65.815  1.00  0.00    -0.170 A  
HETATM   26  C   UNL     1      -8.355   4.523  66.078  1.00  0.00    -0.113 A  
HETATM   27  C   UNL     1      -7.773   3.567  65.248  1.00  0.00    -0.081 A  
HETATM   28  C   UNL     1      -8.505   3.054  64.186  1.00  0.00    -0.089 A  
HETATM   29  C   UNL     1      -9.798   3.512  64.005  1.00  0.00    -0.175 A  
HETATM   30  N   UNL     1     -10.388   4.437  64.795  1.00  0.00    -0.115 NA 
ENDBRANCH  24  25
ENDBRANCH  22  23
ENDBRANCH  12  13
ENDBRANCH   7  12
ENDBRANCH   3   6
TORSDOF 5
ENDMDL
MODEL       90
REMARK 921   NORMALIZED FREE ENERGY PREDICTED BY IDOCK:   -5.10 KCAL/MOL
REMARK 922        TOTAL FREE ENERGY PREDICTED BY IDOCK:   -7.62 KCAL/MOL
REMARK 923 INTER-LIGAND FREE ENERGY PREDICTED BY IDOCK:   -7.66 KCAL/MOL
REMARK 924 INTRA-LIGAND FREE ENERGY PREDICTED BY IDOCK:    0.04 KCAL/MOL
REMARK 927      BINDING AFFINITY PREDICTED BY RF-SCORE:    0.00 PKD
ROOT
HETATM    1  C   UNL     1     -13.978  15.771  72.768  1.00  0.00    -0.466 C  
HETATM    2  N   UNL     1     -13.594  15.109  71.551  1.00  0.00    -0.438 N  
HETATM    3  C   UNL     1     -12.268  14.958  71.204  1.00  0.00    -0.320 C  
HETATM    4  H   UNL     1     -14.317  14.744  70.931  1.00  0.00     0.000 HD 
HETATM    5  O   UNL     1     -11.347  15.519  71.790  1.00  0.00    -0.404 OA 
ENDROOT
BRANCH   3   6
HETATM    6  C   UNL     1     -11.996  14.107  70.005  1.00  0.00    -0.404 A  
HETATM    7  C   UNL     1     -12.258  12.716  69.944  1.00  0.00    -0.168 A  
HETATM    8  C   UNL     1     -12.028  12.050  68.730  1.00  0.00    -0.299 A  
HETATM    9  C   UNL     1     -11.189  14.084  67.716  1.00  0.00    -0.302 A  
HETATM   10  C   UNL     1     -11.508  12.733  67.622  1.00  0.00    -0.387 A  
HETATM   11  C   UNL     1     -11.437  14.771  68.902  1.00  0.00    -0.321 A  
BRANCH   7  12
HETATM   12  S   UNL     1     -12.608  11.791  71.436  1.00  0.00    -0.178 SA 
BRANCH  12  13
HETATM   13  C   UNL     1     -12.240  10.077  71.151  1.00  0.00    -0.380 A  
HETATM   14  C   UNL     1     -11.228   9.798  70.230  1.00  0.00    -0.347 A  
HETATM   15  C   UNL     1     -10.703   8.508  70.083  1.00  0.00    -0.240 A  
HETATM   16  C   UNL     1     -11.198   7.470  70.893  1.00  0.00    -0.286 A  
HETATM   17  C   UNL     1     -12.203   7.772  71.810  1.00  0.00    -0.306 A  
HETATM   18  C   UNL     1     -12.762   9.054  71.954  1.00  0.00    -0.450 A  
HETATM   19  N   UNL     1     -12.423   6.603  72.486  1.00  0.00    -0.492 NA 
HETATM   20  N   UNL     1     -11.661   5.576  72.083  1.00  0.00    -0.084 NA 
HETATM   21  H   UNL     1     -13.110   6.519  73.235  1.00  0.00     0.000 HD 
HETATM   22  C   UNL     1     -10.927   6.077  71.081  1.00  0.00    -0.278 A  
BRANCH  22  23
HETATM   23  C   UNL     1     -10.009   5.255  70.347  1.00  0.00    -0.303 C  
HETATM   24  C   UNL     1      -9.710   5.371  69.040  1.00  0.00    -0.208 C  
BRANCH  24  25
HETATM   25  C   UNL     1      -8.844   4.444  68.299  1.00  0.00    -0.105 A  
HETATM   26  C   UNL     1      -7.524   4.795  68.029  1.00  0.00    -0.074 A  
HETATM   27  C   UNL     1      -6.741   3.938  67.259  1.00  0.00    -0.047 A  
HETATM   28  C   UNL     1      -7.295   2.755  66.786  1.00  0.00    -0.069 A  
HETATM   29  C   UNL     1      -8.609   2.474  67.114  1.00  0.00    -0.109 A  
HETATM   30  N   UNL     1      -9.391   3.287  67.861  1.00  0.00    -0.195 NA 
ENDBRANCH  24  25
ENDBRANCH  22  23
ENDBRANCH  12  13
ENDBRANCH   7  12
ENDBRANCH   3   6
TORSDOF 5
ENDMDL
MODEL       91
REMARK 921   NORMALIZED FREE ENERGY PREDICTED BY IDOCK:   -5.07 KCAL/MOL
REMARK 922        TOTAL FREE ENERGY PREDICTED BY IDOCK:   -7.57 KCAL/MOL
REMARK 923 INTER-LIGAND FREE ENERGY PREDICTED BY IDOCK:   -6.71 KCAL/MOL
REMARK 924 INTRA-LIGAND FREE ENERGY PREDICTED BY IDOCK:   -0.86 KCAL/MOL
REMARK 927      BINDING AFFINITY PREDICTED BY RF-SCORE:    0.00 PKD
ROOT
HETATM    1  C   UNL     1     -12.112  13.143  63.224  1.00  0.00    -0.386 C  
HETATM    2  N   UNL     1     -11.501  13.876  64.299  1.00  0.00    -0.549 N  
HETATM    3  C   UNL     1     -11.628  13.467  65.609  1.00  0.00    -0.327 C  
HETATM    4  H   UNL     1     -10.962  14.715  64.088  1.00  0.00     0.000 HD 
HETATM    5  O   UNL     1     -12.400  12.584  65.971  1.00  0.00    -0.615 OA 
ENDROOT
BRANCH   3   6
HETATM    6  C   UNL     1     -10.809  14.214  66.614  1.00  0.00    -0.299 A  
HETATM    7  C   UNL     1      -9.521  13.810  67.043  1.00  0.00    -0.255 A  
HETATM    8  C   UNL     1      -8.827  14.644  67.932  1.00  0.00    -0.170 A  
HETATM    9  C   UNL     1     -10.706  16.170  68.046  1.00  0.00    -0.321 A  
HETATM   10  C   UNL     1      -9.412  15.821  68.421  1.00  0.00    -0.196 A  
HETATM   11  C   UNL     1     -11.400  15.372  67.141  1.00  0.00    -0.203 A  
BRANCH   7  12
HETATM   12  S   UNL     1      -8.915  12.165  66.678  1.00  0.00    -0.172 SA 
BRANCH  12  13
HETATM   13  C   UNL     1      -8.802  11.245  68.193  1.00  0.00    -0.159 A  
HETATM   14  C   UNL     1      -9.798  10.292  68.424  1.00  0.00    -0.168 A  
HETATM   15  C   UNL     1      -9.697   9.362  69.466  1.00  0.00    -0.191 A  
HETATM   16  C   UNL     1      -8.559   9.379  70.293  1.00  0.00    -0.249 A  
HETATM   17  C   UNL     1      -7.575  10.333  70.040  1.00  0.00    -0.103 A  
HETATM   18  C   UNL     1      -7.669  11.292  69.016  1.00  0.00    -0.095 A  
HETATM   19  N   UNL     1      -6.583  10.060  70.942  1.00  0.00    -0.317 NA 
HETATM   20  N   UNL     1      -6.841   9.027  71.757  1.00  0.00    -0.272 NA 
HETATM   21  H   UNL     1      -5.718  10.598  70.991  1.00  0.00     0.000 HD 
HETATM   22  C   UNL     1      -8.065   8.617  71.399  1.00  0.00    -0.151 A  
BRANCH  22  23
HETATM   23  C   UNL     1      -8.721   7.542  72.087  1.00  0.00    -0.140 C  
HETATM   24  C   UNL     1      -8.647   6.236  71.771  1.00  0.00    -0.133 C  
BRANCH  24  25
HETATM   25  C   UNL     1      -9.415   5.175  72.435  1.00  0.00    -0.143 A  
HETATM   26  C   UNL     1     -10.769   5.362  72.702  1.00  0.00    -0.288 A  
HETATM   27  C   UNL     1     -11.462   4.377  73.401  1.00  0.00    -0.297 A  
HETATM   28  C   UNL     1     -10.789   3.233  73.809  1.00  0.00    -0.310 A  
HETATM   29  C   UNL     1      -9.447   3.119  73.489  1.00  0.00    -0.098 A  
HETATM   30  N   UNL     1      -8.750   4.058  72.811  1.00  0.00    -0.099 NA 
ENDBRANCH  24  25
ENDBRANCH  22  23
ENDBRANCH  12  13
ENDBRANCH   7  12
ENDBRANCH   3   6
TORSDOF 5
ENDMDL
MODEL       92
REMARK 921   NORMALIZED FREE ENERGY PREDICTED BY IDOCK:   -5.06 KCAL/MOL
REMARK 922        TOTAL FREE ENERGY PREDICTED BY IDOCK:   -7.56 KCAL/MOL
REMARK 923 INTER-LIGAND FREE ENERGY PREDICTED BY IDOCK:   -6.83 KCAL/MOL
REMARK 924 INTRA-LIGAND FREE ENERGY PREDICTED BY IDOCK:   -0.73 KCAL/MOL
REMARK 927      BINDING AFFINITY PREDICTED BY RF-SCORE:    0.00 PKD
ROOT
HETATM    1  C   UNL     1     -11.817  14.568  66.113  1.00  0.00    -0.336 C  
HETATM    2  N   UNL     1     -10.945  15.461  66.827  1.00  0.00    -0.308 N  
HETATM    3  C   UNL     1     -10.408  16.577  66.221  1.00  0.00    -0.320 C  
HETATM    4  H   UNL     1     -10.718  15.264  67.802  1.00  0.00     0.000 HD 
HETATM    5  O   UNL     1     -10.478  16.791  65.015  1.00  0.00    -0.675 OA 
ENDROOT
BRANCH   3   6
HETATM    6  C   UNL     1      -9.657  17.512  67.115  1.00  0.00    -0.262 A  
HETATM    7  C   UNL     1      -8.245  17.551  67.212  1.00  0.00    -0.208 A  
HETATM    8  C   UNL     1      -7.664  18.532  68.031  1.00  0.00    -0.281 A  
HETATM    9  C   UNL     1      -9.848  19.322  68.721  1.00  0.00    -0.514 A  
HETATM   10  C   UNL     1      -8.461  19.416  68.771  1.00  0.00    -0.377 A  
HETATM   11  C   UNL     1     -10.445  18.376  67.891  1.00  0.00    -0.416 A  
BRANCH   7  12
HETATM   12  S   UNL     1      -7.250  16.229  66.531  1.00  0.00     0.158 SA 
BRANCH  12  13
HETATM   13  C   UNL     1      -7.486  14.767  67.513  1.00  0.00    -0.198 A  
HETATM   14  C   UNL     1      -8.327  13.785  66.985  1.00  0.00    -0.107 A  
HETATM   15  C   UNL     1      -8.418  12.510  67.556  1.00  0.00    -0.177 A  
HETATM   16  C   UNL     1      -7.633  12.207  68.684  1.00  0.00    -0.097 A  
HETATM   17  C   UNL     1      -6.796  13.198  69.190  1.00  0.00    -0.062 A  
HETATM   18  C   UNL     1      -6.709  14.493  68.648  1.00  0.00    -0.088 A  
HETATM   19  N   UNL     1      -6.123  12.597  70.218  1.00  0.00    -0.329 NA 
HETATM   20  N   UNL     1      -6.456  11.315  70.426  1.00  0.00    -0.262 NA 
HETATM   21  H   UNL     1      -5.425  13.083  70.781  1.00  0.00     0.000 HD 
HETATM   22  C   UNL     1      -7.409  11.066  69.518  1.00  0.00    -0.061 A  
BRANCH  22  23
HETATM   23  C   UNL     1      -8.063   9.791  69.457  1.00  0.00    -0.141 C  
HETATM   24  C   UNL     1      -9.200   9.451  70.091  1.00  0.00    -0.268 C  
BRANCH  24  25
HETATM   25  C   UNL     1      -9.784   8.103  70.088  1.00  0.00    -0.175 A  
HETATM   26  C   UNL     1      -9.549   7.243  71.158  1.00  0.00    -0.160 A  
HETATM   27  C   UNL     1     -10.047   5.944  71.102  1.00  0.00    -0.249 A  
HETATM   28  C   UNL     1     -10.767   5.541  69.985  1.00  0.00    -0.356 A  
HETATM   29  C   UNL     1     -10.969   6.463  68.973  1.00  0.00    -0.348 A  
HETATM   30  N   UNL     1     -10.499   7.730  69.002  1.00  0.00    -0.217 NA 
ENDBRANCH  24  25
ENDBRANCH  22  23
ENDBRANCH  12  13
ENDBRANCH   7  12
ENDBRANCH   3   6
TORSDOF 5
ENDMDL
MODEL       93
REMARK 921   NORMALIZED FREE ENERGY PREDICTED BY IDOCK:   -5.05 KCAL/MOL
REMARK 922        TOTAL FREE ENERGY PREDICTED BY IDOCK:   -7.55 KCAL/MOL
REMARK 923 INTER-LIGAND FREE ENERGY PREDICTED BY IDOCK:   -7.05 KCAL/MOL
REMARK 924 INTRA-LIGAND FREE ENERGY PREDICTED BY IDOCK:   -0.50 KCAL/MOL
REMARK 927      BINDING AFFINITY PREDICTED BY RF-SCORE:    0.00 PKD
ROOT
HETATM    1  C   UNL     1     -12.553  12.427  71.356  1.00  0.00    -0.193 C  
HETATM    2  N   UNL     1     -11.881  13.176  70.329  1.00  0.00    -0.525 N  
HETATM    3  C   UNL     1     -12.243  14.474  70.035  1.00  0.00    -0.342 C  
HETATM    4  H   UNL     1     -11.121  12.740  69.808  1.00  0.00     0.000 HD 
HETATM    5  O   UNL     1     -13.252  15.012  70.479  1.00  0.00    -0.315 OA 
ENDROOT
BRANCH   3   6
HETATM    6  C   UNL     1     -11.360  15.199  69.069  1.00  0.00    -0.307 A  
HETATM    7  C   UNL     1     -11.404  15.016  67.665  1.00  0.00    -0.334 A  
HETATM    8  C   UNL     1     -10.574  15.818  66.866  1.00  0.00    -0.317 A  
HETATM    9  C   UNL     1      -9.607  16.860  68.828  1.00  0.00    -0.268 A  
HETATM   10  C   UNL     1      -9.691  16.740  67.445  1.00  0.00    -0.245 A  
HETATM   11  C   UNL     1     -10.443  16.096  69.638  1.00  0.00    -0.291 A  
BRANCH   7  12
HETATM   12  S   UNL     1     -12.283  13.627  66.956  1.00  0.00    -0.250 SA 
BRANCH  12  13
HETATM   13  C   UNL     1     -11.135  12.625  66.044  1.00  0.00    -0.287 A  
HETATM   14  C   UNL     1     -10.780  11.400  66.614  1.00  0.00    -0.316 A  
HETATM   15  C   UNL     1     -10.062  10.436  65.897  1.00  0.00    -0.326 A  
HETATM   16  C   UNL     1      -9.700  10.702  64.563  1.00  0.00    -0.367 A  
HETATM   17  C   UNL     1     -10.071  11.926  64.012  1.00  0.00    -0.334 A  
HETATM   18  C   UNL     1     -10.769  12.919  64.723  1.00  0.00    -0.354 A  
HETATM   19  N   UNL     1      -9.651  11.866  62.711  1.00  0.00    -0.544 NA 
HETATM   20  N   UNL     1      -9.037  10.721  62.378  1.00  0.00    -0.287 NA 
HETATM   21  H   UNL     1      -9.794  12.628  62.049  1.00  0.00     0.000 HD 
HETATM   22  C   UNL     1      -9.024  10.007  63.511  1.00  0.00    -0.256 A  
BRANCH  22  23
HETATM   23  C   UNL     1      -8.396   8.719  63.571  1.00  0.00    -0.147 C  
HETATM   24  C   UNL     1      -8.357   7.904  64.641  1.00  0.00    -0.046 C  
BRANCH  24  25
HETATM   25  C   UNL     1      -7.614   6.638  64.697  1.00  0.00    -0.105 A  
HETATM   26  C   UNL     1      -8.263   5.440  64.407  1.00  0.00    -0.133 A  
HETATM   27  C   UNL     1      -7.563   4.244  64.540  1.00  0.00    -0.073 A  
HETATM   28  C   UNL     1      -6.237   4.275  64.953  1.00  0.00    -0.030 A  
HETATM   29  C   UNL     1      -5.663   5.509  65.205  1.00  0.00    -0.017 A  
HETATM   30  N   UNL     1      -6.318   6.685  65.082  1.00  0.00    -0.041 NA 
ENDBRANCH  24  25
ENDBRANCH  22  23
ENDBRANCH  12  13
ENDBRANCH   7  12
ENDBRANCH   3   6
TORSDOF 5
ENDMDL
MODEL       94
REMARK 921   NORMALIZED FREE ENERGY PREDICTED BY IDOCK:   -5.05 KCAL/MOL
REMARK 922        TOTAL FREE ENERGY PREDICTED BY IDOCK:   -7.55 KCAL/MOL
REMARK 923 INTER-LIGAND FREE ENERGY PREDICTED BY IDOCK:   -6.46 KCAL/MOL
REMARK 924 INTRA-LIGAND FREE ENERGY PREDICTED BY IDOCK:   -1.08 KCAL/MOL
REMARK 927      BINDING AFFINITY PREDICTED BY RF-SCORE:    0.00 PKD
ROOT
HETATM    1  C   UNL     1      -7.279   8.218  72.615  1.00  0.00    -0.103 C  
HETATM    2  N   UNL     1      -7.607   6.870  72.237  1.00  0.00    -0.091 N  
HETATM    3  C   UNL     1      -7.990   5.935  73.175  1.00  0.00    -0.110 C  
HETATM    4  H   UNL     1      -7.555   6.600  71.255  1.00  0.00     0.000 HD 
HETATM    5  O   UNL     1      -7.906   6.117  74.386  1.00  0.00    -0.096 OA 
ENDROOT
BRANCH   3   6
HETATM    6  C   UNL     1      -8.466   4.622  72.638  1.00  0.00    -0.115 A  
HETATM    7  C   UNL     1      -9.827   4.310  72.400  1.00  0.00    -0.158 A  
HETATM    8  C   UNL     1     -10.131   3.069  71.820  1.00  0.00    -0.112 A  
HETATM    9  C   UNL     1      -7.793   2.434  71.832  1.00  0.00    -0.048 A  
HETATM   10  C   UNL     1      -9.119   2.144  71.529  1.00  0.00    -0.155 A  
HETATM   11  C   UNL     1      -7.466   3.672  72.380  1.00  0.00    -0.054 A  
BRANCH   7  12
HETATM   12  S   UNL     1     -11.127   5.347  73.065  1.00  0.00    -0.314 SA 
BRANCH  12  13
HETATM   13  C   UNL     1     -11.318   6.770  72.020  1.00  0.00    -0.272 A  
HETATM   14  C   UNL     1     -11.386   8.012  72.657  1.00  0.00    -0.469 A  
HETATM   15  C   UNL     1     -11.318   9.211  71.939  1.00  0.00    -0.416 A  
HETATM   16  C   UNL     1     -11.163   9.165  70.541  1.00  0.00    -0.309 A  
HETATM   17  C   UNL     1     -11.090   7.917  69.927  1.00  0.00    -0.120 A  
HETATM   18  C   UNL     1     -11.183   6.701  70.627  1.00  0.00    -0.370 A  
HETATM   19  N   UNL     1     -10.873   8.190  68.604  1.00  0.00    -0.421 NA 
HETATM   20  N   UNL     1     -10.810   9.496  68.308  1.00  0.00    -0.186 NA 
HETATM   21  H   UNL     1     -10.768   7.460  67.899  1.00  0.00     0.000 HD 
HETATM   22  C   UNL     1     -11.022  10.114  69.478  1.00  0.00    -0.256 A  
BRANCH  22  23
HETATM   23  C   UNL     1     -11.080  11.544  69.564  1.00  0.00    -0.256 C  
HETATM   24  C   UNL     1     -11.508  12.381  68.600  1.00  0.00    -0.348 C  
BRANCH  24  25
HETATM   25  C   UNL     1     -11.454  13.846  68.686  1.00  0.00    -0.298 A  
HETATM   26  C   UNL     1     -11.963  14.494  69.809  1.00  0.00    -0.383 A  
HETATM   27  C   UNL     1     -11.974  15.886  69.838  1.00  0.00    -0.283 A  
HETATM   28  C   UNL     1     -11.474  16.592  68.751  1.00  0.00    -0.143 A  
HETATM   29  C   UNL     1     -10.971  15.870  67.682  1.00  0.00    -0.298 A  
HETATM   30  N   UNL     1     -10.947  14.520  67.628  1.00  0.00    -0.280 NA 
ENDBRANCH  24  25
ENDBRANCH  22  23
ENDBRANCH  12  13
ENDBRANCH   7  12
ENDBRANCH   3   6
TORSDOF 5
ENDMDL
MODEL       95
REMARK 921   NORMALIZED FREE ENERGY PREDICTED BY IDOCK:   -5.05 KCAL/MOL
REMARK 922        TOTAL FREE ENERGY PREDICTED BY IDOCK:   -7.54 KCAL/MOL
REMARK 923 INTER-LIGAND FREE ENERGY PREDICTED BY IDOCK:   -6.77 KCAL/MOL
REMARK 924 INTRA-LIGAND FREE ENERGY PREDICTED BY IDOCK:   -0.77 KCAL/MOL
REMARK 927      BINDING AFFINITY PREDICTED BY RF-SCORE:    0.00 PKD
ROOT
HETATM    1  C   UNL     1      -8.469   2.756  64.568  1.00  0.00    -0.088 C  
HETATM    2  N   UNL     1      -8.442   3.423  65.841  1.00  0.00    -0.107 N  
HETATM    3  C   UNL     1      -9.534   4.122  66.309  1.00  0.00    -0.186 C  
HETATM    4  H   UNL     1      -7.596   3.379  66.411  1.00  0.00     0.000 HD 
HETATM    5  O   UNL     1     -10.517   4.380  65.622  1.00  0.00    -0.260 OA 
ENDROOT
BRANCH   3   6
HETATM    6  C   UNL     1      -9.439   4.626  67.715  1.00  0.00    -0.190 A  
HETATM    7  C   UNL     1      -9.177   5.975  68.057  1.00  0.00    -0.115 A  
HETATM    8  C   UNL     1      -9.192   6.330  69.414  1.00  0.00    -0.139 A  
HETATM    9  C   UNL     1      -9.599   4.030  70.062  1.00  0.00    -0.274 A  
HETATM   10  C   UNL     1      -9.413   5.365  70.408  1.00  0.00    -0.215 A  
HETATM   11  C   UNL     1      -9.618   3.662  68.719  1.00  0.00    -0.159 A  
BRANCH   7  12
HETATM   12  S   UNL     1      -8.580   7.126  66.822  1.00  0.00    -0.129 SA 
BRANCH  12  13
HETATM   13  C   UNL     1      -9.114   8.763  67.257  1.00  0.00    -0.132 A  
HETATM   14  C   UNL     1      -8.163   9.782  67.152  1.00  0.00    -0.121 A  
HETATM   15  C   UNL     1      -8.519  11.132  67.255  1.00  0.00    -0.137 A  
HETATM   16  C   UNL     1      -9.869  11.472  67.458  1.00  0.00    -0.203 A  
HETATM   17  C   UNL     1     -10.801  10.441  67.553  1.00  0.00    -0.301 A  
HETATM   18  C   UNL     1     -10.462   9.078  67.479  1.00  0.00    -0.338 A  
HETATM   19  N   UNL     1     -12.009  11.071  67.674  1.00  0.00    -0.558 NA 
HETATM   20  N   UNL     1     -11.940  12.410  67.675  1.00  0.00    -0.481 NA 
HETATM   21  H   UNL     1     -12.891  10.565  67.757  1.00  0.00     0.000 HD 
HETATM   22  C   UNL     1     -10.631  12.677  67.580  1.00  0.00    -0.218 A  
BRANCH  22  23
HETATM   23  C   UNL     1     -10.144  14.026  67.601  1.00  0.00    -0.241 C  
HETATM   24  C   UNL     1     -10.736  15.093  67.032  1.00  0.00    -0.307 C  
BRANCH  24  25
HETATM   25  C   UNL     1     -10.154  16.441  66.984  1.00  0.00    -0.272 A  
HETATM   26  C   UNL     1      -8.960  16.657  66.301  1.00  0.00    -0.340 A  
HETATM   27  C   UNL     1      -8.385  17.925  66.332  1.00  0.00    -0.273 A  
HETATM   28  C   UNL     1      -9.017  18.940  67.038  1.00  0.00    -0.306 A  
HETATM   29  C   UNL     1     -10.209  18.645  67.675  1.00  0.00    -0.384 A  
HETATM   30  N   UNL     1     -10.791  17.424  67.660  1.00  0.00    -0.300 NA 
ENDBRANCH  24  25
ENDBRANCH  22  23
ENDBRANCH  12  13
ENDBRANCH   7  12
ENDBRANCH   3   6
TORSDOF 5
ENDMDL
MODEL       96
REMARK 921   NORMALIZED FREE ENERGY PREDICTED BY IDOCK:   -5.04 KCAL/MOL
REMARK 922        TOTAL FREE ENERGY PREDICTED BY IDOCK:   -7.54 KCAL/MOL
REMARK 923 INTER-LIGAND FREE ENERGY PREDICTED BY IDOCK:   -6.91 KCAL/MOL
REMARK 924 INTRA-LIGAND FREE ENERGY PREDICTED BY IDOCK:   -0.63 KCAL/MOL
REMARK 927      BINDING AFFINITY PREDICTED BY RF-SCORE:    0.00 PKD
ROOT
HETATM    1  C   UNL     1      -7.459  19.017  67.945  1.00  0.00    -0.251 C  
HETATM    2  N   UNL     1      -8.116  18.089  67.065  1.00  0.00    -0.220 N  
HETATM    3  C   UNL     1      -9.040  17.183  67.537  1.00  0.00    -0.225 C  
HETATM    4  H   UNL     1      -7.893  18.102  66.069  1.00  0.00     0.000 HD 
HETATM    5  O   UNL     1      -9.235  16.974  68.731  1.00  0.00    -0.261 OA 
ENDROOT
BRANCH   3   6
HETATM    6  C   UNL     1      -9.774  16.392  66.501  1.00  0.00    -0.287 A  
HETATM    7  C   UNL     1      -9.714  14.981  66.392  1.00  0.00    -0.283 A  
HETATM    8  C   UNL     1     -10.514  14.356  65.423  1.00  0.00    -0.391 A  
HETATM    9  C   UNL     1     -11.310  16.501  64.625  1.00  0.00    -0.073 A  
HETATM   10  C   UNL     1     -11.313  15.111  64.554  1.00  0.00    -0.297 A  
HETATM   11  C   UNL     1     -10.547  17.139  65.599  1.00  0.00    -0.187 A  
BRANCH   7  12
HETATM   12  S   UNL     1      -8.461  14.054  67.274  1.00  0.00    -0.191 SA 
BRANCH  12  13
HETATM   13  C   UNL     1      -9.204  12.594  67.961  1.00  0.00    -0.208 A  
HETATM   14  C   UNL     1      -8.356  11.508  68.192  1.00  0.00    -0.152 A  
HETATM   15  C   UNL     1      -8.776  10.391  68.925  1.00  0.00    -0.157 A  
HETATM   16  C   UNL     1     -10.080  10.368  69.453  1.00  0.00    -0.251 A  
HETATM   17  C   UNL     1     -10.906  11.464  69.218  1.00  0.00    -0.194 A  
HETATM   18  C   UNL     1     -10.513  12.584  68.462  1.00  0.00    -0.246 A  
HETATM   19  N   UNL     1     -12.058  11.188  69.901  1.00  0.00    -0.330 NA 
HETATM   20  N   UNL     1     -12.054  10.012  70.545  1.00  0.00    -0.269 NA 
HETATM   21  H   UNL     1     -12.856  11.824  69.919  1.00  0.00     0.000 HD 
HETATM   22  C   UNL     1     -10.862   9.476  70.254  1.00  0.00    -0.269 A  
BRANCH  22  23
HETATM   23  C   UNL     1     -10.496   8.172  70.729  1.00  0.00    -0.223 C  
HETATM   24  C   UNL     1     -11.344   7.212  71.141  1.00  0.00    -0.306 C  
BRANCH  24  25
HETATM   25  C   UNL     1     -10.928   5.927  71.719  1.00  0.00    -0.269 A  
HETATM   26  C   UNL     1     -10.112   5.069  70.987  1.00  0.00    -0.297 A  
HETATM   27  C   UNL     1      -9.791   3.823  71.520  1.00  0.00    -0.235 A  
HETATM   28  C   UNL     1     -10.290   3.470  72.767  1.00  0.00    -0.239 A  
HETATM   29  C   UNL     1     -11.081   4.388  73.436  1.00  0.00    -0.305 A  
HETATM   30  N   UNL     1     -11.406   5.604  72.943  1.00  0.00    -0.291 NA 
ENDBRANCH  24  25
ENDBRANCH  22  23
ENDBRANCH  12  13
ENDBRANCH   7  12
ENDBRANCH   3   6
TORSDOF 5
ENDMDL
MODEL       97
REMARK 921   NORMALIZED FREE ENERGY PREDICTED BY IDOCK:   -5.04 KCAL/MOL
REMARK 922        TOTAL FREE ENERGY PREDICTED BY IDOCK:   -7.53 KCAL/MOL
REMARK 923 INTER-LIGAND FREE ENERGY PREDICTED BY IDOCK:   -6.46 KCAL/MOL
REMARK 924 INTRA-LIGAND FREE ENERGY PREDICTED BY IDOCK:   -1.08 KCAL/MOL
REMARK 927      BINDING AFFINITY PREDICTED BY RF-SCORE:    0.00 PKD
ROOT
HETATM    1  C   UNL     1      -7.571  15.001  68.599  1.00  0.00    -0.128 C  
HETATM    2  N   UNL     1      -8.593  14.731  67.626  1.00  0.00    -0.164 N  
HETATM    3  C   UNL     1      -9.820  15.357  67.681  1.00  0.00    -0.220 C  
HETATM    4  H   UNL     1      -8.407  14.063  66.878  1.00  0.00     0.000 HD 
HETATM    5  O   UNL     1     -10.194  16.029  68.637  1.00  0.00    -0.218 OA 
ENDROOT
BRANCH   3   6
HETATM    6  C   UNL     1     -10.732  15.120  66.519  1.00  0.00    -0.310 A  
HETATM    7  C   UNL     1     -11.794  14.183  66.524  1.00  0.00    -0.419 A  
HETATM    8  C   UNL     1     -12.624  14.115  65.394  1.00  0.00    -0.485 A  
HETATM    9  C   UNL     1     -11.289  15.785  64.252  1.00  0.00    -0.189 A  
HETATM   10  C   UNL     1     -12.378  14.919  64.272  1.00  0.00    -0.300 A  
HETATM   11  C   UNL     1     -10.471  15.889  65.375  1.00  0.00    -0.429 A  
BRANCH   7  12
HETATM   12  S   UNL     1     -11.907  12.944  67.811  1.00  0.00    -0.300 SA 
BRANCH  12  13
HETATM   13  C   UNL     1     -10.873  11.566  67.376  1.00  0.00    -0.246 A  
HETATM   14  C   UNL     1     -10.931  10.449  68.212  1.00  0.00    -0.321 A  
HETATM   15  C   UNL     1     -10.335   9.233  67.857  1.00  0.00    -0.279 A  
HETATM   16  C   UNL     1      -9.672   9.130  66.620  1.00  0.00    -0.287 A  
HETATM   17  C   UNL     1      -9.633  10.254  65.798  1.00  0.00    -0.224 A  
HETATM   18  C   UNL     1     -10.202  11.492  66.147  1.00  0.00    -0.272 A  
HETATM   19  N   UNL     1      -8.998   9.835  64.661  1.00  0.00    -0.214 NA 
HETATM   20  N   UNL     1      -8.616   8.550  64.679  1.00  0.00    -0.111 NA 
HETATM   21  H   UNL     1      -8.827  10.449  63.865  1.00  0.00     0.000 HD 
HETATM   22  C   UNL     1      -8.989   8.108  65.888  1.00  0.00    -0.151 A  
BRANCH  22  23
HETATM   23  C   UNL     1      -8.703   6.767  66.310  1.00  0.00    -0.152 C  
HETATM   24  C   UNL     1      -9.609   5.801  66.550  1.00  0.00    -0.175 C  
BRANCH  24  25
HETATM   25  C   UNL     1      -9.286   4.470  67.082  1.00  0.00    -0.147 A  
HETATM   26  C   UNL     1      -9.476   4.200  68.435  1.00  0.00    -0.212 A  
HETATM   27  C   UNL     1      -9.091   2.958  68.935  1.00  0.00    -0.207 A  
HETATM   28  C   UNL     1      -8.534   2.022  68.074  1.00  0.00    -0.089 A  
HETATM   29  C   UNL     1      -8.396   2.366  66.740  1.00  0.00    -0.091 A  
HETATM   30  N   UNL     1      -8.762   3.562  66.227  1.00  0.00    -0.118 NA 
ENDBRANCH  24  25
ENDBRANCH  22  23
ENDBRANCH  12  13
ENDBRANCH   7  12
ENDBRANCH   3   6
TORSDOF 5
ENDMDL
MODEL       98
REMARK 921   NORMALIZED FREE ENERGY PREDICTED BY IDOCK:   -5.03 KCAL/MOL
REMARK 922        TOTAL FREE ENERGY PREDICTED BY IDOCK:   -7.52 KCAL/MOL
REMARK 923 INTER-LIGAND FREE ENERGY PREDICTED BY IDOCK:   -6.34 KCAL/MOL
REMARK 924 INTRA-LIGAND FREE ENERGY PREDICTED BY IDOCK:   -1.18 KCAL/MOL
REMARK 927      BINDING AFFINITY PREDICTED BY RF-SCORE:    0.00 PKD
ROOT
HETATM    1  C   UNL     1      -7.766   9.843  65.042  1.00  0.00    -0.133 C  
HETATM    2  N   UNL     1      -8.341   8.563  65.356  1.00  0.00    -0.148 N  
HETATM    3  C   UNL     1      -7.588   7.560  65.929  1.00  0.00    -0.088 C  
HETATM    4  H   UNL     1      -9.325   8.393  65.150  1.00  0.00     0.000 HD 
HETATM    5  O   UNL     1      -6.367   7.610  66.042  1.00  0.00    -0.041 OA 
ENDROOT
BRANCH   3   6
HETATM    6  C   UNL     1      -8.339   6.340  66.360  1.00  0.00    -0.118 A  
HETATM    7  C   UNL     1      -8.784   6.111  67.685  1.00  0.00    -0.105 A  
HETATM    8  C   UNL     1      -9.547   4.961  67.939  1.00  0.00    -0.186 A  
HETATM    9  C   UNL     1      -9.315   4.239  65.637  1.00  0.00    -0.161 A  
HETATM   10  C   UNL     1      -9.818   4.038  66.919  1.00  0.00    -0.157 A  
HETATM   11  C   UNL     1      -8.582   5.389  65.357  1.00  0.00    -0.150 A  
BRANCH   7  12
HETATM   12  S   UNL     1      -8.168   7.110  69.036  1.00  0.00    -0.126 SA 
BRANCH  12  13
HETATM   13  C   UNL     1      -8.917   8.719  68.950  1.00  0.00    -0.134 A  
HETATM   14  C   UNL     1      -8.051   9.809  68.831  1.00  0.00    -0.101 A  
HETATM   15  C   UNL     1      -8.523  11.094  68.537  1.00  0.00    -0.156 A  
HETATM   16  C   UNL     1      -9.903  11.290  68.345  1.00  0.00    -0.200 A  
HETATM   17  C   UNL     1     -10.748  10.188  68.461  1.00  0.00    -0.230 A  
HETATM   18  C   UNL     1     -10.297   8.895  68.781  1.00  0.00    -0.232 A  
HETATM   19  N   UNL     1     -11.992  10.668  68.157  1.00  0.00    -0.783 NA 
HETATM   20  N   UNL     1     -12.028  11.976  67.865  1.00  0.00    -0.547 NA 
HETATM   21  H   UNL     1     -12.825  10.079  68.152  1.00  0.00     0.000 HD 
HETATM   22  C   UNL     1     -10.761  12.385  68.010  1.00  0.00    -0.223 A  
BRANCH  22  23
HETATM   23  C   UNL     1     -10.399  13.762  67.830  1.00  0.00    -0.241 C  
HETATM   24  C   UNL     1     -10.119  14.643  68.808  1.00  0.00    -0.235 C  
BRANCH  24  25
HETATM   25  C   UNL     1      -9.853  16.071  68.590  1.00  0.00    -0.218 A  
HETATM   26  C   UNL     1     -10.883  16.912  68.175  1.00  0.00    -0.351 A  
HETATM   27  C   UNL     1     -10.595  18.247  67.899  1.00  0.00    -0.392 A  
HETATM   28  C   UNL     1      -9.293  18.705  68.049  1.00  0.00    -0.340 A  
HETATM   29  C   UNL     1      -8.333  17.807  68.481  1.00  0.00    -0.297 A  
HETATM   30  N   UNL     1      -8.584  16.508  68.758  1.00  0.00    -0.253 NA 
ENDBRANCH  24  25
ENDBRANCH  22  23
ENDBRANCH  12  13
ENDBRANCH   7  12
ENDBRANCH   3   6
TORSDOF 5
ENDMDL
MODEL       99
REMARK 921   NORMALIZED FREE ENERGY PREDICTED BY IDOCK:   -5.00 KCAL/MOL
REMARK 922        TOTAL FREE ENERGY PREDICTED BY IDOCK:   -7.48 KCAL/MOL
REMARK 923 INTER-LIGAND FREE ENERGY PREDICTED BY IDOCK:   -6.77 KCAL/MOL
REMARK 924 INTRA-LIGAND FREE ENERGY PREDICTED BY IDOCK:   -0.71 KCAL/MOL
REMARK 927      BINDING AFFINITY PREDICTED BY RF-SCORE:    0.00 PKD
ROOT
HETATM    1  C   UNL     1      -5.984   6.802  71.844  1.00  0.00    -0.038 C  
HETATM    2  N   UNL     1      -7.417   6.689  71.874  1.00  0.00    -0.090 N  
HETATM    3  C   UNL     1      -8.228   7.771  71.609  1.00  0.00    -0.110 C  
HETATM    4  H   UNL     1      -7.842   5.788  72.094  1.00  0.00     0.000 HD 
HETATM    5  O   UNL     1      -7.812   8.922  71.515  1.00  0.00    -0.232 OA 
ENDROOT
BRANCH   3   6
HETATM    6  C   UNL     1      -9.693   7.485  71.504  1.00  0.00    -0.184 A  
HETATM    7  C   UNL     1     -10.269   6.659  70.508  1.00  0.00    -0.189 A  
HETATM    8  C   UNL     1     -11.649   6.410  70.571  1.00  0.00    -0.424 A  
HETATM    9  C   UNL     1     -11.876   7.868  72.493  1.00  0.00    -0.390 A  
HETATM   10  C   UNL     1     -12.443   7.002  71.563  1.00  0.00    -0.426 A  
HETATM   11  C   UNL     1     -10.504   8.104  72.467  1.00  0.00    -0.409 A  
BRANCH   7  12
HETATM   12  S   UNL     1      -9.321   6.173  69.070  1.00  0.00    -0.128 SA 
BRANCH  12  13
HETATM   13  C   UNL     1      -9.599   7.354  67.772  1.00  0.00    -0.140 A  
HETATM   14  C   UNL     1     -10.091   8.604  68.156  1.00  0.00    -0.236 A  
HETATM   15  C   UNL     1     -10.144   9.679  67.262  1.00  0.00    -0.267 A  
HETATM   16  C   UNL     1      -9.677   9.501  65.946  1.00  0.00    -0.352 A  
HETATM   17  C   UNL     1      -9.184   8.248  65.587  1.00  0.00    -0.012 A  
HETATM   18  C   UNL     1      -9.147   7.148  66.462  1.00  0.00    -0.182 A  
HETATM   19  N   UNL     1      -8.749   8.400  64.298  1.00  0.00    -0.399 NA 
HETATM   20  N   UNL     1      -8.925   9.629  63.793  1.00  0.00    -0.234 NA 
HETATM   21  H   UNL     1      -8.325   7.641  63.766  1.00  0.00     0.000 HD 
HETATM   22  C   UNL     1      -9.527  10.311  64.777  1.00  0.00    -0.283 A  
BRANCH  22  23
HETATM   23  C   UNL     1      -9.931  11.676  64.596  1.00  0.00    -0.291 C  
HETATM   24  C   UNL     1     -10.144  12.576  65.574  1.00  0.00    -0.282 C  
BRANCH  24  25
HETATM   25  C   UNL     1     -10.658  13.935  65.356  1.00  0.00    -0.335 A  
HETATM   26  C   UNL     1     -11.829  14.125  64.626  1.00  0.00    -0.443 A  
HETATM   27  C   UNL     1     -12.258  15.424  64.365  1.00  0.00    -0.161 A  
HETATM   28  C   UNL     1     -11.513  16.494  64.842  1.00  0.00     0.108 A  
HETATM   29  C   UNL     1     -10.371  16.217  65.573  1.00  0.00    -0.338 A  
HETATM   30  N   UNL     1      -9.932  14.967  65.843  1.00  0.00    -0.304 NA 
ENDBRANCH  24  25
ENDBRANCH  22  23
ENDBRANCH  12  13
ENDBRANCH   7  12
ENDBRANCH   3   6
TORSDOF 5
ENDMDL
MODEL      100
REMARK 921   NORMALIZED FREE ENERGY PREDICTED BY IDOCK:   -4.99 KCAL/MOL
REMARK 922        TOTAL FREE ENERGY PREDICTED BY IDOCK:   -7.47 KCAL/MOL
REMARK 923 INTER-LIGAND FREE ENERGY PREDICTED BY IDOCK:   -7.37 KCAL/MOL
REMARK 924 INTRA-LIGAND FREE ENERGY PREDICTED BY IDOCK:   -0.10 KCAL/MOL
REMARK 927      BINDING AFFINITY PREDICTED BY RF-SCORE:    0.00 PKD
ROOT
HETATM    1  C   UNL     1     -10.933  19.903  66.876  1.00  0.00    -0.100 C  
HETATM    2  N   UNL     1      -9.627  19.312  66.985  1.00  0.00    -0.313 N  
HETATM    3  C   UNL     1      -9.078  19.006  68.211  1.00  0.00    -0.327 C  
HETATM    4  H   UNL     1      -9.095  19.115  66.137  1.00  0.00     0.000 HD 
HETATM    5  O   UNL     1      -9.561  19.370  69.279  1.00  0.00    -0.346 OA 
ENDROOT
BRANCH   3   6
HETATM    6  C   UNL     1      -7.792  18.242  68.184  1.00  0.00    -0.299 A  
HETATM    7  C   UNL     1      -7.454  17.296  67.186  1.00  0.00    -0.179 A  
HETATM    8  C   UNL     1      -6.180  16.707  67.235  1.00  0.00    -0.206 A  
HETATM    9  C   UNL     1      -5.658  17.889  69.284  1.00  0.00    -0.202 A  
HETATM   10  C   UNL     1      -5.287  17.011  68.271  1.00  0.00    -0.123 A  
HETATM   11  C   UNL     1      -6.904  18.508  69.238  1.00  0.00    -0.234 A  
BRANCH   7  12
HETATM   12  S   UNL     1      -8.702  16.672  66.064  1.00  0.00    -0.090 SA 
BRANCH  12  13
HETATM   13  C   UNL     1      -9.202  15.055  66.602  1.00  0.00    -0.276 A  
HETATM   14  C   UNL     1      -8.500  14.507  67.679  1.00  0.00    -0.189 A  
HETATM   15  C   UNL     1      -8.939  13.346  68.327  1.00  0.00    -0.176 A  
HETATM   16  C   UNL     1     -10.123  12.723  67.891  1.00  0.00    -0.231 A  
HETATM   17  C   UNL     1     -10.810  13.290  66.821  1.00  0.00    -0.281 A  
HETATM   18  C   UNL     1     -10.373  14.440  66.139  1.00  0.00    -0.305 A  
HETATM   19  N   UNL     1     -11.932  12.520  66.677  1.00  0.00    -0.574 NA 
HETATM   20  N   UNL     1     -12.025  11.506  67.549  1.00  0.00    -0.622 NA 
HETATM   21  H   UNL     1     -12.640  12.703  65.966  1.00  0.00     0.000 HD 
HETATM   22  C   UNL     1     -10.906  11.590  68.280  1.00  0.00    -0.216 A  
BRANCH  22  23
HETATM   23  C   UNL     1     -10.612  10.629  69.304  1.00  0.00    -0.263 C  
HETATM   24  C   UNL     1     -11.055   9.359  69.350  1.00  0.00    -0.098 C  
BRANCH  24  25
HETATM   25  C   UNL     1     -10.819   8.435  70.468  1.00  0.00    -0.232 A  
HETATM   26  C   UNL     1     -10.789   8.920  71.774  1.00  0.00    -0.436 A  
HETATM   27  C   UNL     1     -10.488   8.043  72.812  1.00  0.00    -0.415 A  
HETATM   28  C   UNL     1     -10.229   6.710  72.522  1.00  0.00    -0.203 A  
HETATM   29  C   UNL     1     -10.295   6.307  71.200  1.00  0.00    -0.209 A  
HETATM   30  N   UNL     1     -10.587   7.136  70.172  1.00  0.00    -0.223 NA 
ENDBRANCH  24  25
ENDBRANCH  22  23
ENDBRANCH  12  13
ENDBRANCH   7  12
ENDBRANCH   3   6
TORSDOF 5
ENDMDL
MODEL      101
REMARK 921   NORMALIZED FREE ENERGY PREDICTED BY IDOCK:   -4.96 KCAL/MOL
REMARK 922        TOTAL FREE ENERGY PREDICTED BY IDOCK:   -7.43 KCAL/MOL
REMARK 923 INTER-LIGAND FREE ENERGY PREDICTED BY IDOCK:   -6.90 KCAL/MOL
REMARK 924 INTRA-LIGAND FREE ENERGY PREDICTED BY IDOCK:   -0.52 KCAL/MOL
REMARK 927      BINDING AFFINITY PREDICTED BY RF-SCORE:    0.00 PKD
ROOT
HETATM    1  C   UNL     1      -9.695  18.611  66.085  1.00  0.00    -0.239 C  
HETATM    2  N   UNL     1     -10.455  17.854  67.043  1.00  0.00    -0.358 N  
HETATM    3  C   UNL     1     -10.127  16.551  67.350  1.00  0.00    -0.279 C  
HETATM    4  H   UNL     1     -11.252  18.291  67.506  1.00  0.00     0.000 HD 
HETATM    5  O   UNL     1      -9.308  15.892  66.718  1.00  0.00    -0.217 OA 
ENDROOT
BRANCH   3   6
HETATM    6  C   UNL     1     -10.885  15.932  68.482  1.00  0.00    -0.298 A  
HETATM    7  C   UNL     1     -11.580  14.701  68.391  1.00  0.00    -0.323 A  
HETATM    8  C   UNL     1     -12.186  14.194  69.551  1.00  0.00    -0.351 A  
HETATM    9  C   UNL     1     -11.521  16.152  70.814  1.00  0.00    -0.408 A  
HETATM   10  C   UNL     1     -12.146  14.911  70.755  1.00  0.00    -0.377 A  
HETATM   11  C   UNL     1     -10.888  16.659  69.682  1.00  0.00    -0.282 A  
BRANCH   7  12
HETATM   12  S   UNL     1     -11.904  13.957  66.795  1.00  0.00    -0.442 SA 
BRANCH  12  13
HETATM   13  C   UNL     1     -11.079  12.385  66.717  1.00  0.00    -0.285 A  
HETATM   14  C   UNL     1     -11.305  11.504  67.777  1.00  0.00    -0.364 A  
HETATM   15  C   UNL     1     -10.891  10.168  67.724  1.00  0.00    -0.346 A  
HETATM   16  C   UNL     1     -10.243   9.697  66.567  1.00  0.00    -0.294 A  
HETATM   17  C   UNL     1     -10.034  10.590  65.518  1.00  0.00    -0.279 A  
HETATM   18  C   UNL     1     -10.419  11.942  65.562  1.00  0.00    -0.309 A  
HETATM   19  N   UNL     1      -9.461   9.840  64.528  1.00  0.00    -0.409 NA 
HETATM   20  N   UNL     1      -9.272   8.551  64.846  1.00  0.00     0.237 NA 
HETATM   21  H   UNL     1      -9.198  10.229  63.623  1.00  0.00     0.000 HD 
HETATM   22  C   UNL     1      -9.712   8.450  66.107  1.00  0.00    -0.153 A  
BRANCH  22  23
HETATM   23  C   UNL     1      -9.628   7.212  66.827  1.00  0.00    -0.230 C  
HETATM   24  C   UNL     1      -8.931   6.997  67.958  1.00  0.00    -0.126 C  
BRANCH  24  25
HETATM   25  C   UNL     1      -8.785   5.689  68.610  1.00  0.00    -0.106 A  
HETATM   26  C   UNL     1      -9.600   4.627  68.225  1.00  0.00    -0.207 A  
HETATM   27  C   UNL     1      -9.498   3.417  68.907  1.00  0.00    -0.201 A  
HETATM   28  C   UNL     1      -8.587   3.299  69.948  1.00  0.00    -0.108 A  
HETATM   29  C   UNL     1      -7.804   4.398  70.256  1.00  0.00    -0.059 A  
HETATM   30  N   UNL     1      -7.880   5.583  69.610  1.00  0.00    -0.088 NA 
ENDBRANCH  24  25
ENDBRANCH  22  23
ENDBRANCH  12  13
ENDBRANCH   7  12
ENDBRANCH   3   6
TORSDOF 5
ENDMDL
MODEL      102
REMARK 921   NORMALIZED FREE ENERGY PREDICTED BY IDOCK:   -4.92 KCAL/MOL
REMARK 922        TOTAL FREE ENERGY PREDICTED BY IDOCK:   -7.38 KCAL/MOL
REMARK 923 INTER-LIGAND FREE ENERGY PREDICTED BY IDOCK:   -6.74 KCAL/MOL
REMARK 924 INTRA-LIGAND FREE ENERGY PREDICTED BY IDOCK:   -0.63 KCAL/MOL
REMARK 927      BINDING AFFINITY PREDICTED BY RF-SCORE:    0.00 PKD
ROOT
HETATM    1  C   UNL     1      -6.196   6.016  71.730  1.00  0.00    -0.044 C  
HETATM    2  N   UNL     1      -7.297   6.376  70.880  1.00  0.00    -0.081 N  
HETATM    3  C   UNL     1      -7.287   6.087  69.532  1.00  0.00    -0.076 C  
HETATM    4  H   UNL     1      -8.104   6.854  71.282  1.00  0.00     0.000 HD 
HETATM    5  O   UNL     1      -6.295   5.683  68.934  1.00  0.00    -0.034 OA 
ENDROOT
BRANCH   3   6
HETATM    6  C   UNL     1      -8.559   6.359  68.792  1.00  0.00    -0.123 A  
HETATM    7  C   UNL     1      -8.678   7.302  67.742  1.00  0.00    -0.126 A  
HETATM    8  C   UNL     1      -9.911   7.403  67.079  1.00  0.00    -0.301 A  
HETATM    9  C   UNL     1     -10.898   5.755  68.556  1.00  0.00    -0.257 A  
HETATM   10  C   UNL     1     -11.008   6.627  67.477  1.00  0.00    -0.416 A  
HETATM   11  C   UNL     1      -9.675   5.617  69.208  1.00  0.00    -0.205 A  
BRANCH   7  12
HETATM   12  S   UNL     1      -7.389   8.509  67.454  1.00  0.00    -0.090 SA 
BRANCH  12  13
HETATM   13  C   UNL     1      -8.004  10.121  67.877  1.00  0.00    -0.101 A  
HETATM   14  C   UNL     1      -7.358  11.213  67.292  1.00  0.00    -0.118 A  
HETATM   15  C   UNL     1      -7.883  12.508  67.375  1.00  0.00    -0.175 A  
HETATM   16  C   UNL     1      -9.099  12.713  68.052  1.00  0.00    -0.207 A  
HETATM   17  C   UNL     1      -9.731  11.610  68.620  1.00  0.00    -0.143 A  
HETATM   18  C   UNL     1      -9.207  10.305  68.572  1.00  0.00    -0.144 A  
HETATM   19  N   UNL     1     -10.900  12.101  69.135  1.00  0.00    -0.400 NA 
HETATM   20  N   UNL     1     -11.074  13.419  68.958  1.00  0.00    -0.259 NA 
HETATM   21  H   UNL     1     -11.583  11.514  69.613  1.00  0.00     0.000 HD 
HETATM   22  C   UNL     1      -9.963  13.821  68.327  1.00  0.00    -0.243 A  
BRANCH  22  23
HETATM   23  C   UNL     1      -9.750  15.202  68.003  1.00  0.00    -0.209 C  
HETATM   24  C   UNL     1     -10.621  16.208  68.204  1.00  0.00    -0.290 C  
BRANCH  24  25
HETATM   25  C   UNL     1     -10.410  17.593  67.764  1.00  0.00    -0.365 A  
HETATM   26  C   UNL     1     -10.151  18.588  68.704  1.00  0.00    -0.406 A  
HETATM   27  C   UNL     1     -10.030  19.907  68.275  1.00  0.00    -0.552 A  
HETATM   28  C   UNL     1     -10.166  20.196  66.924  1.00  0.00    -0.566 A  
HETATM   29  C   UNL     1     -10.406  19.147  66.054  1.00  0.00    -0.463 A  
HETATM   30  N   UNL     1     -10.526  17.858  66.442  1.00  0.00    -0.349 NA 
ENDBRANCH  24  25
ENDBRANCH  22  23
ENDBRANCH  12  13
ENDBRANCH   7  12
ENDBRANCH   3   6
TORSDOF 5
ENDMDL
MODEL      103
REMARK 921   NORMALIZED FREE ENERGY PREDICTED BY IDOCK:   -4.91 KCAL/MOL
REMARK 922        TOTAL FREE ENERGY PREDICTED BY IDOCK:   -7.37 KCAL/MOL
REMARK 923 INTER-LIGAND FREE ENERGY PREDICTED BY IDOCK:   -6.33 KCAL/MOL
REMARK 924 INTRA-LIGAND FREE ENERGY PREDICTED BY IDOCK:   -1.04 KCAL/MOL
REMARK 927      BINDING AFFINITY PREDICTED BY RF-SCORE:    0.00 PKD
ROOT
HETATM    1  C   UNL     1      -7.566   7.376  63.502  1.00  0.00    -0.121 C  
HETATM    2  N   UNL     1      -7.762   7.524  64.919  1.00  0.00    -0.108 N  
HETATM    3  C   UNL     1      -8.404   6.555  65.659  1.00  0.00    -0.144 C  
HETATM    4  H   UNL     1      -7.419   8.363  65.386  1.00  0.00     0.000 HD 
HETATM    5  O   UNL     1      -9.004   5.608  65.160  1.00  0.00    -0.105 OA 
ENDROOT
BRANCH   3   6
HETATM    6  C   UNL     1      -8.394   6.747  67.143  1.00  0.00    -0.121 A  
HETATM    7  C   UNL     1      -9.416   7.415  67.862  1.00  0.00    -0.140 A  
HETATM    8  C   UNL     1      -9.322   7.457  69.261  1.00  0.00    -0.154 A  
HETATM    9  C   UNL     1      -7.191   6.306  69.204  1.00  0.00    -0.087 A  
HETATM   10  C   UNL     1      -8.223   6.897  69.926  1.00  0.00    -0.127 A  
HETATM   11  C   UNL     1      -7.279   6.226  67.817  1.00  0.00    -0.083 A  
BRANCH   7  12
HETATM   12  S   UNL     1     -10.636   8.402  67.001  1.00  0.00    -0.146 SA 
BRANCH  12  13
HETATM   13  C   UNL     1     -10.052  10.076  66.896  1.00  0.00    -0.229 A  
HETATM   14  C   UNL     1     -10.990  11.084  67.132  1.00  0.00    -0.344 A  
HETATM   15  C   UNL     1     -10.607  12.421  67.291  1.00  0.00    -0.246 A  
HETATM   16  C   UNL     1      -9.242  12.756  67.225  1.00  0.00    -0.203 A  
HETATM   17  C   UNL     1      -8.323  11.735  66.996  1.00  0.00    -0.172 A  
HETATM   18  C   UNL     1      -8.689  10.390  66.807  1.00  0.00    -0.132 A  
HETATM   19  N   UNL     1      -7.100  12.344  67.054  1.00  0.00    -0.362 NA 
HETATM   20  N   UNL     1      -7.146  13.663  67.289  1.00  0.00    -0.091 NA 
HETATM   21  H   UNL     1      -6.224  11.837  66.929  1.00  0.00     0.000 HD 
HETATM   22  C   UNL     1      -8.454  13.944  67.361  1.00  0.00    -0.199 A  
BRANCH  22  23
HETATM   23  C   UNL     1      -8.917  15.287  67.556  1.00  0.00    -0.192 C  
HETATM   24  C   UNL     1      -8.672  16.336  66.750  1.00  0.00    -0.264 C  
BRANCH  24  25
HETATM   25  C   UNL     1      -9.076  17.719  67.037  1.00  0.00    -0.252 A  
HETATM   26  C   UNL     1      -9.237  18.134  68.357  1.00  0.00    -0.316 A  
HETATM   27  C   UNL     1      -9.694  19.426  68.606  1.00  0.00    -0.504 A  
HETATM   28  C   UNL     1      -9.973  20.266  67.537  1.00  0.00    -0.557 A  
HETATM   29  C   UNL     1      -9.770  19.780  66.257  1.00  0.00    -0.435 A  
HETATM   30  N   UNL     1      -9.326  18.533  65.985  1.00  0.00    -0.493 NA 
ENDBRANCH  24  25
ENDBRANCH  22  23
ENDBRANCH  12  13
ENDBRANCH   7  12
ENDBRANCH   3   6
TORSDOF 5
ENDMDL
MODEL      104
REMARK 921   NORMALIZED FREE ENERGY PREDICTED BY IDOCK:   -4.90 KCAL/MOL
REMARK 922        TOTAL FREE ENERGY PREDICTED BY IDOCK:   -7.35 KCAL/MOL
REMARK 923 INTER-LIGAND FREE ENERGY PREDICTED BY IDOCK:   -6.40 KCAL/MOL
REMARK 924 INTRA-LIGAND FREE ENERGY PREDICTED BY IDOCK:   -0.95 KCAL/MOL
REMARK 927      BINDING AFFINITY PREDICTED BY RF-SCORE:    0.00 PKD
ROOT
HETATM    1  C   UNL     1      -5.421   6.729  67.073  1.00  0.00    -0.013 C  
HETATM    2  N   UNL     1      -6.696   6.407  67.653  1.00  0.00    -0.061 N  
HETATM    3  C   UNL     1      -7.301   7.245  68.566  1.00  0.00    -0.100 C  
HETATM    4  H   UNL     1      -7.163   5.541  67.384  1.00  0.00     0.000 HD 
HETATM    5  O   UNL     1      -6.737   8.206  69.081  1.00  0.00    -0.046 OA 
ENDROOT
BRANCH   3   6
HETATM    6  C   UNL     1      -8.696   6.883  68.966  1.00  0.00    -0.131 A  
HETATM    7  C   UNL     1      -9.829   7.059  68.134  1.00  0.00    -0.139 A  
HETATM    8  C   UNL     1     -11.072   6.605  68.602  1.00  0.00    -0.288 A  
HETATM    9  C   UNL     1     -10.089   5.936  70.713  1.00  0.00    -0.253 A  
HETATM   10  C   UNL     1     -11.197   6.038  69.878  1.00  0.00    -0.438 A  
HETATM   11  C   UNL     1      -8.841   6.352  70.257  1.00  0.00    -0.151 A  
BRANCH   7  12
HETATM   12  S   UNL     1      -9.726   8.066  66.658  1.00  0.00    -0.239 SA 
BRANCH  12  13
HETATM   13  C   UNL     1      -9.892   9.775  67.115  1.00  0.00    -0.188 A  
HETATM   14  C   UNL     1      -8.765  10.583  66.942  1.00  0.00    -0.130 A  
HETATM   15  C   UNL     1      -8.836  11.976  67.058  1.00  0.00    -0.197 A  
HETATM   16  C   UNL     1     -10.075  12.579  67.344  1.00  0.00    -0.211 A  
HETATM   17  C   UNL     1     -11.186  11.755  67.506  1.00  0.00    -0.291 A  
HETATM   18  C   UNL     1     -11.132  10.352  67.419  1.00  0.00    -0.297 A  
HETATM   19  N   UNL     1     -12.234  12.613  67.699  1.00  0.00    -0.314 NA 
HETATM   20  N   UNL     1     -11.898  13.911  67.687  1.00  0.00    -0.369 NA 
HETATM   21  H   UNL     1     -13.191  12.293  67.841  1.00  0.00     0.000 HD 
HETATM   22  C   UNL     1     -10.570  13.911  67.507  1.00  0.00    -0.256 A  
BRANCH  22  23
HETATM   23  C   UNL     1      -9.822  15.135  67.487  1.00  0.00    -0.220 C  
HETATM   24  C   UNL     1      -9.890  16.092  66.543  1.00  0.00    -0.284 C  
BRANCH  24  25
HETATM   25  C   UNL     1      -9.032  17.283  66.502  1.00  0.00    -0.268 A  
HETATM   26  C   UNL     1      -7.648  17.139  66.432  1.00  0.00    -0.347 A  
HETATM   27  C   UNL     1      -6.849  18.279  66.472  1.00  0.00    -0.249 A  
HETATM   28  C   UNL     1      -7.449  19.526  66.576  1.00  0.00    -0.271 A  
HETATM   29  C   UNL     1      -8.831  19.582  66.623  1.00  0.00    -0.346 A  
HETATM   30  N   UNL     1      -9.632  18.493  66.584  1.00  0.00    -0.309 NA 
ENDBRANCH  24  25
ENDBRANCH  22  23
ENDBRANCH  12  13
ENDBRANCH   7  12
ENDBRANCH   3   6
TORSDOF 5
ENDMDL
MODEL      105
REMARK 921   NORMALIZED FREE ENERGY PREDICTED BY IDOCK:   -4.85 KCAL/MOL
REMARK 922        TOTAL FREE ENERGY PREDICTED BY IDOCK:   -7.29 KCAL/MOL
REMARK 923 INTER-LIGAND FREE ENERGY PREDICTED BY IDOCK:   -6.57 KCAL/MOL
REMARK 924 INTRA-LIGAND FREE ENERGY PREDICTED BY IDOCK:   -0.71 KCAL/MOL
REMARK 927      BINDING AFFINITY PREDICTED BY RF-SCORE:    0.00 PKD
ROOT
HETATM    1  C   UNL     1     -12.497   8.375  72.140  1.00  0.00    -0.370 C  
HETATM    2  N   UNL     1     -11.707   7.177  72.046  1.00  0.00    -0.280 N  
HETATM    3  C   UNL     1     -10.895   6.769  73.083  1.00  0.00    -0.284 C  
HETATM    4  H   UNL     1     -11.748   6.617  71.194  1.00  0.00     0.000 HD 
HETATM    5  O   UNL     1     -10.645   7.467  74.061  1.00  0.00    -0.284 OA 
ENDROOT
BRANCH   3   6
HETATM    6  C   UNL     1     -10.259   5.424  72.929  1.00  0.00    -0.217 A  
HETATM    7  C   UNL     1      -8.898   5.225  72.592  1.00  0.00    -0.123 A  
HETATM    8  C   UNL     1      -8.409   3.910  72.558  1.00  0.00    -0.098 A  
HETATM    9  C   UNL     1     -10.608   3.026  73.061  1.00  0.00    -0.240 A  
HETATM   10  C   UNL     1      -9.257   2.821  72.801  1.00  0.00    -0.122 A  
HETATM   11  C   UNL     1     -11.107   4.324  73.131  1.00  0.00    -0.293 A  
BRANCH   7  12
HETATM   12  S   UNL     1      -7.908   6.581  71.970  1.00  0.00    -0.099 SA 
BRANCH  12  13
HETATM   13  C   UNL     1      -8.807   7.402  70.676  1.00  0.00    -0.150 A  
HETATM   14  C   UNL     1      -8.946   8.787  70.790  1.00  0.00    -0.231 A  
HETATM   15  C   UNL     1      -9.438   9.565  69.736  1.00  0.00    -0.228 A  
HETATM   16  C   UNL     1      -9.790   8.938  68.526  1.00  0.00    -0.182 A  
HETATM   17  C   UNL     1      -9.636   7.557  68.431  1.00  0.00    -0.150 A  
HETATM   18  C   UNL     1      -9.169   6.753  69.487  1.00  0.00    -0.147 A  
HETATM   19  N   UNL     1      -9.984   7.253  67.143  1.00  0.00    -0.195 NA 
HETATM   20  N   UNL     1     -10.355   8.308  66.404  1.00  0.00    -0.122 NA 
HETATM   21  H   UNL     1      -9.962   6.302  66.775  1.00  0.00     0.000 HD 
HETATM   22  C   UNL     1     -10.278   9.349  67.245  1.00  0.00    -0.246 A  
BRANCH  22  23
HETATM   23  C   UNL     1     -10.652  10.670  66.830  1.00  0.00    -0.297 C  
HETATM   24  C   UNL     1      -9.813  11.642  66.425  1.00  0.00    -0.233 C  
BRANCH  24  25
HETATM   25  C   UNL     1     -10.223  13.016  66.107  1.00  0.00    -0.284 A  
HETATM   26  C   UNL     1     -11.461  13.250  65.513  1.00  0.00    -0.335 A  
HETATM   27  C   UNL     1     -11.799  14.551  65.149  1.00  0.00    -0.374 A  
HETATM   28  C   UNL     1     -10.898  15.580  65.390  1.00  0.00    -0.402 A  
HETATM   29  C   UNL     1      -9.696  15.263  65.999  1.00  0.00    -0.335 A  
HETATM   30  N   UNL     1      -9.343  14.010  66.365  1.00  0.00    -0.256 NA 
ENDBRANCH  24  25
ENDBRANCH  22  23
ENDBRANCH  12  13
ENDBRANCH   7  12
ENDBRANCH   3   6
TORSDOF 5
ENDMDL
MODEL      106
REMARK 921   NORMALIZED FREE ENERGY PREDICTED BY IDOCK:   -4.84 KCAL/MOL
REMARK 922        TOTAL FREE ENERGY PREDICTED BY IDOCK:   -7.28 KCAL/MOL
REMARK 923 INTER-LIGAND FREE ENERGY PREDICTED BY IDOCK:   -6.43 KCAL/MOL
REMARK 924 INTRA-LIGAND FREE ENERGY PREDICTED BY IDOCK:   -0.85 KCAL/MOL
REMARK 927      BINDING AFFINITY PREDICTED BY RF-SCORE:    0.00 PKD
ROOT
HETATM    1  C   UNL     1     -10.107   4.781  66.204  1.00  0.00    -0.262 C  
HETATM    2  N   UNL     1     -10.523   5.611  67.301  1.00  0.00    -0.242 N  
HETATM    3  C   UNL     1      -9.703   5.829  68.388  1.00  0.00    -0.133 C  
HETATM    4  H   UNL     1     -11.444   6.049  67.276  1.00  0.00     0.000 HD 
HETATM    5  O   UNL     1      -8.665   5.205  68.588  1.00  0.00    -0.094 OA 
ENDROOT
BRANCH   3   6
HETATM    6  C   UNL     1     -10.180   6.843  69.379  1.00  0.00    -0.194 A  
HETATM    7  C   UNL     1      -9.921   8.232  69.279  1.00  0.00    -0.192 A  
HETATM    8  C   UNL     1     -10.494   9.084  70.235  1.00  0.00    -0.248 A  
HETATM    9  C   UNL     1     -11.450   7.197  71.416  1.00  0.00    -0.303 A  
HETATM   10  C   UNL     1     -11.261   8.569  71.289  1.00  0.00    -0.321 A  
HETATM   11  C   UNL     1     -10.916   6.336  70.461  1.00  0.00    -0.374 A  
BRANCH   7  12
HETATM   12  S   UNL     1      -8.687   8.846  68.136  1.00  0.00    -0.134 SA 
BRANCH  12  13
HETATM   13  C   UNL     1      -8.953  10.584  67.883  1.00  0.00    -0.137 A  
HETATM   14  C   UNL     1      -8.196  11.455  68.670  1.00  0.00    -0.142 A  
HETATM   15  C   UNL     1      -8.157  12.831  68.413  1.00  0.00    -0.129 A  
HETATM   16  C   UNL     1      -8.887  13.347  67.327  1.00  0.00    -0.220 A  
HETATM   17  C   UNL     1      -9.629  12.459  66.550  1.00  0.00    -0.240 A  
HETATM   18  C   UNL     1      -9.703  11.078  66.807  1.00  0.00    -0.222 A  
HETATM   19  N   UNL     1     -10.160  13.227  65.550  1.00  0.00    -0.380 NA 
HETATM   20  N   UNL     1      -9.837  14.527  65.617  1.00  0.00    -0.326 NA 
HETATM   21  H   UNL     1     -10.753  12.844  64.815  1.00  0.00     0.000 HD 
HETATM   22  C   UNL     1      -9.086  14.629  66.721  1.00  0.00    -0.264 A  
BRANCH  22  23
HETATM   23  C   UNL     1      -8.582  15.896  67.164  1.00  0.00    -0.221 C  
HETATM   24  C   UNL     1      -7.287  16.217  67.343  1.00  0.00    -0.193 C  
BRANCH  24  25
HETATM   25  C   UNL     1      -6.815  17.493  67.898  1.00  0.00    -0.183 A  
HETATM   26  C   UNL     1      -7.641  18.230  68.742  1.00  0.00    -0.294 A  
HETATM   27  C   UNL     1      -7.206  19.473  69.196  1.00  0.00    -0.382 A  
HETATM   28  C   UNL     1      -5.960  19.942  68.801  1.00  0.00    -0.290 A  
HETATM   29  C   UNL     1      -5.195  19.139  67.974  1.00  0.00    -0.172 A  
HETATM   30  N   UNL     1      -5.591  17.929  67.519  1.00  0.00    -0.137 NA 
ENDBRANCH  24  25
ENDBRANCH  22  23
ENDBRANCH  12  13
ENDBRANCH   7  12
ENDBRANCH   3   6
TORSDOF 5
ENDMDL
MODEL      107
REMARK 921   NORMALIZED FREE ENERGY PREDICTED BY IDOCK:   -4.83 KCAL/MOL
REMARK 922        TOTAL FREE ENERGY PREDICTED BY IDOCK:   -7.26 KCAL/MOL
REMARK 923 INTER-LIGAND FREE ENERGY PREDICTED BY IDOCK:   -6.72 KCAL/MOL
REMARK 924 INTRA-LIGAND FREE ENERGY PREDICTED BY IDOCK:   -0.54 KCAL/MOL
REMARK 927      BINDING AFFINITY PREDICTED BY RF-SCORE:    0.00 PKD
ROOT
HETATM    1  C   UNL     1     -14.201  15.486  72.087  1.00  0.00    -0.522 C  
HETATM    2  N   UNL     1     -13.585  15.365  70.794  1.00  0.00    -0.814 N  
HETATM    3  C   UNL     1     -12.216  15.285  70.656  1.00  0.00    -0.364 C  
HETATM    4  H   UNL     1     -14.173  15.338  69.961  1.00  0.00     0.000 HD 
HETATM    5  O   UNL     1     -11.430  15.491  71.575  1.00  0.00    -0.362 OA 
ENDROOT
BRANCH   3   6
HETATM    6  C   UNL     1     -11.710  14.991  69.279  1.00  0.00    -0.349 A  
HETATM    7  C   UNL     1     -11.810  13.725  68.651  1.00  0.00    -0.374 A  
HETATM    8  C   UNL     1     -11.365  13.606  67.326  1.00  0.00    -0.346 A  
HETATM    9  C   UNL     1     -10.636  15.916  67.309  1.00  0.00    -0.314 A  
HETATM   10  C   UNL     1     -10.792  14.697  66.658  1.00  0.00    -0.312 A  
HETATM   11  C   UNL     1     -11.098  16.065  68.614  1.00  0.00    -0.349 A  
BRANCH   7  12
HETATM   12  S   UNL     1     -12.236  12.270  69.603  1.00  0.00    -0.034 SA 
BRANCH  12  13
HETATM   13  C   UNL     1     -11.235  10.910  69.051  1.00  0.00    -0.266 A  
HETATM   14  C   UNL     1     -11.397  10.510  67.723  1.00  0.00    -0.267 A  
HETATM   15  C   UNL     1     -10.519   9.604  67.116  1.00  0.00    -0.317 A  
HETATM   16  C   UNL     1      -9.439   9.092  67.859  1.00  0.00    -0.158 A  
HETATM   17  C   UNL     1      -9.293   9.510  69.180  1.00  0.00    -0.163 A  
HETATM   18  C   UNL     1     -10.178  10.398  69.817  1.00  0.00    -0.228 A  
HETATM   19  N   UNL     1      -8.140   8.912  69.610  1.00  0.00    -0.101 NA 
HETATM   20  N   UNL     1      -7.537   8.142  68.693  1.00  0.00    -0.101 NA 
HETATM   21  H   UNL     1      -7.769   9.041  70.552  1.00  0.00     0.000 HD 
HETATM   22  C   UNL     1      -8.338   8.210  67.622  1.00  0.00    -0.127 A  
BRANCH  22  23
HETATM   23  C   UNL     1      -8.051   7.465  66.430  1.00  0.00    -0.118 C  
HETATM   24  C   UNL     1      -8.701   6.365  66.005  1.00  0.00    -0.157 C  
BRANCH  24  25
HETATM   25  C   UNL     1      -8.312   5.568  64.835  1.00  0.00    -0.142 A  
HETATM   26  C   UNL     1      -7.887   6.206  63.672  1.00  0.00    -0.112 A  
HETATM   27  C   UNL     1      -7.596   5.437  62.548  1.00  0.00    -0.063 A  
HETATM   28  C   UNL     1      -7.732   4.057  62.616  1.00  0.00    -0.061 A  
HETATM   29  C   UNL     1      -8.144   3.502  63.815  1.00  0.00    -0.089 A  
HETATM   30  N   UNL     1      -8.431   4.224  64.921  1.00  0.00    -0.115 NA 
ENDBRANCH  24  25
ENDBRANCH  22  23
ENDBRANCH  12  13
ENDBRANCH   7  12
ENDBRANCH   3   6
TORSDOF 5
ENDMDL
MODEL      108
REMARK 921   NORMALIZED FREE ENERGY PREDICTED BY IDOCK:   -4.76 KCAL/MOL
REMARK 922        TOTAL FREE ENERGY PREDICTED BY IDOCK:   -7.17 KCAL/MOL
REMARK 923 INTER-LIGAND FREE ENERGY PREDICTED BY IDOCK:   -6.40 KCAL/MOL
REMARK 924 INTRA-LIGAND FREE ENERGY PREDICTED BY IDOCK:   -0.77 KCAL/MOL
REMARK 927      BINDING AFFINITY PREDICTED BY RF-SCORE:    0.00 PKD
ROOT
HETATM    1  C   UNL     1      -9.511   4.988  68.689  1.00  0.00    -0.139 C  
HETATM    2  N   UNL     1      -8.823   5.279  69.917  1.00  0.00    -0.111 N  
HETATM    3  C   UNL     1      -9.400   5.018  71.142  1.00  0.00    -0.149 C  
HETATM    4  H   UNL     1      -7.888   5.686  69.882  1.00  0.00     0.000 HD 
HETATM    5  O   UNL     1     -10.577   4.703  71.282  1.00  0.00    -0.066 OA 
ENDROOT
BRANCH   3   6
HETATM    6  C   UNL     1      -8.519   5.206  72.336  1.00  0.00    -0.121 A  
HETATM    7  C   UNL     1      -8.833   6.054  73.426  1.00  0.00    -0.126 A  
HETATM    8  C   UNL     1      -7.956   6.079  74.521  1.00  0.00    -0.102 A  
HETATM    9  C   UNL     1      -6.443   4.548  73.408  1.00  0.00    -0.051 A  
HETATM   10  C   UNL     1      -6.776   5.323  74.515  1.00  0.00    -0.076 A  
HETATM   11  C   UNL     1      -7.315   4.485  72.324  1.00  0.00    -0.076 A  
BRANCH   7  12
HETATM   12  S   UNL     1     -10.157   7.252  73.294  1.00  0.00    -0.331 SA 
BRANCH  12  13
HETATM   13  C   UNL     1      -9.921   8.208  71.815  1.00  0.00    -0.201 A  
HETATM   14  C   UNL     1     -11.075   8.658  71.168  1.00  0.00    -0.324 A  
HETATM   15  C   UNL     1     -11.017   9.593  70.128  1.00  0.00    -0.320 A  
HETATM   16  C   UNL     1      -9.766  10.103  69.733  1.00  0.00    -0.232 A  
HETATM   17  C   UNL     1      -8.629   9.646  70.396  1.00  0.00    -0.157 A  
HETATM   18  C   UNL     1      -8.663   8.687  71.425  1.00  0.00    -0.262 A  
HETATM   19  N   UNL     1      -7.596  10.359  69.852  1.00  0.00    -0.292 NA 
HETATM   20  N   UNL     1      -7.961  11.223  68.895  1.00  0.00    -0.132 NA 
HETATM   21  H   UNL     1      -6.627  10.242  70.150  1.00  0.00     0.000 HD 
HETATM   22  C   UNL     1      -9.285  11.056  68.780  1.00  0.00    -0.162 A  
BRANCH  22  23
HETATM   23  C   UNL     1     -10.045  11.784  67.805  1.00  0.00    -0.199 C  
HETATM   24  C   UNL     1     -10.569  11.282  66.671  1.00  0.00    -0.309 C  
BRANCH  24  25
HETATM   25  C   UNL     1     -11.252  12.080  65.645  1.00  0.00    -0.327 A  
HETATM   26  C   UNL     1     -11.258  11.649  64.321  1.00  0.00    -0.392 A  
HETATM   27  C   UNL     1     -11.845  12.457  63.351  1.00  0.00    -0.571 A  
HETATM   28  C   UNL     1     -12.410  13.668  63.727  1.00  0.00    -0.357 A  
HETATM   29  C   UNL     1     -12.375  14.014  65.067  1.00  0.00    -0.441 A  
HETATM   30  N   UNL     1     -11.815  13.249  66.030  1.00  0.00    -0.375 NA 
ENDBRANCH  24  25
ENDBRANCH  22  23
ENDBRANCH  12  13
ENDBRANCH   7  12
ENDBRANCH   3   6
TORSDOF 5
ENDMDL
MODEL      109
REMARK 921   NORMALIZED FREE ENERGY PREDICTED BY IDOCK:   -4.75 KCAL/MOL
REMARK 922        TOTAL FREE ENERGY PREDICTED BY IDOCK:   -7.17 KCAL/MOL
REMARK 923 INTER-LIGAND FREE ENERGY PREDICTED BY IDOCK:   -6.38 KCAL/MOL
REMARK 924 INTRA-LIGAND FREE ENERGY PREDICTED BY IDOCK:   -0.78 KCAL/MOL
REMARK 927      BINDING AFFINITY PREDICTED BY RF-SCORE:    0.00 PKD
ROOT
HETATM    1  C   UNL     1      -9.221   3.397  68.636  1.00  0.00    -0.168 C  
HETATM    2  N   UNL     1      -8.662   3.974  67.443  1.00  0.00    -0.101 N  
HETATM    3  C   UNL     1      -9.435   4.711  66.572  1.00  0.00    -0.166 C  
HETATM    4  H   UNL     1      -7.672   3.835  67.238  1.00  0.00     0.000 HD 
HETATM    5  O   UNL     1     -10.658   4.775  66.641  1.00  0.00    -0.226 OA 
ENDROOT
BRANCH   3   6
HETATM    6  C   UNL     1      -8.702   5.396  65.462  1.00  0.00    -0.154 A  
HETATM    7  C   UNL     1      -7.897   6.548  65.638  1.00  0.00    -0.100 A  
HETATM    8  C   UNL     1      -7.200   7.047  64.526  1.00  0.00    -0.073 A  
HETATM    9  C   UNL     1      -8.187   5.362  63.091  1.00  0.00    -0.105 A  
HETATM   10  C   UNL     1      -7.338   6.450  63.265  1.00  0.00    -0.065 A  
HETATM   11  C   UNL     1      -8.863   4.833  64.187  1.00  0.00    -0.122 A  
BRANCH   7  12
HETATM   12  S   UNL     1      -7.979   7.491  67.157  1.00  0.00    -0.119 SA 
BRANCH  12  13
HETATM   13  C   UNL     1      -8.904   8.979  66.862  1.00  0.00    -0.116 A  
HETATM   14  C   UNL     1      -8.764  10.002  67.802  1.00  0.00    -0.125 A  
HETATM   15  C   UNL     1      -9.265  11.288  67.568  1.00  0.00    -0.159 A  
HETATM   16  C   UNL     1      -9.914  11.561  66.350  1.00  0.00    -0.241 A  
HETATM   17  C   UNL     1     -10.036  10.528  65.423  1.00  0.00    -0.291 A  
HETATM   18  C   UNL     1      -9.564   9.222  65.649  1.00  0.00    -0.324 A  
HETATM   19  N   UNL     1     -10.634  11.102  64.335  1.00  0.00    -0.348 NA 
HETATM   20  N   UNL     1     -10.916  12.405  64.479  1.00  0.00    -0.299 NA 
HETATM   21  H   UNL     1     -10.848  10.583  63.484  1.00  0.00     0.000 HD 
HETATM   22  C   UNL     1     -10.516  12.698  65.723  1.00  0.00    -0.277 A  
BRANCH  22  23
HETATM   23  C   UNL     1     -10.700  14.009  66.274  1.00  0.00    -0.289 C  
HETATM   24  C   UNL     1     -10.252  15.163  65.745  1.00  0.00    -0.365 C  
BRANCH  24  25
HETATM   25  C   UNL     1     -10.369  16.477  66.391  1.00  0.00    -0.311 A  
HETATM   26  C   UNL     1     -10.470  17.626  65.612  1.00  0.00    -0.150 A  
HETATM   27  C   UNL     1     -10.503  18.868  66.242  1.00  0.00    -0.510 A  
HETATM   28  C   UNL     1     -10.439  18.928  67.627  1.00  0.00    -0.514 A  
HETATM   29  C   UNL     1     -10.356  17.737  68.327  1.00  0.00    -0.385 A  
HETATM   30  N   UNL     1     -10.325  16.519  67.743  1.00  0.00    -0.282 NA 
ENDBRANCH  24  25
ENDBRANCH  22  23
ENDBRANCH  12  13
ENDBRANCH   7  12
ENDBRANCH   3   6
TORSDOF 5
ENDMDL
MODEL      110
REMARK 921   NORMALIZED FREE ENERGY PREDICTED BY IDOCK:   -4.74 KCAL/MOL
REMARK 922        TOTAL FREE ENERGY PREDICTED BY IDOCK:   -7.15 KCAL/MOL
REMARK 923 INTER-LIGAND FREE ENERGY PREDICTED BY IDOCK:   -6.39 KCAL/MOL
REMARK 924 INTRA-LIGAND FREE ENERGY PREDICTED BY IDOCK:   -0.76 KCAL/MOL
REMARK 927      BINDING AFFINITY PREDICTED BY RF-SCORE:    0.00 PKD
ROOT
HETATM    1  C   UNL     1     -10.017  11.133  63.062  1.00  0.00    -0.311 C  
HETATM    2  N   UNL     1     -10.098  10.108  64.067  1.00  0.00    -0.474 N  
HETATM    3  C   UNL     1      -9.043   9.851  64.916  1.00  0.00    -0.224 C  
HETATM    4  H   UNL     1     -10.954   9.559  64.153  1.00  0.00     0.000 HD 
HETATM    5  O   UNL     1      -7.923  10.330  64.768  1.00  0.00    -0.151 OA 
ENDROOT
BRANCH   3   6
HETATM    6  C   UNL     1      -9.312   8.881  66.023  1.00  0.00    -0.306 A  
HETATM    7  C   UNL     1     -10.248   9.105  67.062  1.00  0.00    -0.263 A  
HETATM    8  C   UNL     1     -10.460   8.078  67.995  1.00  0.00    -0.243 A  
HETATM    9  C   UNL     1      -8.761   6.705  66.946  1.00  0.00    -0.116 A  
HETATM   10  C   UNL     1      -9.728   6.884  67.930  1.00  0.00    -0.136 A  
HETATM   11  C   UNL     1      -8.557   7.698  65.992  1.00  0.00    -0.165 A  
BRANCH   7  12
HETATM   12  S   UNL     1     -10.934  10.736  67.332  1.00  0.00    -0.282 SA 
BRANCH  12  13
HETATM   13  C   UNL     1      -9.604  11.909  67.434  1.00  0.00    -0.174 A  
HETATM   14  C   UNL     1      -9.703  13.042  66.623  1.00  0.00    -0.256 A  
HETATM   15  C   UNL     1      -8.837  14.131  66.773  1.00  0.00    -0.190 A  
HETATM   16  C   UNL     1      -7.850  14.090  67.775  1.00  0.00    -0.176 A  
HETATM   17  C   UNL     1      -7.773  12.954  68.578  1.00  0.00    -0.109 A  
HETATM   18  C   UNL     1      -8.616  11.838  68.427  1.00  0.00    -0.156 A  
HETATM   19  N   UNL     1      -6.788  13.231  69.485  1.00  0.00    -0.316 NA 
HETATM   20  N   UNL     1      -6.217  14.435  69.335  1.00  0.00    -0.105 NA 
HETATM   21  H   UNL     1      -6.509  12.577  70.216  1.00  0.00     0.000 HD 
HETATM   22  C   UNL     1      -6.829  14.964  68.267  1.00  0.00    -0.119 A  
BRANCH  22  23
HETATM   23  C   UNL     1      -6.451  16.249  67.754  1.00  0.00    -0.161 C  
HETATM   24  C   UNL     1      -7.290  17.209  67.322  1.00  0.00    -0.182 C  
BRANCH  24  25
HETATM   25  C   UNL     1      -6.863  18.472  66.706  1.00  0.00    -0.191 A  
HETATM   26  C   UNL     1      -6.797  19.632  67.475  1.00  0.00    -0.250 A  
HETATM   27  C   UNL     1      -6.464  20.834  66.856  1.00  0.00    -0.343 A  
HETATM   28  C   UNL     1      -6.203  20.846  65.492  1.00  0.00    -0.263 A  
HETATM   29  C   UNL     1      -6.275  19.647  64.805  1.00  0.00    -0.275 A  
HETATM   30  N   UNL     1      -6.594  18.466  65.380  1.00  0.00    -0.451 NA 
ENDBRANCH  24  25
ENDBRANCH  22  23
ENDBRANCH  12  13
ENDBRANCH   7  12
ENDBRANCH   3   6
TORSDOF 5
ENDMDL
MODEL      111
REMARK 921   NORMALIZED FREE ENERGY PREDICTED BY IDOCK:   -4.70 KCAL/MOL
REMARK 922        TOTAL FREE ENERGY PREDICTED BY IDOCK:   -7.10 KCAL/MOL
REMARK 923 INTER-LIGAND FREE ENERGY PREDICTED BY IDOCK:   -6.26 KCAL/MOL
REMARK 924 INTRA-LIGAND FREE ENERGY PREDICTED BY IDOCK:   -0.84 KCAL/MOL
REMARK 927      BINDING AFFINITY PREDICTED BY RF-SCORE:    0.00 PKD
ROOT
HETATM    1  C   UNL     1      -5.953  11.104  67.944  1.00  0.00    -0.046 C  
HETATM    2  N   UNL     1      -7.257  11.010  67.346  1.00  0.00    -0.098 N  
HETATM    3  C   UNL     1      -7.971  12.137  67.000  1.00  0.00    -0.138 C  
HETATM    4  H   UNL     1      -7.663  10.090  67.175  1.00  0.00     0.000 HD 
HETATM    5  O   UNL     1      -7.645  13.273  67.332  1.00  0.00    -0.159 OA 
ENDROOT
BRANCH   3   6
HETATM    6  C   UNL     1      -9.235  11.906  66.234  1.00  0.00    -0.218 A  
HETATM    7  C   UNL     1     -10.520  12.288  66.691  1.00  0.00    -0.222 A  
HETATM    8  C   UNL     1     -11.615  12.082  65.838  1.00  0.00    -0.364 A  
HETATM    9  C   UNL     1     -10.192  11.035  64.180  1.00  0.00    -0.419 A  
HETATM   10  C   UNL     1     -11.449  11.470  64.588  1.00  0.00    -0.168 A  
HETATM   11  C   UNL     1      -9.087  11.257  64.998  1.00  0.00    -0.085 A  
BRANCH   7  12
HETATM   12  S   UNL     1     -10.772  12.764  68.398  1.00  0.00    -0.256 SA 
BRANCH  12  13
HETATM   13  C   UNL     1     -11.076  11.303  69.363  1.00  0.00    -0.257 A  
HETATM   14  C   UNL     1     -10.071  10.333  69.367  1.00  0.00    -0.255 A  
HETATM   15  C   UNL     1     -10.099   9.250  70.254  1.00  0.00    -0.262 A  
HETATM   16  C   UNL     1     -11.160   9.143  71.172  1.00  0.00    -0.393 A  
HETATM   17  C   UNL     1     -12.147  10.125  71.156  1.00  0.00    -0.388 A  
HETATM   18  C   UNL     1     -12.152  11.206  70.257  1.00  0.00    -0.462 A  
HETATM   19  N   UNL     1     -12.986   9.796  72.186  1.00  0.00    -0.409 NA 
HETATM   20  N   UNL     1     -12.635   8.689  72.856  1.00  0.00    -0.205 NA 
HETATM   21  H   UNL     1     -13.810  10.347  72.424  1.00  0.00     0.000 HD 
HETATM   22  C   UNL     1     -11.536   8.251  72.227  1.00  0.00    -0.384 A  
BRANCH  22  23
HETATM   23  C   UNL     1     -10.882   7.039  72.628  1.00  0.00    -0.303 C  
HETATM   24  C   UNL     1      -9.664   6.944  73.193  1.00  0.00    -0.200 C  
BRANCH  24  25
HETATM   25  C   UNL     1      -8.983   5.678  73.494  1.00  0.00    -0.125 A  
HETATM   26  C   UNL     1      -7.861   5.674  74.319  1.00  0.00    -0.102 A  
HETATM   27  C   UNL     1      -7.184   4.475  74.531  1.00  0.00    -0.073 A  
HETATM   28  C   UNL     1      -7.645   3.317  73.919  1.00  0.00    -0.061 A  
HETATM   29  C   UNL     1      -8.777   3.406  73.128  1.00  0.00    -0.081 A  
HETATM   30  N   UNL     1      -9.455   4.555  72.907  1.00  0.00    -0.129 NA 
ENDBRANCH  24  25
ENDBRANCH  22  23
ENDBRANCH  12  13
ENDBRANCH   7  12
ENDBRANCH   3   6
TORSDOF 5
ENDMDL
MODEL      112
REMARK 921   NORMALIZED FREE ENERGY PREDICTED BY IDOCK:   -4.65 KCAL/MOL
REMARK 922        TOTAL FREE ENERGY PREDICTED BY IDOCK:   -7.03 KCAL/MOL
REMARK 923 INTER-LIGAND FREE ENERGY PREDICTED BY IDOCK:   -6.08 KCAL/MOL
REMARK 924 INTRA-LIGAND FREE ENERGY PREDICTED BY IDOCK:   -0.94 KCAL/MOL
REMARK 927      BINDING AFFINITY PREDICTED BY RF-SCORE:    0.00 PKD
ROOT
HETATM    1  C   UNL     1      -6.879  11.737  68.494  1.00  0.00    -0.075 C  
HETATM    2  N   UNL     1      -7.941  12.600  68.935  1.00  0.00    -0.332 N  
HETATM    3  C   UNL     1      -8.572  13.463  68.065  1.00  0.00    -0.174 C  
HETATM    4  H   UNL     1      -8.234  12.573  69.912  1.00  0.00     0.000 HD 
HETATM    5  O   UNL     1      -8.170  13.692  66.928  1.00  0.00    -0.094 OA 
ENDROOT
BRANCH   3   6
HETATM    6  C   UNL     1      -9.768  14.181  68.603  1.00  0.00    -0.196 A  
HETATM    7  C   UNL     1     -11.094  13.689  68.516  1.00  0.00    -0.275 A  
HETATM    8  C   UNL     1     -12.116  14.426  69.133  1.00  0.00    -0.316 A  
HETATM    9  C   UNL     1     -10.546  16.149  69.792  1.00  0.00    -0.312 A  
HETATM   10  C   UNL     1     -11.841  15.642  69.774  1.00  0.00    -0.376 A  
HETATM   11  C   UNL     1      -9.511  15.419  69.213  1.00  0.00    -0.261 A  
BRANCH   7  12
HETATM   12  S   UNL     1     -11.486  12.322  67.430  1.00  0.00    -0.360 SA 
BRANCH  12  13
HETATM   13  C   UNL     1     -10.792  10.833  68.106  1.00  0.00    -0.236 A  
HETATM   14  C   UNL     1     -11.002  10.605  69.468  1.00  0.00    -0.321 A  
HETATM   15  C   UNL     1     -10.697   9.375  70.063  1.00  0.00    -0.270 A  
HETATM   16  C   UNL     1     -10.178   8.338  69.267  1.00  0.00    -0.207 A  
HETATM   17  C   UNL     1      -9.983   8.584  67.910  1.00  0.00    -0.181 A  
HETATM   18  C   UNL     1     -10.258   9.820  67.297  1.00  0.00    -0.289 A  
HETATM   19  N   UNL     1      -9.546   7.393  67.397  1.00  0.00    -0.142 NA 
HETATM   20  N   UNL     1      -9.432   6.408  68.299  1.00  0.00    -0.122 NA 
HETATM   21  H   UNL     1      -9.325   7.265  66.410  1.00  0.00     0.000 HD 
HETATM   22  C   UNL     1      -9.780   6.977  69.461  1.00  0.00    -0.160 A  
BRANCH  22  23
HETATM   23  C   UNL     1      -9.736   6.242  70.692  1.00  0.00    -0.199 C  
HETATM   24  C   UNL     1      -9.574   4.911  70.816  1.00  0.00    -0.251 C  
BRANCH  24  25
HETATM   25  C   UNL     1      -9.639   4.180  72.088  1.00  0.00    -0.147 A  
HETATM   26  C   UNL     1     -10.046   2.848  72.103  1.00  0.00    -0.206 A  
HETATM   27  C   UNL     1     -10.175   2.196  73.326  1.00  0.00    -0.196 A  
HETATM   28  C   UNL     1      -9.891   2.886  74.497  1.00  0.00    -0.156 A  
HETATM   29  C   UNL     1      -9.477   4.202  74.393  1.00  0.00    -0.109 A  
HETATM   30  N   UNL     1      -9.341   4.860  73.220  1.00  0.00    -0.124 NA 
ENDBRANCH  24  25
ENDBRANCH  22  23
ENDBRANCH  12  13
ENDBRANCH   7  12
ENDBRANCH   3   6
TORSDOF 5
ENDMDL
MODEL      113
REMARK 921   NORMALIZED FREE ENERGY PREDICTED BY IDOCK:   -4.64 KCAL/MOL
REMARK 922        TOTAL FREE ENERGY PREDICTED BY IDOCK:   -7.02 KCAL/MOL
REMARK 923 INTER-LIGAND FREE ENERGY PREDICTED BY IDOCK:   -6.05 KCAL/MOL
REMARK 924 INTRA-LIGAND FREE ENERGY PREDICTED BY IDOCK:   -0.97 KCAL/MOL
REMARK 927      BINDING AFFINITY PREDICTED BY RF-SCORE:    0.00 PKD
ROOT
HETATM    1  C   UNL     1      -7.310   9.684  70.463  1.00  0.00    -0.131 C  
HETATM    2  N   UNL     1      -7.150   9.373  69.069  1.00  0.00    -0.065 N  
HETATM    3  C   UNL     1      -7.735   8.256  68.511  1.00  0.00    -0.112 C  
HETATM    4  H   UNL     1      -6.593   9.992  68.479  1.00  0.00     0.000 HD 
HETATM    5  O   UNL     1      -8.264   7.368  69.172  1.00  0.00    -0.119 OA 
ENDROOT
BRANCH   3   6
HETATM    6  C   UNL     1      -7.635   8.136  67.023  1.00  0.00    -0.096 A  
HETATM    7  C   UNL     1      -8.640   8.571  66.124  1.00  0.00    -0.138 A  
HETATM    8  C   UNL     1      -8.386   8.471  64.748  1.00  0.00    -0.163 A  
HETATM    9  C   UNL     1      -6.243   7.421  65.168  1.00  0.00    -0.038 A  
HETATM   10  C   UNL     1      -7.191   7.909  64.275  1.00  0.00    -0.082 A  
HETATM   11  C   UNL     1      -6.461   7.538  66.538  1.00  0.00    -0.049 A  
BRANCH   7  12
HETATM   12  S   UNL     1     -10.277   8.980  66.720  1.00  0.00    -0.252 SA 
BRANCH  12  13
HETATM   13  C   UNL     1     -10.298  10.686  67.218  1.00  0.00    -0.220 A  
HETATM   14  C   UNL     1      -9.142  11.428  66.962  1.00  0.00    -0.169 A  
HETATM   15  C   UNL     1      -9.117  12.820  67.107  1.00  0.00    -0.219 A  
HETATM   16  C   UNL     1     -10.287  13.490  67.508  1.00  0.00    -0.237 A  
HETATM   17  C   UNL     1     -11.430  12.731  67.751  1.00  0.00    -0.326 A  
HETATM   18  C   UNL     1     -11.471  11.330  67.637  1.00  0.00    -0.341 A  
HETATM   19  N   UNL     1     -12.403  13.647  68.047  1.00  0.00    -0.334 NA 
HETATM   20  N   UNL     1     -11.989  14.922  68.027  1.00  0.00    -0.262 NA 
HETATM   21  H   UNL     1     -13.363  13.382  68.265  1.00  0.00     0.000 HD 
HETATM   22  C   UNL     1     -10.685  14.846  67.734  1.00  0.00    -0.271 A  
BRANCH  22  23
HETATM   23  C   UNL     1      -9.867  16.023  67.671  1.00  0.00    -0.235 C  
HETATM   24  C   UNL     1     -10.303  17.296  67.705  1.00  0.00    -0.356 C  
BRANCH  24  25
HETATM   25  C   UNL     1      -9.445  18.475  67.533  1.00  0.00    -0.277 A  
HETATM   26  C   UNL     1      -9.990  19.752  67.645  1.00  0.00    -0.535 A  
HETATM   27  C   UNL     1      -9.177  20.856  67.402  1.00  0.00    -0.279 A  
HETATM   28  C   UNL     1      -7.846  20.658  67.060  1.00  0.00    -0.307 A  
HETATM   29  C   UNL     1      -7.380  19.357  66.986  1.00  0.00    -0.213 A  
HETATM   30  N   UNL     1      -8.146  18.267  67.218  1.00  0.00    -0.227 NA 
ENDBRANCH  24  25
ENDBRANCH  22  23
ENDBRANCH  12  13
ENDBRANCH   7  12
ENDBRANCH   3   6
TORSDOF 5
ENDMDL
MODEL      114
REMARK 921   NORMALIZED FREE ENERGY PREDICTED BY IDOCK:   -4.64 KCAL/MOL
REMARK 922        TOTAL FREE ENERGY PREDICTED BY IDOCK:   -7.02 KCAL/MOL
REMARK 923 INTER-LIGAND FREE ENERGY PREDICTED BY IDOCK:   -6.61 KCAL/MOL
REMARK 924 INTRA-LIGAND FREE ENERGY PREDICTED BY IDOCK:   -0.41 KCAL/MOL
REMARK 927      BINDING AFFINITY PREDICTED BY RF-SCORE:    0.00 PKD
ROOT
HETATM    1  C   UNL     1      -8.124  17.551  68.296  1.00  0.00    -0.268 C  
HETATM    2  N   UNL     1      -9.138  16.678  67.772  1.00  0.00    -0.211 N  
HETATM    3  C   UNL     1      -9.101  16.237  66.467  1.00  0.00    -0.269 C  
HETATM    4  H   UNL     1      -9.901  16.377  68.379  1.00  0.00     0.000 HD 
HETATM    5  O   UNL     1      -8.333  16.686  65.622  1.00  0.00    -0.280 OA 
ENDROOT
BRANCH   3   6
HETATM    6  C   UNL     1     -10.115  15.201  66.094  1.00  0.00    -0.314 A  
HETATM    7  C   UNL     1     -10.116  13.877  66.595  1.00  0.00    -0.273 A  
HETATM    8  C   UNL     1     -11.171  13.028  66.224  1.00  0.00    -0.332 A  
HETATM    9  C   UNL     1     -12.118  14.746  64.802  1.00  0.00    -0.387 A  
HETATM   10  C   UNL     1     -12.169  13.465  65.343  1.00  0.00    -0.492 A  
HETATM   11  C   UNL     1     -11.097  15.614  65.180  1.00  0.00    -0.357 A  
BRANCH   7  12
HETATM   12  S   UNL     1      -8.683  13.227  67.449  1.00  0.00    -0.216 SA 
BRANCH  12  13
HETATM   13  C   UNL     1      -8.869  11.470  67.629  1.00  0.00    -0.152 A  
HETATM   14  C   UNL     1      -8.941  10.977  68.934  1.00  0.00    -0.123 A  
HETATM   15  C   UNL     1      -9.302   9.651  69.200  1.00  0.00    -0.172 A  
HETATM   16  C   UNL     1      -9.613   8.796  68.126  1.00  0.00    -0.162 A  
HETATM   17  C   UNL     1      -9.542   9.310  66.833  1.00  0.00    -0.174 A  
HETATM   18  C   UNL     1      -9.156  10.631  66.543  1.00  0.00    -0.179 A  
HETATM   19  N   UNL     1      -9.960   8.288  66.026  1.00  0.00    -0.444 NA 
HETATM   20  N   UNL     1     -10.284   7.162  66.678  1.00  0.00    -0.194 NA 
HETATM   21  H   UNL     1     -10.021   8.375  65.012  1.00  0.00     0.000 HD 
HETATM   22  C   UNL     1     -10.043   7.441  67.966  1.00  0.00    -0.179 A  
BRANCH  22  23
HETATM   23  C   UNL     1     -10.225   6.451  68.988  1.00  0.00    -0.216 C  
HETATM   24  C   UNL     1      -9.429   6.258  70.056  1.00  0.00    -0.167 C  
BRANCH  24  25
HETATM   25  C   UNL     1      -9.588   5.166  71.026  1.00  0.00    -0.171 A  
HETATM   26  C   UNL     1     -10.558   5.259  72.022  1.00  0.00    -0.279 A  
HETATM   27  C   UNL     1     -10.641   4.250  72.978  1.00  0.00    -0.265 A  
HETATM   28  C   UNL     1      -9.762   3.177  72.912  1.00  0.00    -0.173 A  
HETATM   29  C   UNL     1      -8.839   3.154  71.881  1.00  0.00    -0.083 A  
HETATM   30  N   UNL     1      -8.737   4.118  70.939  1.00  0.00    -0.079 NA 
ENDBRANCH  24  25
ENDBRANCH  22  23
ENDBRANCH  12  13
ENDBRANCH   7  12
ENDBRANCH   3   6
TORSDOF 5
ENDMDL
MODEL      115
REMARK 921   NORMALIZED FREE ENERGY PREDICTED BY IDOCK:   -4.64 KCAL/MOL
REMARK 922        TOTAL FREE ENERGY PREDICTED BY IDOCK:   -7.02 KCAL/MOL
REMARK 923 INTER-LIGAND FREE ENERGY PREDICTED BY IDOCK:   -6.01 KCAL/MOL
REMARK 924 INTRA-LIGAND FREE ENERGY PREDICTED BY IDOCK:   -1.01 KCAL/MOL
REMARK 927      BINDING AFFINITY PREDICTED BY RF-SCORE:    0.00 PKD
ROOT
HETATM    1  C   UNL     1      -7.431  14.482  69.134  1.00  0.00    -0.118 C  
HETATM    2  N   UNL     1      -8.418  14.294  68.106  1.00  0.00    -0.158 N  
HETATM    3  C   UNL     1      -9.660  14.886  68.187  1.00  0.00    -0.210 C  
HETATM    4  H   UNL     1      -8.194  13.711  67.299  1.00  0.00     0.000 HD 
HETATM    5  O   UNL     1     -10.078  15.447  69.195  1.00  0.00    -0.209 OA 
ENDROOT
BRANCH   3   6
HETATM    6  C   UNL     1     -10.532  14.753  66.979  1.00  0.00    -0.270 A  
HETATM    7  C   UNL     1     -11.498  13.731  66.807  1.00  0.00    -0.348 A  
HETATM    8  C   UNL     1     -12.304  13.767  65.659  1.00  0.00    -0.517 A  
HETATM    9  C   UNL     1     -11.126  15.716  64.832  1.00  0.00    -0.414 A  
HETATM   10  C   UNL     1     -12.125  14.759  64.685  1.00  0.00    -0.437 A  
HETATM   11  C   UNL     1     -10.335  15.716  65.978  1.00  0.00    -0.351 A  
BRANCH   7  12
HETATM   12  S   UNL     1     -11.503  12.296  67.878  1.00  0.00    -0.350 SA 
BRANCH  12  13
HETATM   13  C   UNL     1     -10.414  11.068  67.200  1.00  0.00    -0.232 A  
HETATM   14  C   UNL     1     -10.818   9.736  67.319  1.00  0.00    -0.247 A  
HETATM   15  C   UNL     1     -10.159   8.705  66.639  1.00  0.00    -0.364 A  
HETATM   16  C   UNL     1      -9.071   9.019  65.805  1.00  0.00    -0.272 A  
HETATM   17  C   UNL     1      -8.689  10.354  65.694  1.00  0.00    -0.171 A  
HETATM   18  C   UNL     1      -9.320  11.402  66.389  1.00  0.00    -0.219 A  
HETATM   19  N   UNL     1      -7.673  10.353  64.779  1.00  0.00    -0.276 NA 
HETATM   20  N   UNL     1      -7.359   9.142  64.298  1.00  0.00    -0.102 NA 
HETATM   21  H   UNL     1      -7.192  11.204  64.486  1.00  0.00     0.000 HD 
HETATM   22  C   UNL     1      -8.181   8.303  64.942  1.00  0.00    -0.151 A  
BRANCH  22  23
HETATM   23  C   UNL     1      -8.114   6.886  64.730  1.00  0.00    -0.095 C  
HETATM   24  C   UNL     1      -7.729   6.271  63.596  1.00  0.00    -0.109 C  
BRANCH  24  25
HETATM   25  C   UNL     1      -7.773   4.818  63.382  1.00  0.00    -0.070 A  
HETATM   26  C   UNL     1      -8.667   4.037  64.109  1.00  0.00    -0.116 A  
HETATM   27  C   UNL     1      -8.640   2.654  63.947  1.00  0.00    -0.086 A  
HETATM   28  C   UNL     1      -7.727   2.090  63.066  1.00  0.00    -0.055 A  
HETATM   29  C   UNL     1      -6.885   2.940  62.371  1.00  0.00    -0.030 A  
HETATM   30  N   UNL     1      -6.890   4.285  62.506  1.00  0.00    -0.030 NA 
ENDBRANCH  24  25
ENDBRANCH  22  23
ENDBRANCH  12  13
ENDBRANCH   7  12
ENDBRANCH   3   6
TORSDOF 5
ENDMDL
MODEL      116
REMARK 921   NORMALIZED FREE ENERGY PREDICTED BY IDOCK:   -4.61 KCAL/MOL
REMARK 922        TOTAL FREE ENERGY PREDICTED BY IDOCK:   -6.98 KCAL/MOL
REMARK 923 INTER-LIGAND FREE ENERGY PREDICTED BY IDOCK:   -7.24 KCAL/MOL
REMARK 924 INTRA-LIGAND FREE ENERGY PREDICTED BY IDOCK:    0.26 KCAL/MOL
REMARK 927      BINDING AFFINITY PREDICTED BY RF-SCORE:    0.00 PKD
ROOT
HETATM    1  C   UNL     1      -8.348   8.504  67.935  1.00  0.00    -0.126 C  
HETATM    2  N   UNL     1      -9.543   8.926  68.615  1.00  0.00    -0.152 N  
HETATM    3  C   UNL     1      -9.878   8.425  69.854  1.00  0.00    -0.186 C  
HETATM    4  H   UNL     1     -10.155   9.611  68.170  1.00  0.00     0.000 HD 
HETATM    5  O   UNL     1      -9.305   7.475  70.378  1.00  0.00    -0.161 OA 
ENDROOT
BRANCH   3   6
HETATM    6  C   UNL     1     -11.051   9.067  70.527  1.00  0.00    -0.297 A  
HETATM    7  C   UNL     1     -11.919   9.991  69.895  1.00  0.00    -0.016 A  
HETATM    8  C   UNL     1     -13.028  10.458  70.617  1.00  0.00    -0.357 A  
HETATM    9  C   UNL     1     -12.344   9.207  72.576  1.00  0.00    -0.216 A  
HETATM   10  C   UNL     1     -13.243  10.060  71.944  1.00  0.00    -0.557 A  
HETATM   11  C   UNL     1     -11.254   8.707  71.869  1.00  0.00    -0.413 A  
BRANCH   7  12
HETATM   12  S   UNL     1     -11.467  10.740  68.334  1.00  0.00    -0.238 SA 
BRANCH  12  13
HETATM   13  C   UNL     1     -10.810  12.362  68.644  1.00  0.00    -0.240 A  
HETATM   14  C   UNL     1      -9.620  12.691  67.990  1.00  0.00    -0.213 A  
HETATM   15  C   UNL     1      -9.125  14.000  67.982  1.00  0.00    -0.190 A  
HETATM   16  C   UNL     1      -9.850  15.012  68.637  1.00  0.00    -0.222 A  
HETATM   17  C   UNL     1     -11.038  14.663  69.276  1.00  0.00    -0.269 A  
HETATM   18  C   UNL     1     -11.539  13.350  69.319  1.00  0.00    -0.365 A  
HETATM   19  N   UNL     1     -11.541  15.844  69.750  1.00  0.00    -0.340 NA 
HETATM   20  N   UNL     1     -10.783  16.918  69.484  1.00  0.00    -0.293 NA 
HETATM   21  H   UNL     1     -12.420  15.903  70.264  1.00  0.00     0.000 HD 
HETATM   22  C   UNL     1      -9.722  16.424  68.833  1.00  0.00    -0.257 A  
BRANCH  22  23
HETATM   23  C   UNL     1      -8.643  17.274  68.417  1.00  0.00    -0.251 C  
HETATM   24  C   UNL     1      -8.758  18.533  67.956  1.00  0.00    -0.313 C  
BRANCH  24  25
HETATM   25  C   UNL     1      -7.641  19.336  67.441  1.00  0.00    -0.234 A  
HETATM   26  C   UNL     1      -7.329  19.301  66.084  1.00  0.00    -0.289 A  
HETATM   27  C   UNL     1      -6.219  20.008  65.628  1.00  0.00    -0.237 A  
HETATM   28  C   UNL     1      -5.456  20.732  66.534  1.00  0.00    -0.226 A  
HETATM   29  C   UNL     1      -5.845  20.727  67.863  1.00  0.00    -0.286 A  
HETATM   30  N   UNL     1      -6.917  20.052  68.333  1.00  0.00    -0.301 NA 
ENDBRANCH  24  25
ENDBRANCH  22  23
ENDBRANCH  12  13
ENDBRANCH   7  12
ENDBRANCH   3   6
TORSDOF 5
ENDMDL
MODEL      117
REMARK 921   NORMALIZED FREE ENERGY PREDICTED BY IDOCK:   -4.57 KCAL/MOL
REMARK 922        TOTAL FREE ENERGY PREDICTED BY IDOCK:   -6.92 KCAL/MOL
REMARK 923 INTER-LIGAND FREE ENERGY PREDICTED BY IDOCK:   -5.87 KCAL/MOL
REMARK 924 INTRA-LIGAND FREE ENERGY PREDICTED BY IDOCK:   -1.06 KCAL/MOL
REMARK 927      BINDING AFFINITY PREDICTED BY RF-SCORE:    0.00 PKD
ROOT
HETATM    1  C   UNL     1     -10.554   7.479  71.206  1.00  0.00    -0.215 C  
HETATM    2  N   UNL     1     -10.093   6.822  70.013  1.00  0.00    -0.183 N  
HETATM    3  C   UNL     1      -9.058   5.913  70.048  1.00  0.00    -0.144 C  
HETATM    4  H   UNL     1     -10.542   7.033  69.122  1.00  0.00     0.000 HD 
HETATM    5  O   UNL     1      -8.346   5.736  71.032  1.00  0.00    -0.119 OA 
ENDROOT
BRANCH   3   6
HETATM    6  C   UNL     1      -8.787   5.176  68.775  1.00  0.00    -0.105 A  
HETATM    7  C   UNL     1      -7.756   5.518  67.866  1.00  0.00    -0.092 A  
HETATM    8  C   UNL     1      -7.560   4.695  66.746  1.00  0.00    -0.087 A  
HETATM    9  C   UNL     1      -9.447   3.309  67.371  1.00  0.00    -0.198 A  
HETATM   10  C   UNL     1      -8.393   3.593  66.508  1.00  0.00    -0.104 A  
HETATM   11  C   UNL     1      -9.640   4.095  68.504  1.00  0.00    -0.192 A  
BRANCH   7  12
HETATM   12  S   UNL     1      -6.914   7.092  67.997  1.00  0.00    -0.082 SA 
BRANCH  12  13
HETATM   13  C   UNL     1      -8.032   8.385  67.511  1.00  0.00    -0.106 A  
HETATM   14  C   UNL     1      -8.041   9.536  68.302  1.00  0.00    -0.102 A  
HETATM   15  C   UNL     1      -8.712  10.698  67.901  1.00  0.00    -0.127 A  
HETATM   16  C   UNL     1      -9.382  10.710  66.664  1.00  0.00    -0.189 A  
HETATM   17  C   UNL     1      -9.355   9.553  65.888  1.00  0.00    -0.226 A  
HETATM   18  C   UNL     1      -8.709   8.368  66.284  1.00  0.00    -0.164 A  
HETATM   19  N   UNL     1     -10.017   9.886  64.738  1.00  0.00    -0.397 NA 
HETATM   20  N   UNL     1     -10.476  11.146  64.707  1.00  0.00    -0.320 NA 
HETATM   21  H   UNL     1     -10.151   9.231  63.968  1.00  0.00     0.000 HD 
HETATM   22  C   UNL     1     -10.129  11.658  65.895  1.00  0.00    -0.230 A  
BRANCH  22  23
HETATM   23  C   UNL     1     -10.496  12.995  66.264  1.00  0.00    -0.285 C  
HETATM   24  C   UNL     1      -9.699  14.078  66.214  1.00  0.00    -0.311 C  
BRANCH  24  25
HETATM   25  C   UNL     1     -10.077  15.412  66.699  1.00  0.00    -0.265 A  
HETATM   26  C   UNL     1      -9.721  16.543  65.967  1.00  0.00    -0.331 A  
HETATM   27  C   UNL     1     -10.020  17.801  66.482  1.00  0.00    -0.346 A  
HETATM   28  C   UNL     1     -10.668  17.898  67.706  1.00  0.00    -0.339 A  
HETATM   29  C   UNL     1     -11.001  16.725  68.361  1.00  0.00    -0.325 A  
HETATM   30  N   UNL     1     -10.724  15.490  67.884  1.00  0.00    -0.285 NA 
ENDBRANCH  24  25
ENDBRANCH  22  23
ENDBRANCH  12  13
ENDBRANCH   7  12
ENDBRANCH   3   6
TORSDOF 5
ENDMDL
MODEL      118
REMARK 921   NORMALIZED FREE ENERGY PREDICTED BY IDOCK:   -4.55 KCAL/MOL
REMARK 922        TOTAL FREE ENERGY PREDICTED BY IDOCK:   -6.90 KCAL/MOL
REMARK 923 INTER-LIGAND FREE ENERGY PREDICTED BY IDOCK:   -5.94 KCAL/MOL
REMARK 924 INTRA-LIGAND FREE ENERGY PREDICTED BY IDOCK:   -0.96 KCAL/MOL
REMARK 927      BINDING AFFINITY PREDICTED BY RF-SCORE:    0.00 PKD
ROOT
HETATM    1  C   UNL     1      -9.629   4.459  67.213  1.00  0.00    -0.189 C  
HETATM    2  N   UNL     1      -9.219   5.569  68.030  1.00  0.00    -0.108 N  
HETATM    3  C   UNL     1      -9.559   5.642  69.364  1.00  0.00    -0.143 C  
HETATM    4  H   UNL     1      -8.664   6.318  67.615  1.00  0.00     0.000 HD 
HETATM    5  O   UNL     1     -10.367   4.888  69.899  1.00  0.00    -0.265 OA 
ENDROOT
BRANCH   3   6
HETATM    6  C   UNL     1      -8.932   6.755  70.143  1.00  0.00    -0.149 A  
HETATM    7  C   UNL     1      -9.599   7.957  70.484  1.00  0.00    -0.170 A  
HETATM    8  C   UNL     1      -8.920   8.887  71.286  1.00  0.00    -0.312 A  
HETATM    9  C   UNL     1      -6.931   7.502  71.295  1.00  0.00    -0.050 A  
HETATM   10  C   UNL     1      -7.600   8.655  71.696  1.00  0.00    -0.139 A  
HETATM   11  C   UNL     1      -7.597   6.552  70.525  1.00  0.00    -0.096 A  
BRANCH   7  12
HETATM   12  S   UNL     1     -11.147   8.392  69.697  1.00  0.00     0.094 SA 
BRANCH  12  13
HETATM   13  C   UNL     1     -10.900   9.846  68.708  1.00  0.00    -0.208 A  
HETATM   14  C   UNL     1     -11.494  11.025  69.166  1.00  0.00    -0.370 A  
HETATM   15  C   UNL     1     -11.193  12.268  68.597  1.00  0.00    -0.305 A  
HETATM   16  C   UNL     1     -10.260  12.334  67.546  1.00  0.00    -0.212 A  
HETATM   17  C   UNL     1      -9.674  11.148  67.110  1.00  0.00    -0.177 A  
HETATM   18  C   UNL     1      -9.981   9.886  67.649  1.00  0.00    -0.212 A  
HETATM   19  N   UNL     1      -8.778  11.531  66.150  1.00  0.00    -0.296 NA 
HETATM   20  N   UNL     1      -8.740  12.852  65.921  1.00  0.00     0.548 NA 
HETATM   21  H   UNL     1      -8.187  10.868  65.649  1.00  0.00     0.000 HD 
HETATM   22  C   UNL     1      -9.668  13.360  66.742  1.00  0.00    -0.262 A  
BRANCH  22  23
HETATM   23  C   UNL     1      -9.964  14.764  66.753  1.00  0.00    -0.256 C  
HETATM   24  C   UNL     1      -9.123  15.749  67.121  1.00  0.00    -0.228 C  
BRANCH  24  25
HETATM   25  C   UNL     1      -9.495  17.166  67.219  1.00  0.00    -0.245 A  
HETATM   26  C   UNL     1      -9.160  17.894  68.359  1.00  0.00    -0.292 A  
HETATM   27  C   UNL     1      -9.588  19.215  68.466  1.00  0.00    -0.454 A  
HETATM   28  C   UNL     1     -10.332  19.773  67.435  1.00  0.00    -0.582 A  
HETATM   29  C   UNL     1     -10.607  18.986  66.330  1.00  0.00    -0.409 A  
HETATM   30  N   UNL     1     -10.203  17.703  66.199  1.00  0.00    -0.458 NA 
ENDBRANCH  24  25
ENDBRANCH  22  23
ENDBRANCH  12  13
ENDBRANCH   7  12
ENDBRANCH   3   6
TORSDOF 5
ENDMDL
MODEL      119
REMARK 921   NORMALIZED FREE ENERGY PREDICTED BY IDOCK:   -4.54 KCAL/MOL
REMARK 922        TOTAL FREE ENERGY PREDICTED BY IDOCK:   -6.89 KCAL/MOL
REMARK 923 INTER-LIGAND FREE ENERGY PREDICTED BY IDOCK:   -6.02 KCAL/MOL
REMARK 924 INTRA-LIGAND FREE ENERGY PREDICTED BY IDOCK:   -0.87 KCAL/MOL
REMARK 927      BINDING AFFINITY PREDICTED BY RF-SCORE:    0.00 PKD
ROOT
HETATM    1  C   UNL     1      -9.848   4.915  69.616  1.00  0.00    -0.218 C  
HETATM    2  N   UNL     1      -9.553   4.935  68.209  1.00  0.00    -0.138 N  
HETATM    3  C   UNL     1      -8.373   4.421  67.717  1.00  0.00    -0.098 C  
HETATM    4  H   UNL     1     -10.231   5.337  67.562  1.00  0.00     0.000 HD 
HETATM    5  O   UNL     1      -7.431   4.086  68.429  1.00  0.00    -0.058 OA 
ENDROOT
BRANCH   3   6
HETATM    6  C   UNL     1      -8.259   4.346  66.227  1.00  0.00    -0.102 A  
HETATM    7  C   UNL     1      -7.492   5.245  65.445  1.00  0.00    -0.077 A  
HETATM    8  C   UNL     1      -7.408   5.015  64.063  1.00  0.00    -0.055 A  
HETATM    9  C   UNL     1      -8.910   3.122  64.235  1.00  0.00    -0.099 A  
HETATM   10  C   UNL     1      -8.104   3.955  63.466  1.00  0.00    -0.089 A  
HETATM   11  C   UNL     1      -8.984   3.313  65.613  1.00  0.00    -0.144 A  
BRANCH   7  12
HETATM   12  S   UNL     1      -6.877   6.769  66.154  1.00  0.00    -0.061 SA 
BRANCH  12  13
HETATM   13  C   UNL     1      -8.257   7.812  66.559  1.00  0.00    -0.124 A  
HETATM   14  C   UNL     1      -8.489   8.046  67.917  1.00  0.00    -0.125 A  
HETATM   15  C   UNL     1      -9.401   9.016  68.349  1.00  0.00    -0.143 A  
HETATM   16  C   UNL     1     -10.092   9.783  67.394  1.00  0.00    -0.259 A  
HETATM   17  C   UNL     1      -9.840   9.538  66.046  1.00  0.00    -0.283 A  
HETATM   18  C   UNL     1      -8.948   8.551  65.589  1.00  0.00    -0.209 A  
HETATM   19  N   UNL     1     -10.589  10.466  65.375  1.00  0.00    -0.111 NA 
HETATM   20  N   UNL     1     -11.306  11.278  66.165  1.00  0.00    -0.196 NA 
HETATM   21  H   UNL     1     -10.601  10.535  64.357  1.00  0.00     0.000 HD 
HETATM   22  C   UNL     1     -11.044  10.852  67.408  1.00  0.00    -0.307 A  
BRANCH  22  23
HETATM   23  C   UNL     1     -11.676  11.450  68.548  1.00  0.00    -0.386 C  
HETATM   24  C   UNL     1     -11.484  12.705  68.994  1.00  0.00    -0.354 C  
BRANCH  24  25
HETATM   25  C   UNL     1     -12.069  13.249  70.226  1.00  0.00    -0.335 A  
HETATM   26  C   UNL     1     -11.894  14.594  70.542  1.00  0.00    -0.367 A  
HETATM   27  C   UNL     1     -12.390  15.074  71.752  1.00  0.00    -0.412 A  
HETATM   28  C   UNL     1     -13.049  14.202  72.609  1.00  0.00    -0.564 A  
HETATM   29  C   UNL     1     -13.195  12.885  72.211  1.00  0.00    -0.414 A  
HETATM   30  N   UNL     1     -12.725  12.393  71.042  1.00  0.00    -0.291 NA 
ENDBRANCH  24  25
ENDBRANCH  22  23
ENDBRANCH  12  13
ENDBRANCH   7  12
ENDBRANCH   3   6
TORSDOF 5
ENDMDL
MODEL      120
REMARK 921   NORMALIZED FREE ENERGY PREDICTED BY IDOCK:   -4.52 KCAL/MOL
REMARK 922        TOTAL FREE ENERGY PREDICTED BY IDOCK:   -6.87 KCAL/MOL
REMARK 923 INTER-LIGAND FREE ENERGY PREDICTED BY IDOCK:   -6.71 KCAL/MOL
REMARK 924 INTRA-LIGAND FREE ENERGY PREDICTED BY IDOCK:   -0.16 KCAL/MOL
REMARK 927      BINDING AFFINITY PREDICTED BY RF-SCORE:    0.00 PKD
ROOT
HETATM    1  C   UNL     1     -10.526  17.579  68.771  1.00  0.00    -0.318 C  
HETATM    2  N   UNL     1      -9.532  16.541  68.780  1.00  0.00    -0.238 N  
HETATM    3  C   UNL     1      -9.672  15.406  68.011  1.00  0.00    -0.207 C  
HETATM    4  H   UNL     1      -8.705  16.646  69.368  1.00  0.00     0.000 HD 
HETATM    5  O   UNL     1     -10.707  15.112  67.420  1.00  0.00    -0.274 OA 
ENDROOT
BRANCH   3   6
HETATM    6  C   UNL     1      -8.494  14.484  67.978  1.00  0.00    -0.161 A  
HETATM    7  C   UNL     1      -8.508  13.202  67.376  1.00  0.00    -0.201 A  
HETATM    8  C   UNL     1      -7.311  12.470  67.348  1.00  0.00    -0.147 A  
HETATM    9  C   UNL     1      -6.163  14.204  68.592  1.00  0.00    -0.088 A  
HETATM   10  C   UNL     1      -6.146  12.973  67.942  1.00  0.00    -0.131 A  
HETATM   11  C   UNL     1      -7.332  14.959  68.606  1.00  0.00    -0.120 A  
BRANCH   7  12
HETATM   12  S   UNL     1     -10.056  12.432  66.913  1.00  0.00    -0.222 SA 
BRANCH  12  13
HETATM   13  C   UNL     1     -10.044  10.742  67.458  1.00  0.00    -0.186 A  
HETATM   14  C   UNL     1     -10.190  10.524  68.831  1.00  0.00    -0.223 A  
HETATM   15  C   UNL     1     -10.412   9.244  69.352  1.00  0.00    -0.229 A  
HETATM   16  C   UNL     1     -10.505   8.151  68.471  1.00  0.00    -0.199 A  
HETATM   17  C   UNL     1     -10.364   8.391  67.106  1.00  0.00    -0.311 A  
HETATM   18  C   UNL     1     -10.113   9.665  66.564  1.00  0.00    -0.314 A  
HETATM   19  N   UNL     1     -10.569   7.176  66.513  1.00  0.00    -0.495 NA 
HETATM   20  N   UNL     1     -10.818   6.175  67.370  1.00  0.00    -0.322 NA 
HETATM   21  H   UNL     1     -10.534   7.041  65.503  1.00  0.00     0.000 HD 
HETATM   22  C   UNL     1     -10.748   6.745  68.580  1.00  0.00    -0.231 A  
BRANCH  22  23
HETATM   23  C   UNL     1     -10.911   5.972  69.777  1.00  0.00    -0.471 C  
HETATM   24  C   UNL     1      -9.934   5.344  70.456  1.00  0.00    -0.288 C  
BRANCH  24  25
HETATM   25  C   UNL     1     -10.154   4.475  71.619  1.00  0.00    -0.179 A  
HETATM   26  C   UNL     1     -10.671   5.010  72.796  1.00  0.00    -0.292 A  
HETATM   27  C   UNL     1     -10.801   4.187  73.912  1.00  0.00    -0.321 A  
HETATM   28  C   UNL     1     -10.417   2.856  73.822  1.00  0.00    -0.244 A  
HETATM   29  C   UNL     1      -9.928   2.400  72.611  1.00  0.00    -0.139 A  
HETATM   30  N   UNL     1      -9.793   3.175  71.511  1.00  0.00    -0.158 NA 
ENDBRANCH  24  25
ENDBRANCH  22  23
ENDBRANCH  12  13
ENDBRANCH   7  12
ENDBRANCH   3   6
TORSDOF 5
ENDMDL
MODEL      121
REMARK 921   NORMALIZED FREE ENERGY PREDICTED BY IDOCK:   -4.49 KCAL/MOL
REMARK 922        TOTAL FREE ENERGY PREDICTED BY IDOCK:   -6.83 KCAL/MOL
REMARK 923 INTER-LIGAND FREE ENERGY PREDICTED BY IDOCK:   -5.79 KCAL/MOL
REMARK 924 INTRA-LIGAND FREE ENERGY PREDICTED BY IDOCK:   -1.03 KCAL/MOL
REMARK 927      BINDING AFFINITY PREDICTED BY RF-SCORE:    0.00 PKD
ROOT
HETATM    1  C   UNL     1      -7.337   7.742  71.977  1.00  0.00    -0.075 C  
HETATM    2  N   UNL     1      -7.671   6.352  72.125  1.00  0.00    -0.098 N  
HETATM    3  C   UNL     1      -8.041   5.829  73.346  1.00  0.00    -0.113 C  
HETATM    4  H   UNL     1      -7.634   5.739  71.310  1.00  0.00     0.000 HD 
HETATM    5  O   UNL     1      -7.938   6.442  74.404  1.00  0.00    -0.107 OA 
ENDROOT
BRANCH   3   6
HETATM    6  C   UNL     1      -8.526   4.414  73.334  1.00  0.00    -0.097 A  
HETATM    7  C   UNL     1      -9.858   4.036  73.037  1.00  0.00    -0.134 A  
HETATM    8  C   UNL     1     -10.163   2.667  72.984  1.00  0.00    -0.223 A  
HETATM    9  C   UNL     1      -7.899   2.087  73.628  1.00  0.00    -0.042 A  
HETATM   10  C   UNL     1      -9.187   1.701  73.268  1.00  0.00    -0.074 A  
HETATM   11  C   UNL     1      -7.568   3.440  73.656  1.00  0.00    -0.061 A  
BRANCH   7  12
HETATM   12  S   UNL     1     -11.163   5.260  72.997  1.00  0.00    -0.304 SA 
BRANCH  12  13
HETATM   13  C   UNL     1     -11.100   6.117  71.442  1.00  0.00    -0.288 A  
HETATM   14  C   UNL     1     -11.515   7.451  71.444  1.00  0.00    -0.290 A  
HETATM   15  C   UNL     1     -11.308   8.287  70.340  1.00  0.00    -0.177 A  
HETATM   16  C   UNL     1     -10.654   7.773  69.205  1.00  0.00    -0.193 A  
HETATM   17  C   UNL     1     -10.242   6.443  69.227  1.00  0.00    -0.192 A  
HETATM   18  C   UNL     1     -10.464   5.579  70.315  1.00  0.00    -0.365 A  
HETATM   19  N   UNL     1      -9.588   6.258  68.040  1.00  0.00    -0.115 NA 
HETATM   20  N   UNL     1      -9.550   7.343  67.252  1.00  0.00    -0.143 NA 
HETATM   21  H   UNL     1      -9.165   5.369  67.774  1.00  0.00     0.000 HD 
HETATM   22  C   UNL     1     -10.230   8.274  67.933  1.00  0.00    -0.220 A  
BRANCH  22  23
HETATM   23  C   UNL     1     -10.454   9.581  67.385  1.00  0.00    -0.336 C  
HETATM   24  C   UNL     1     -10.318  10.749  68.039  1.00  0.00    -0.211 C  
BRANCH  24  25
HETATM   25  C   UNL     1     -10.657  12.063  67.475  1.00  0.00    -0.221 A  
HETATM   26  C   UNL     1      -9.642  12.924  67.064  1.00  0.00    -0.231 A  
HETATM   27  C   UNL     1      -9.980  14.194  66.604  1.00  0.00    -0.280 A  
HETATM   28  C   UNL     1     -11.316  14.568  66.563  1.00  0.00    -0.354 A  
HETATM   29  C   UNL     1     -12.263  13.647  66.975  1.00  0.00    -0.329 A  
HETATM   30  N   UNL     1     -11.964  12.407  67.424  1.00  0.00    -0.520 NA 
ENDBRANCH  24  25
ENDBRANCH  22  23
ENDBRANCH  12  13
ENDBRANCH   7  12
ENDBRANCH   3   6
TORSDOF 5
ENDMDL
MODEL      122
REMARK 921   NORMALIZED FREE ENERGY PREDICTED BY IDOCK:   -4.49 KCAL/MOL
REMARK 922        TOTAL FREE ENERGY PREDICTED BY IDOCK:   -6.82 KCAL/MOL
REMARK 923 INTER-LIGAND FREE ENERGY PREDICTED BY IDOCK:   -5.86 KCAL/MOL
REMARK 924 INTRA-LIGAND FREE ENERGY PREDICTED BY IDOCK:   -0.97 KCAL/MOL
REMARK 927      BINDING AFFINITY PREDICTED BY RF-SCORE:    0.00 PKD
ROOT
HETATM    1  C   UNL     1      -9.549  17.980  67.617  1.00  0.00    -0.271 C  
HETATM    2  N   UNL     1     -10.388  16.955  67.057  1.00  0.00    -0.311 N  
HETATM    3  C   UNL     1      -9.852  15.882  66.376  1.00  0.00    -0.282 C  
HETATM    4  H   UNL     1     -11.400  17.022  67.167  1.00  0.00     0.000 HD 
HETATM    5  O   UNL     1      -8.674  15.813  66.041  1.00  0.00    -0.313 OA 
ENDROOT
BRANCH   3   6
HETATM    6  C   UNL     1     -10.813  14.802  65.992  1.00  0.00    -0.318 A  
HETATM    7  C   UNL     1     -11.212  13.752  66.855  1.00  0.00    -0.313 A  
HETATM    8  C   UNL     1     -12.181  12.847  66.395  1.00  0.00    -0.301 A  
HETATM    9  C   UNL     1     -12.252  13.944  64.236  1.00  0.00    -0.447 A  
HETATM   10  C   UNL     1     -12.704  12.951  65.099  1.00  0.00    -0.443 A  
HETATM   11  C   UNL     1     -11.314  14.871  64.682  1.00  0.00    -0.362 A  
BRANCH   7  12
HETATM   12  S   UNL     1     -10.315  13.433  68.371  1.00  0.00    -0.246 SA 
BRANCH  12  13
HETATM   13  C   UNL     1      -9.588  11.814  68.278  1.00  0.00    -0.199 A  
HETATM   14  C   UNL     1     -10.155  10.824  69.084  1.00  0.00    -0.224 A  
HETATM   15  C   UNL     1      -9.815   9.474  68.938  1.00  0.00    -0.179 A  
HETATM   16  C   UNL     1      -8.887   9.104  67.947  1.00  0.00    -0.128 A  
HETATM   17  C   UNL     1      -8.339  10.106  67.150  1.00  0.00    -0.125 A  
HETATM   18  C   UNL     1      -8.647  11.471  67.298  1.00  0.00    -0.150 A  
HETATM   19  N   UNL     1      -7.545   9.446  66.253  1.00  0.00    -0.096 NA 
HETATM   20  N   UNL     1      -7.524   8.114  66.404  1.00  0.00    -0.085 NA 
HETATM   21  H   UNL     1      -7.012   9.927  65.528  1.00  0.00     0.000 HD 
HETATM   22  C   UNL     1      -8.313   7.886  67.462  1.00  0.00    -0.124 A  
BRANCH  22  23
HETATM   23  C   UNL     1      -8.506   6.560  67.974  1.00  0.00    -0.119 C  
HETATM   24  C   UNL     1      -8.204   6.136  69.215  1.00  0.00    -0.116 C  
BRANCH  24  25
HETATM   25  C   UNL     1      -8.318   4.744  69.671  1.00  0.00    -0.078 A  
HETATM   26  C   UNL     1      -9.547   4.257  70.109  1.00  0.00    -0.269 A  
HETATM   27  C   UNL     1      -9.619   2.960  70.609  1.00  0.00    -0.184 A  
HETATM   28  C   UNL     1      -8.468   2.184  70.654  1.00  0.00    -0.086 A  
HETATM   29  C   UNL     1      -7.291   2.739  70.183  1.00  0.00    -0.040 A  
HETATM   30  N   UNL     1      -7.192   3.994  69.691  1.00  0.00    -0.048 NA 
ENDBRANCH  24  25
ENDBRANCH  22  23
ENDBRANCH  12  13
ENDBRANCH   7  12
ENDBRANCH   3   6
TORSDOF 5
ENDMDL
MODEL      123
REMARK 921   NORMALIZED FREE ENERGY PREDICTED BY IDOCK:   -4.45 KCAL/MOL
REMARK 922        TOTAL FREE ENERGY PREDICTED BY IDOCK:   -6.77 KCAL/MOL
REMARK 923 INTER-LIGAND FREE ENERGY PREDICTED BY IDOCK:   -6.43 KCAL/MOL
REMARK 924 INTRA-LIGAND FREE ENERGY PREDICTED BY IDOCK:   -0.34 KCAL/MOL
REMARK 927      BINDING AFFINITY PREDICTED BY RF-SCORE:    0.00 PKD
ROOT
HETATM    1  C   UNL     1     -10.691  11.320  63.507  1.00  0.00    -0.335 C  
HETATM    2  N   UNL     1     -10.356  10.029  64.045  1.00  0.00    -0.251 N  
HETATM    3  C   UNL     1      -9.165   9.815  64.705  1.00  0.00    -0.255 C  
HETATM    4  H   UNL     1     -11.013   9.257  63.937  1.00  0.00     0.000 HD 
HETATM    5  O   UNL     1      -8.245  10.627  64.723  1.00  0.00    -0.139 OA 
ENDROOT
BRANCH   3   6
HETATM    6  C   UNL     1      -9.009   8.480  65.363  1.00  0.00    -0.150 A  
HETATM    7  C   UNL     1      -9.770   8.053  66.478  1.00  0.00    -0.227 A  
HETATM    8  C   UNL     1      -9.579   6.746  66.950  1.00  0.00    -0.200 A  
HETATM    9  C   UNL     1      -7.834   6.357  65.314  1.00  0.00    -0.108 A  
HETATM   10  C   UNL     1      -8.625   5.902  66.365  1.00  0.00    -0.127 A  
HETATM   11  C   UNL     1      -8.029   7.640  64.811  1.00  0.00    -0.137 A  
BRANCH   7  12
HETATM   12  S   UNL     1     -10.741   9.227  67.419  1.00  0.00    -0.099 SA 
BRANCH  12  13
HETATM   13  C   UNL     1      -9.851  10.761  67.518  1.00  0.00    -0.172 A  
HETATM   14  C   UNL     1     -10.521  11.905  67.079  1.00  0.00    -0.253 A  
HETATM   15  C   UNL     1     -10.011  13.189  67.308  1.00  0.00    -0.230 A  
HETATM   16  C   UNL     1      -8.800  13.330  68.010  1.00  0.00    -0.190 A  
HETATM   17  C   UNL     1      -8.152  12.177  68.445  1.00  0.00    -0.149 A  
HETATM   18  C   UNL     1      -8.633  10.877  68.202  1.00  0.00    -0.133 A  
HETATM   19  N   UNL     1      -7.064  12.627  69.142  1.00  0.00    -0.281 NA 
HETATM   20  N   UNL     1      -6.947  13.962  69.187  1.00  0.00    -0.110 NA 
HETATM   21  H   UNL     1      -6.397  12.000  69.590  1.00  0.00     0.000 HD 
HETATM   22  C   UNL     1      -7.983  14.413  68.467  1.00  0.00    -0.144 A  
BRANCH  22  23
HETATM   23  C   UNL     1      -8.175  15.816  68.238  1.00  0.00    -0.143 C  
HETATM   24  C   UNL     1      -9.345  16.477  68.304  1.00  0.00    -0.217 C  
BRANCH  24  25
HETATM   25  C   UNL     1      -9.521  17.895  67.961  1.00  0.00    -0.279 A  
HETATM   26  C   UNL     1     -10.567  18.282  67.128  1.00  0.00    -0.392 A  
HETATM   27  C   UNL     1     -10.671  19.619  66.752  1.00  0.00    -0.562 A  
HETATM   28  C   UNL     1      -9.734  20.531  67.219  1.00  0.00    -0.600 A  
HETATM   29  C   UNL     1      -8.735  20.066  68.057  1.00  0.00    -0.216 A  
HETATM   30  N   UNL     1      -8.611  18.775  68.439  1.00  0.00    -0.332 NA 
ENDBRANCH  24  25
ENDBRANCH  22  23
ENDBRANCH  12  13
ENDBRANCH   7  12
ENDBRANCH   3   6
TORSDOF 5
ENDMDL
MODEL      124
REMARK 921   NORMALIZED FREE ENERGY PREDICTED BY IDOCK:   -4.44 KCAL/MOL
REMARK 922        TOTAL FREE ENERGY PREDICTED BY IDOCK:   -6.76 KCAL/MOL
REMARK 923 INTER-LIGAND FREE ENERGY PREDICTED BY IDOCK:   -5.93 KCAL/MOL
REMARK 924 INTRA-LIGAND FREE ENERGY PREDICTED BY IDOCK:   -0.82 KCAL/MOL
REMARK 927      BINDING AFFINITY PREDICTED BY RF-SCORE:    0.00 PKD
ROOT
HETATM    1  C   UNL     1     -10.335  18.700  66.944  1.00  0.00    -0.402 C  
HETATM    2  N   UNL     1     -10.831  17.427  67.392  1.00  0.00    -0.237 N  
HETATM    3  C   UNL     1     -10.162  16.693  68.347  1.00  0.00    -0.284 C  
HETATM    4  H   UNL     1     -11.696  17.060  66.994  1.00  0.00     0.000 HD 
HETATM    5  O   UNL     1      -9.034  16.966  68.744  1.00  0.00    -0.260 OA 
ENDROOT
BRANCH   3   6
HETATM    6  C   UNL     1     -10.866  15.472  68.849  1.00  0.00    -0.254 A  
HETATM    7  C   UNL     1     -10.731  14.186  68.271  1.00  0.00    -0.249 A  
HETATM    8  C   UNL     1     -11.386  13.109  68.888  1.00  0.00    -0.335 A  
HETATM    9  C   UNL     1     -12.375  14.589  70.533  1.00  0.00    -0.403 A  
HETATM   10  C   UNL     1     -12.193  13.310  70.017  1.00  0.00    -0.345 A  
HETATM   11  C   UNL     1     -11.709  15.666  69.954  1.00  0.00    -0.372 A  
BRANCH   7  12
HETATM   12  S   UNL     1      -9.974  13.988  66.661  1.00  0.00    -0.286 SA 
BRANCH  12  13
HETATM   13  C   UNL     1      -9.465  12.297  66.469  1.00  0.00    -0.236 A  
HETATM   14  C   UNL     1     -10.259  11.492  65.649  1.00  0.00    -0.292 A  
HETATM   15  C   UNL     1      -9.844  10.216  65.249  1.00  0.00    -0.388 A  
HETATM   16  C   UNL     1      -8.590   9.738  65.673  1.00  0.00    -0.154 A  
HETATM   17  C   UNL     1      -7.812  10.560  66.484  1.00  0.00    -0.134 A  
HETATM   18  C   UNL     1      -8.220  11.834  66.919  1.00  0.00    -0.166 A  
HETATM   19  N   UNL     1      -6.646   9.868  66.669  1.00  0.00    -0.070 NA 
HETATM   20  N   UNL     1      -6.607   8.673  66.061  1.00  0.00    -0.057 NA 
HETATM   21  H   UNL     1      -5.871  10.230  67.224  1.00  0.00     0.000 HD 
HETATM   22  C   UNL     1      -7.805   8.558  65.473  1.00  0.00    -0.104 A  
BRANCH  22  23
HETATM   23  C   UNL     1      -8.169   7.372  64.753  1.00  0.00    -0.060 C  
HETATM   24  C   UNL     1      -8.514   6.189  65.295  1.00  0.00    -0.121 C  
BRANCH  24  25
HETATM   25  C   UNL     1      -8.779   4.967  64.525  1.00  0.00    -0.148 A  
HETATM   26  C   UNL     1      -8.095   4.735  63.334  1.00  0.00    -0.097 A  
HETATM   27  C   UNL     1      -8.415   3.609  62.580  1.00  0.00    -0.077 A  
HETATM   28  C   UNL     1      -9.404   2.746  63.034  1.00  0.00    -0.093 A  
HETATM   29  C   UNL     1     -10.024   3.042  64.235  1.00  0.00    -0.125 A  
HETATM   30  N   UNL     1      -9.732   4.125  64.989  1.00  0.00    -0.185 NA 
ENDBRANCH  24  25
ENDBRANCH  22  23
ENDBRANCH  12  13
ENDBRANCH   7  12
ENDBRANCH   3   6
TORSDOF 5
ENDMDL
MODEL      125
REMARK 921   NORMALIZED FREE ENERGY PREDICTED BY IDOCK:   -4.43 KCAL/MOL
REMARK 922        TOTAL FREE ENERGY PREDICTED BY IDOCK:   -6.75 KCAL/MOL
REMARK 923 INTER-LIGAND FREE ENERGY PREDICTED BY IDOCK:   -6.13 KCAL/MOL
REMARK 924 INTRA-LIGAND FREE ENERGY PREDICTED BY IDOCK:   -0.62 KCAL/MOL
REMARK 927      BINDING AFFINITY PREDICTED BY RF-SCORE:    0.00 PKD
ROOT
HETATM    1  C   UNL     1     -11.374  14.819  66.177  1.00  0.00    -0.330 C  
HETATM    2  N   UNL     1     -10.680  15.989  66.642  1.00  0.00    -0.289 N  
HETATM    3  C   UNL     1     -10.601  17.130  65.872  1.00  0.00    -0.215 C  
HETATM    4  H   UNL     1     -10.237  15.975  67.561  1.00  0.00     0.000 HD 
HETATM    5  O   UNL     1     -10.942  17.176  64.694  1.00  0.00    -1.005 OA 
ENDROOT
BRANCH   3   6
HETATM    6  C   UNL     1     -10.001  18.329  66.534  1.00  0.00    -0.380 A  
HETATM    7  C   UNL     1      -8.620  18.643  66.505  1.00  0.00    -0.297 A  
HETATM    8  C   UNL     1      -8.200  19.842  67.101  1.00  0.00    -0.351 A  
HETATM    9  C   UNL     1     -10.458  20.327  67.834  1.00  0.00    -0.321 A  
HETATM   10  C   UNL     1      -9.115  20.682  67.751  1.00  0.00    -0.201 A  
HETATM   11  C   UNL     1     -10.901  19.157  67.223  1.00  0.00    -0.529 A  
BRANCH   7  12
HETATM   12  S   UNL     1      -7.423  17.426  65.967  1.00  0.00    -0.103 SA 
BRANCH  12  13
HETATM   13  C   UNL     1      -7.215  16.217  67.251  1.00  0.00    -0.197 A  
HETATM   14  C   UNL     1      -7.690  14.930  66.984  1.00  0.00    -0.079 A  
HETATM   15  C   UNL     1      -7.392  13.849  67.822  1.00  0.00    -0.170 A  
HETATM   16  C   UNL     1      -6.584  14.060  68.954  1.00  0.00    -0.101 A  
HETATM   17  C   UNL     1      -6.115  15.349  69.197  1.00  0.00    -0.108 A  
HETATM   18  C   UNL     1      -6.424  16.455  68.384  1.00  0.00    -0.135 A  
HETATM   19  N   UNL     1      -5.316  15.229  70.302  1.00  0.00    -0.119 NA 
HETATM   20  N   UNL     1      -5.235  13.986  70.797  1.00  0.00    -0.112 NA 
HETATM   21  H   UNL     1      -4.823  16.021  70.715  1.00  0.00     0.000 HD 
HETATM   22  C   UNL     1      -6.035  13.259  70.005  1.00  0.00    -0.134 A  
BRANCH  22  23
HETATM   23  C   UNL     1      -6.254  11.862  70.250  1.00  0.00    -0.027 C  
HETATM   24  C   UNL     1      -7.055  11.048  69.539  1.00  0.00    -0.113 C  
BRANCH  24  25
HETATM   25  C   UNL     1      -7.335   9.648  69.882  1.00  0.00    -0.120 A  
HETATM   26  C   UNL     1      -6.907   8.627  69.036  1.00  0.00    -0.056 A  
HETATM   27  C   UNL     1      -7.248   7.312  69.339  1.00  0.00    -0.084 A  
HETATM   28  C   UNL     1      -8.000   7.050  70.477  1.00  0.00    -0.113 A  
HETATM   29  C   UNL     1      -8.371   8.120  71.272  1.00  0.00    -0.121 A  
HETATM   30  N   UNL     1      -8.052   9.406  71.004  1.00  0.00    -0.318 NA 
ENDBRANCH  24  25
ENDBRANCH  22  23
ENDBRANCH  12  13
ENDBRANCH   7  12
ENDBRANCH   3   6
TORSDOF 5
ENDMDL
MODEL      126
REMARK 921   NORMALIZED FREE ENERGY PREDICTED BY IDOCK:   -4.42 KCAL/MOL
REMARK 922        TOTAL FREE ENERGY PREDICTED BY IDOCK:   -6.73 KCAL/MOL
REMARK 923 INTER-LIGAND FREE ENERGY PREDICTED BY IDOCK:   -5.76 KCAL/MOL
REMARK 924 INTRA-LIGAND FREE ENERGY PREDICTED BY IDOCK:   -0.97 KCAL/MOL
REMARK 927      BINDING AFFINITY PREDICTED BY RF-SCORE:    0.00 PKD
ROOT
HETATM    1  C   UNL     1     -12.216  13.727  64.297  1.00  0.00    -0.400 C  
HETATM    2  N   UNL     1     -11.924  14.325  65.571  1.00  0.00    -0.375 N  
HETATM    3  C   UNL     1     -11.843  13.565  66.718  1.00  0.00    -0.406 C  
HETATM    4  H   UNL     1     -11.774  15.332  65.628  1.00  0.00     0.000 HD 
HETATM    5  O   UNL     1     -12.185  12.387  66.776  1.00  0.00    -0.551 OA 
ENDROOT
BRANCH   3   6
HETATM    6  C   UNL     1     -11.368  14.276  67.946  1.00  0.00    -0.320 A  
HETATM    7  C   UNL     1     -10.018  14.635  68.181  1.00  0.00    -0.224 A  
HETATM    8  C   UNL     1      -9.720  15.370  69.338  1.00  0.00    -0.273 A  
HETATM    9  C   UNL     1     -12.033  15.277  70.054  1.00  0.00    -0.375 A  
HETATM   10  C   UNL     1     -10.723  15.696  70.262  1.00  0.00    -0.354 A  
HETATM   11  C   UNL     1     -12.356  14.573  68.897  1.00  0.00    -0.091 A  
BRANCH   7  12
HETATM   12  S   UNL     1      -8.706  13.944  67.178  1.00  0.00    -0.202 SA 
BRANCH  12  13
HETATM   13  C   UNL     1      -8.739  12.174  67.329  1.00  0.00    -0.182 A  
HETATM   14  C   UNL     1      -8.624  11.441  66.145  1.00  0.00    -0.128 A  
HETATM   15  C   UNL     1      -8.419  10.056  66.156  1.00  0.00    -0.131 A  
HETATM   16  C   UNL     1      -8.313   9.388  67.389  1.00  0.00    -0.125 A  
HETATM   17  C   UNL     1      -8.423  10.139  68.557  1.00  0.00    -0.121 A  
HETATM   18  C   UNL     1      -8.655  11.526  68.569  1.00  0.00    -0.140 A  
HETATM   19  N   UNL     1      -8.211   9.244  69.570  1.00  0.00    -0.113 NA 
HETATM   20  N   UNL     1      -7.985   7.987  69.163  1.00  0.00    -0.112 NA 
HETATM   21  H   UNL     1      -8.224   9.511  70.555  1.00  0.00     0.000 HD 
HETATM   22  C   UNL     1      -8.079   8.046  67.828  1.00  0.00    -0.128 A  
BRANCH  22  23
HETATM   23  C   UNL     1      -7.945   6.868  67.020  1.00  0.00    -0.116 C  
HETATM   24  C   UNL     1      -8.925   6.275  66.314  1.00  0.00    -0.164 C  
BRANCH  24  25
HETATM   25  C   UNL     1      -8.775   5.010  65.582  1.00  0.00    -0.139 A  
HETATM   26  C   UNL     1      -8.280   5.017  64.280  1.00  0.00    -0.128 A  
HETATM   27  C   UNL     1      -8.217   3.818  63.575  1.00  0.00    -0.089 A  
HETATM   28  C   UNL     1      -8.645   2.647  64.188  1.00  0.00    -0.087 A  
HETATM   29  C   UNL     1      -9.108   2.726  65.490  1.00  0.00    -0.137 A  
HETATM   30  N   UNL     1      -9.178   3.875  66.198  1.00  0.00    -0.150 NA 
ENDBRANCH  24  25
ENDBRANCH  22  23
ENDBRANCH  12  13
ENDBRANCH   7  12
ENDBRANCH   3   6
TORSDOF 5
ENDMDL
MODEL      127
REMARK 921   NORMALIZED FREE ENERGY PREDICTED BY IDOCK:   -4.35 KCAL/MOL
REMARK 922        TOTAL FREE ENERGY PREDICTED BY IDOCK:   -6.65 KCAL/MOL
REMARK 923 INTER-LIGAND FREE ENERGY PREDICTED BY IDOCK:   -5.53 KCAL/MOL
REMARK 924 INTRA-LIGAND FREE ENERGY PREDICTED BY IDOCK:   -1.12 KCAL/MOL
REMARK 927      BINDING AFFINITY PREDICTED BY RF-SCORE:    0.00 PKD
ROOT
HETATM    1  C   UNL     1      -9.873   8.965  71.296  1.00  0.00    -0.291 C  
HETATM    2  N   UNL     1      -9.367   7.778  70.662  1.00  0.00    -0.162 N  
HETATM    3  C   UNL     1     -10.103   6.614  70.627  1.00  0.00    -0.184 C  
HETATM    4  H   UNL     1      -8.444   7.799  70.228  1.00  0.00     0.000 HD 
HETATM    5  O   UNL     1     -11.133   6.444  71.272  1.00  0.00    -0.258 OA 
ENDROOT
BRANCH   3   6
HETATM    6  C   UNL     1      -9.541   5.505  69.794  1.00  0.00    -0.215 A  
HETATM    7  C   UNL     1      -9.703   5.409  68.390  1.00  0.00    -0.136 A  
HETATM    8  C   UNL     1      -9.057   4.359  67.719  1.00  0.00    -0.149 A  
HETATM    9  C   UNL     1      -8.220   3.469  69.811  1.00  0.00    -0.071 A  
HETATM   10  C   UNL     1      -8.313   3.404  68.425  1.00  0.00    -0.097 A  
HETATM   11  C   UNL     1      -8.828   4.520  70.494  1.00  0.00    -0.140 A  
BRANCH   7  12
HETATM   12  S   UNL     1     -10.905   6.428  67.542  1.00  0.00    -0.367 SA 
BRANCH  12  13
HETATM   13  C   UNL     1     -10.178   8.012  67.200  1.00  0.00    -0.292 A  
HETATM   14  C   UNL     1     -10.968   9.135  67.463  1.00  0.00    -0.010 A  
HETATM   15  C   UNL     1     -10.435  10.429  67.442  1.00  0.00    -0.299 A  
HETATM   16  C   UNL     1      -9.067  10.603  67.162  1.00  0.00    -0.154 A  
HETATM   17  C   UNL     1      -8.296   9.470  66.911  1.00  0.00    -0.116 A  
HETATM   18  C   UNL     1      -8.817   8.164  66.901  1.00  0.00    -0.145 A  
HETATM   19  N   UNL     1      -7.023   9.942  66.747  1.00  0.00    -0.087 NA 
HETATM   20  N   UNL     1      -6.904  11.272  66.860  1.00  0.00    -0.125 NA 
HETATM   21  H   UNL     1      -6.228   9.332  66.554  1.00  0.00     0.000 HD 
HETATM   22  C   UNL     1      -8.154  11.702  67.079  1.00  0.00    -0.164 A  
BRANCH  22  23
HETATM   23  C   UNL     1      -8.448  13.100  67.206  1.00  0.00    -0.199 C  
HETATM   24  C   UNL     1      -9.260  13.660  68.122  1.00  0.00    -0.204 C  
BRANCH  24  25
HETATM   25  C   UNL     1      -9.619  15.084  68.156  1.00  0.00    -0.207 A  
HETATM   26  C   UNL     1     -10.160  15.635  69.316  1.00  0.00    -0.258 A  
HETATM   27  C   UNL     1     -10.566  16.967  69.304  1.00  0.00    -0.325 A  
HETATM   28  C   UNL     1     -10.418  17.711  68.141  1.00  0.00    -0.386 A  
HETATM   29  C   UNL     1      -9.856  17.092  67.039  1.00  0.00    -0.270 A  
HETATM   30  N   UNL     1      -9.452  15.802  67.022  1.00  0.00    -0.218 NA 
ENDBRANCH  24  25
ENDBRANCH  22  23
ENDBRANCH  12  13
ENDBRANCH   7  12
ENDBRANCH   3   6
TORSDOF 5
ENDMDL
MODEL      128
REMARK 921   NORMALIZED FREE ENERGY PREDICTED BY IDOCK:   -4.34 KCAL/MOL
REMARK 922        TOTAL FREE ENERGY PREDICTED BY IDOCK:   -6.63 KCAL/MOL
REMARK 923 INTER-LIGAND FREE ENERGY PREDICTED BY IDOCK:   -6.17 KCAL/MOL
REMARK 924 INTRA-LIGAND FREE ENERGY PREDICTED BY IDOCK:   -0.46 KCAL/MOL
REMARK 927      BINDING AFFINITY PREDICTED BY RF-SCORE:    0.00 PKD
ROOT
HETATM    1  C   UNL     1      -9.391  11.118  63.306  1.00  0.00    -0.297 C  
HETATM    2  N   UNL     1      -8.701  10.508  64.410  1.00  0.00    -0.198 N  
HETATM    3  C   UNL     1      -8.353   9.174  64.388  1.00  0.00    -0.174 C  
HETATM    4  H   UNL     1      -8.465  11.072  65.225  1.00  0.00     0.000 HD 
HETATM    5  O   UNL     1      -8.753   8.383  63.539  1.00  0.00     0.035 OA 
ENDROOT
BRANCH   3   6
HETATM    6  C   UNL     1      -7.493   8.701  65.518  1.00  0.00    -0.085 A  
HETATM    7  C   UNL     1      -7.999   8.203  66.743  1.00  0.00    -0.103 A  
HETATM    8  C   UNL     1      -7.083   7.718  67.690  1.00  0.00    -0.083 A  
HETATM    9  C   UNL     1      -5.216   8.330  66.271  1.00  0.00    -0.024 A  
HETATM   10  C   UNL     1      -5.703   7.773  67.449  1.00  0.00    -0.037 A  
HETATM   11  C   UNL     1      -6.109   8.788  65.305  1.00  0.00    -0.055 A  
BRANCH   7  12
HETATM   12  S   UNL     1      -9.720   8.433  67.177  1.00  0.00    -0.212 SA 
BRANCH  12  13
HETATM   13  C   UNL     1      -9.944  10.088  67.781  1.00  0.00    -0.170 A  
HETATM   14  C   UNL     1      -9.024  11.045  67.346  1.00  0.00    -0.141 A  
HETATM   15  C   UNL     1      -9.222  12.412  67.575  1.00  0.00    -0.183 A  
HETATM   16  C   UNL     1     -10.382  12.834  68.250  1.00  0.00    -0.248 A  
HETATM   17  C   UNL     1     -11.290  11.863  68.669  1.00  0.00    -0.276 A  
HETATM   18  C   UNL     1     -11.098  10.484  68.472  1.00  0.00    -0.329 A  
HETATM   19  N   UNL     1     -12.327  12.567  69.217  1.00  0.00    -0.001 NA 
HETATM   20  N   UNL     1     -12.166  13.898  69.199  1.00  0.00    -0.332 NA 
HETATM   21  H   UNL     1     -13.154  12.117  69.608  1.00  0.00     0.000 HD 
HETATM   22  C   UNL     1     -10.962  14.082  68.642  1.00  0.00    -0.263 A  
BRANCH  22  23
HETATM   23  C   UNL     1     -10.404  15.395  68.492  1.00  0.00    -0.226 C  
HETATM   24  C   UNL     1     -11.004  16.450  67.911  1.00  0.00    -0.298 C  
BRANCH  24  25
HETATM   25  C   UNL     1     -10.361  17.751  67.682  1.00  0.00    -0.373 A  
HETATM   26  C   UNL     1      -9.694  18.388  68.726  1.00  0.00    -0.369 A  
HETATM   27  C   UNL     1      -9.158  19.655  68.510  1.00  0.00    -0.368 A  
HETATM   28  C   UNL     1      -9.297  20.248  67.263  1.00  0.00    -0.538 A  
HETATM   29  C   UNL     1      -9.960  19.540  66.276  1.00  0.00    -0.450 A  
HETATM   30  N   UNL     1     -10.488  18.309  66.456  1.00  0.00    -0.374 NA 
ENDBRANCH  24  25
ENDBRANCH  22  23
ENDBRANCH  12  13
ENDBRANCH   7  12
ENDBRANCH   3   6
TORSDOF 5
ENDMDL
MODEL      129
REMARK 921   NORMALIZED FREE ENERGY PREDICTED BY IDOCK:   -4.34 KCAL/MOL
REMARK 922        TOTAL FREE ENERGY PREDICTED BY IDOCK:   -6.63 KCAL/MOL
REMARK 923 INTER-LIGAND FREE ENERGY PREDICTED BY IDOCK:   -6.00 KCAL/MOL
REMARK 924 INTRA-LIGAND FREE ENERGY PREDICTED BY IDOCK:   -0.64 KCAL/MOL
REMARK 927      BINDING AFFINITY PREDICTED BY RF-SCORE:    0.00 PKD
ROOT
HETATM    1  C   UNL     1     -10.529   5.212  66.604  1.00  0.00    -0.275 C  
HETATM    2  N   UNL     1      -9.561   5.746  67.523  1.00  0.00    -0.112 N  
HETATM    3  C   UNL     1      -8.389   5.076  67.801  1.00  0.00    -0.105 C  
HETATM    4  H   UNL     1      -9.745   6.641  67.978  1.00  0.00     0.000 HD 
HETATM    5  O   UNL     1      -8.169   3.922  67.445  1.00  0.00    -0.094 OA 
ENDROOT
BRANCH   3   6
HETATM    6  C   UNL     1      -7.393   5.813  68.638  1.00  0.00    -0.084 A  
HETATM    7  C   UNL     1      -7.532   6.026  70.032  1.00  0.00    -0.083 A  
HETATM    8  C   UNL     1      -6.485   6.667  70.712  1.00  0.00    -0.052 A  
HETATM    9  C   UNL     1      -5.262   6.975  68.643  1.00  0.00    -0.017 A  
HETATM   10  C   UNL     1      -5.354   7.128  70.023  1.00  0.00    -0.023 A  
HETATM   11  C   UNL     1      -6.275   6.315  67.953  1.00  0.00    -0.028 A  
BRANCH   7  12
HETATM   12  S   UNL     1      -9.100   5.734  70.844  1.00  0.00    -0.146 SA 
BRANCH  12  13
HETATM   13  C   UNL     1      -9.988   7.269  70.951  1.00  0.00    -0.185 A  
HETATM   14  C   UNL     1      -9.316   8.413  70.514  1.00  0.00    -0.177 A  
HETATM   15  C   UNL     1      -9.979   9.635  70.346  1.00  0.00    -0.330 A  
HETATM   16  C   UNL     1     -11.359   9.708  70.611  1.00  0.00    -0.379 A  
HETATM   17  C   UNL     1     -12.010   8.553  71.038  1.00  0.00    -0.231 A  
HETATM   18  C   UNL     1     -11.358   7.323  71.239  1.00  0.00    -0.290 A  
HETATM   19  N   UNL     1     -13.327   8.911  71.143  1.00  0.00    -0.540 NA 
HETATM   20  N   UNL     1     -13.581  10.191  70.832  1.00  0.00    -0.139 NA 
HETATM   21  H   UNL     1     -14.055   8.259  71.433  1.00  0.00     0.000 HD 
HETATM   22  C   UNL     1     -12.381  10.708  70.538  1.00  0.00    -0.359 A  
BRANCH  22  23
HETATM   23  C   UNL     1     -12.231  12.093  70.199  1.00  0.00    -0.308 C  
HETATM   24  C   UNL     1     -11.288  12.616  69.393  1.00  0.00    -0.273 C  
BRANCH  24  25
HETATM   25  C   UNL     1     -11.102  14.053  69.151  1.00  0.00    -0.259 A  
HETATM   26  C   UNL     1     -11.187  14.950  70.213  1.00  0.00    -0.270 A  
HETATM   27  C   UNL     1     -11.085  16.315  69.952  1.00  0.00    -0.347 A  
HETATM   28  C   UNL     1     -10.896  16.744  68.645  1.00  0.00    -0.336 A  
HETATM   29  C   UNL     1     -10.806  15.785  67.652  1.00  0.00    -0.310 A  
HETATM   30  N   UNL     1     -10.900  14.455  67.876  1.00  0.00    -0.247 NA 
ENDBRANCH  24  25
ENDBRANCH  22  23
ENDBRANCH  12  13
ENDBRANCH   7  12
ENDBRANCH   3   6
TORSDOF 5
ENDMDL
MODEL      130
REMARK 921   NORMALIZED FREE ENERGY PREDICTED BY IDOCK:   -4.33 KCAL/MOL
REMARK 922        TOTAL FREE ENERGY PREDICTED BY IDOCK:   -6.62 KCAL/MOL
REMARK 923 INTER-LIGAND FREE ENERGY PREDICTED BY IDOCK:   -5.66 KCAL/MOL
REMARK 924 INTRA-LIGAND FREE ENERGY PREDICTED BY IDOCK:   -0.97 KCAL/MOL
REMARK 927      BINDING AFFINITY PREDICTED BY RF-SCORE:    0.00 PKD
ROOT
HETATM    1  C   UNL     1      -7.778   9.750  63.820  1.00  0.00    -0.135 C  
HETATM    2  N   UNL     1      -8.621   9.218  64.856  1.00  0.00    -0.171 N  
HETATM    3  C   UNL     1      -8.213   8.161  65.640  1.00  0.00    -0.133 C  
HETATM    4  H   UNL     1      -9.540   9.632  65.014  1.00  0.00     0.000 HD 
HETATM    5  O   UNL     1      -7.213   7.490  65.405  1.00  0.00    -0.065 OA 
ENDROOT
BRANCH   3   6
HETATM    6  C   UNL     1      -9.106   7.812  66.789  1.00  0.00    -0.185 A  
HETATM    7  C   UNL     1      -8.986   8.371  68.084  1.00  0.00    -0.139 A  
HETATM    8  C   UNL     1      -9.939   8.015  69.051  1.00  0.00    -0.186 A  
HETATM    9  C   UNL     1     -11.018   6.497  67.501  1.00  0.00    -0.444 A  
HETATM   10  C   UNL     1     -10.952   7.093  68.757  1.00  0.00    -0.094 A  
HETATM   11  C   UNL     1     -10.101   6.859  66.518  1.00  0.00    -0.140 A  
BRANCH   7  12
HETATM   12  S   UNL     1      -7.518   9.286  68.546  1.00  0.00    -0.081 SA 
BRANCH  12  13
HETATM   13  C   UNL     1      -7.804  11.015  68.259  1.00  0.00    -0.121 A  
HETATM   14  C   UNL     1      -6.831  11.899  68.733  1.00  0.00    -0.093 A  
HETATM   15  C   UNL     1      -6.835  13.254  68.379  1.00  0.00    -0.098 A  
HETATM   16  C   UNL     1      -7.836  13.735  67.515  1.00  0.00    -0.189 A  
HETATM   17  C   UNL     1      -8.791  12.835  67.049  1.00  0.00    -0.213 A  
HETATM   18  C   UNL     1      -8.821  11.476  67.412  1.00  0.00    -0.157 A  
HETATM   19  N   UNL     1      -9.570  13.563  66.192  1.00  0.00    -0.429 NA 
HETATM   20  N   UNL     1      -9.211  14.850  66.072  1.00  0.00    -0.244 NA 
HETATM   21  H   UNL     1     -10.360  13.162  65.687  1.00  0.00     0.000 HD 
HETATM   22  C   UNL     1      -8.170  14.985  66.904  1.00  0.00    -0.171 A  
BRANCH  22  23
HETATM   23  C   UNL     1      -7.529  16.254  67.094  1.00  0.00    -0.238 C  
HETATM   24  C   UNL     1      -7.840  17.168  68.031  1.00  0.00    -0.195 C  
BRANCH  24  25
HETATM   25  C   UNL     1      -7.232  18.501  68.129  1.00  0.00    -0.255 A  
HETATM   26  C   UNL     1      -6.481  18.840  69.252  1.00  0.00    -0.301 A  
HETATM   27  C   UNL     1      -5.977  20.133  69.362  1.00  0.00    -0.359 A  
HETATM   28  C   UNL     1      -6.230  21.049  68.349  1.00  0.00    -0.264 A  
HETATM   29  C   UNL     1      -6.971  20.626  67.260  1.00  0.00    -0.331 A  
HETATM   30  N   UNL     1      -7.471  19.377  67.126  1.00  0.00    -0.223 NA 
ENDBRANCH  24  25
ENDBRANCH  22  23
ENDBRANCH  12  13
ENDBRANCH   7  12
ENDBRANCH   3   6
TORSDOF 5
ENDMDL
MODEL      131
REMARK 921   NORMALIZED FREE ENERGY PREDICTED BY IDOCK:   -4.32 KCAL/MOL
REMARK 922        TOTAL FREE ENERGY PREDICTED BY IDOCK:   -6.61 KCAL/MOL
REMARK 923 INTER-LIGAND FREE ENERGY PREDICTED BY IDOCK:   -5.69 KCAL/MOL
REMARK 924 INTRA-LIGAND FREE ENERGY PREDICTED BY IDOCK:   -0.92 KCAL/MOL
REMARK 927      BINDING AFFINITY PREDICTED BY RF-SCORE:    0.00 PKD
ROOT
HETATM    1  C   UNL     1     -12.419  11.269  70.346  1.00  0.00    -0.271 C  
HETATM    2  N   UNL     1     -12.072   9.915  70.009  1.00  0.00    -0.473 N  
HETATM    3  C   UNL     1     -10.768   9.471  70.075  1.00  0.00    -0.243 C  
HETATM    4  H   UNL     1     -12.805   9.269  69.716  1.00  0.00     0.000 HD 
HETATM    5  O   UNL     1      -9.807  10.216  70.240  1.00  0.00    -0.169 OA 
ENDROOT
BRANCH   3   6
HETATM    6  C   UNL     1     -10.562   8.004  69.865  1.00  0.00    -0.242 A  
HETATM    7  C   UNL     1     -10.349   7.408  68.598  1.00  0.00    -0.198 A  
HETATM    8  C   UNL     1     -10.091   6.029  68.550  1.00  0.00    -0.197 A  
HETATM    9  C   UNL     1     -10.373   5.841  70.949  1.00  0.00    -0.299 A  
HETATM   10  C   UNL     1     -10.093   5.255  69.719  1.00  0.00    -0.334 A  
HETATM   11  C   UNL     1     -10.601   7.212  71.024  1.00  0.00    -0.239 A  
BRANCH   7  12
HETATM   12  S   UNL     1     -10.667   8.327  67.096  1.00  0.00    -0.037 SA 
BRANCH  12  13
HETATM   13  C   UNL     1      -9.524   9.683  66.998  1.00  0.00    -0.154 A  
HETATM   14  C   UNL     1     -10.063  10.940  66.715  1.00  0.00    -0.259 A  
HETATM   15  C   UNL     1      -9.301  12.108  66.827  1.00  0.00    -0.212 A  
HETATM   16  C   UNL     1      -7.961  12.016  67.248  1.00  0.00    -0.174 A  
HETATM   17  C   UNL     1      -7.446  10.754  67.532  1.00  0.00    -0.093 A  
HETATM   18  C   UNL     1      -8.186   9.565  67.401  1.00  0.00    -0.114 A  
HETATM   19  N   UNL     1      -6.173  10.987  67.975  1.00  0.00    -0.053 NA 
HETATM   20  N   UNL     1      -5.818  12.280  67.993  1.00  0.00    -0.056 NA 
HETATM   21  H   UNL     1      -5.544  10.239  68.268  1.00  0.00     0.000 HD 
HETATM   22  C   UNL     1      -6.890  12.927  67.515  1.00  0.00    -0.153 A  
BRANCH  22  23
HETATM   23  C   UNL     1      -6.880  14.349  67.333  1.00  0.00    -0.052 C  
HETATM   24  C   UNL     1      -7.256  15.268  68.241  1.00  0.00    -0.118 C  
BRANCH  24  25
HETATM   25  C   UNL     1      -7.331  16.712  67.982  1.00  0.00    -0.156 A  
HETATM   26  C   UNL     1      -7.467  17.176  66.676  1.00  0.00    -0.293 A  
HETATM   27  C   UNL     1      -7.459  18.549  66.443  1.00  0.00    -0.279 A  
HETATM   28  C   UNL     1      -7.321  19.419  67.517  1.00  0.00    -0.261 A  
HETATM   29  C   UNL     1      -7.208  18.876  68.784  1.00  0.00    -0.318 A  
HETATM   30  N   UNL     1      -7.215  17.548  69.039  1.00  0.00    -0.243 NA 
ENDBRANCH  24  25
ENDBRANCH  22  23
ENDBRANCH  12  13
ENDBRANCH   7  12
ENDBRANCH   3   6
TORSDOF 5
ENDMDL
MODEL      132
REMARK 921   NORMALIZED FREE ENERGY PREDICTED BY IDOCK:   -4.26 KCAL/MOL
REMARK 922        TOTAL FREE ENERGY PREDICTED BY IDOCK:   -6.53 KCAL/MOL
REMARK 923 INTER-LIGAND FREE ENERGY PREDICTED BY IDOCK:   -5.37 KCAL/MOL
REMARK 924 INTRA-LIGAND FREE ENERGY PREDICTED BY IDOCK:   -1.16 KCAL/MOL
REMARK 927      BINDING AFFINITY PREDICTED BY RF-SCORE:    0.00 PKD
ROOT
HETATM    1  C   UNL     1      -8.841   7.680  70.387  1.00  0.00    -0.144 C  
HETATM    2  N   UNL     1      -8.092   6.490  70.088  1.00  0.00    -0.119 N  
HETATM    3  C   UNL     1      -8.587   5.238  70.383  1.00  0.00    -0.115 C  
HETATM    4  H   UNL     1      -7.176   6.574  69.648  1.00  0.00     0.000 HD 
HETATM    5  O   UNL     1      -9.586   5.049  71.069  1.00  0.00    -0.153 OA 
ENDROOT
BRANCH   3   6
HETATM    6  C   UNL     1      -7.791   4.079  69.870  1.00  0.00    -0.052 A  
HETATM    7  C   UNL     1      -8.060   3.411  68.650  1.00  0.00    -0.061 A  
HETATM    8  C   UNL     1      -7.187   2.389  68.248  1.00  0.00    -0.048 A  
HETATM    9  C   UNL     1      -5.894   2.622  70.284  1.00  0.00    -0.018 A  
HETATM   10  C   UNL     1      -6.107   2.006  69.055  1.00  0.00    -0.024 A  
HETATM   11  C   UNL     1      -6.730   3.660  70.688  1.00  0.00    -0.033 A  
BRANCH   7  12
HETATM   12  S   UNL     1      -9.607   3.677  67.791  1.00  0.00    -0.063 SA 
BRANCH  12  13
HETATM   13  C   UNL     1      -9.548   5.254  66.975  1.00  0.00    -0.142 A  
HETATM   14  C   UNL     1     -10.493   6.203  67.374  1.00  0.00    -0.309 A  
HETATM   15  C   UNL     1     -10.410   7.539  66.965  1.00  0.00    -0.395 A  
HETATM   16  C   UNL     1      -9.341   7.940  66.143  1.00  0.00    -0.188 A  
HETATM   17  C   UNL     1      -8.406   6.979  65.763  1.00  0.00    -0.143 A  
HETATM   18  C   UNL     1      -8.486   5.627  66.140  1.00  0.00    -0.128 A  
HETATM   19  N   UNL     1      -7.469   7.668  65.043  1.00  0.00    -0.084 NA 
HETATM   20  N   UNL     1      -7.719   8.979  64.916  1.00  0.00    -0.107 NA 
HETATM   21  H   UNL     1      -6.648   7.221  64.635  1.00  0.00     0.000 HD 
HETATM   22  C   UNL     1      -8.883   9.161  65.553  1.00  0.00    -0.191 A  
BRANCH  22  23
HETATM   23  C   UNL     1      -9.516  10.447  65.594  1.00  0.00    -0.262 C  
HETATM   24  C   UNL     1     -10.576  10.834  64.861  1.00  0.00    -0.258 C  
BRANCH  24  25
HETATM   25  C   UNL     1     -11.132  12.194  64.854  1.00  0.00    -0.319 A  
HETATM   26  C   UNL     1     -10.319  13.273  64.518  1.00  0.00    -0.394 A  
HETATM   27  C   UNL     1     -10.843  14.562  64.592  1.00  0.00    -0.351 A  
HETATM   28  C   UNL     1     -12.161  14.736  64.993  1.00  0.00    -0.291 A  
HETATM   29  C   UNL     1     -12.904  13.609  65.294  1.00  0.00    -0.369 A  
HETATM   30  N   UNL     1     -12.422  12.347  65.229  1.00  0.00    -0.609 NA 
ENDBRANCH  24  25
ENDBRANCH  22  23
ENDBRANCH  12  13
ENDBRANCH   7  12
ENDBRANCH   3   6
TORSDOF 5
ENDMDL
MODEL      133
REMARK 921   NORMALIZED FREE ENERGY PREDICTED BY IDOCK:   -4.26 KCAL/MOL
REMARK 922        TOTAL FREE ENERGY PREDICTED BY IDOCK:   -6.53 KCAL/MOL
REMARK 923 INTER-LIGAND FREE ENERGY PREDICTED BY IDOCK:   -5.53 KCAL/MOL
REMARK 924 INTRA-LIGAND FREE ENERGY PREDICTED BY IDOCK:   -1.00 KCAL/MOL
REMARK 927      BINDING AFFINITY PREDICTED BY RF-SCORE:    0.00 PKD
ROOT
HETATM    1  C   UNL     1     -11.898  11.646  69.972  1.00  0.00    -0.355 C  
HETATM    2  N   UNL     1     -10.893  12.476  69.367  1.00  0.00    -0.443 N  
HETATM    3  C   UNL     1     -11.226  13.636  68.700  1.00  0.00    -0.277 C  
HETATM    4  H   UNL     1      -9.912  12.202  69.432  1.00  0.00     0.000 HD 
HETATM    5  O   UNL     1     -12.379  13.946  68.416  1.00  0.00    -0.261 OA 
ENDROOT
BRANCH   3   6
HETATM    6  C   UNL     1     -10.082  14.495  68.263  1.00  0.00    -0.232 A  
HETATM    7  C   UNL     1      -9.667  14.638  66.917  1.00  0.00    -0.242 A  
HETATM    8  C   UNL     1      -8.628  15.538  66.635  1.00  0.00    -0.325 A  
HETATM    9  C   UNL     1      -8.354  16.037  68.991  1.00  0.00    -0.243 A  
HETATM   10  C   UNL     1      -7.984  16.239  67.665  1.00  0.00    -0.160 A  
HETATM   11  C   UNL     1      -9.403  15.171  69.289  1.00  0.00    -0.207 A  
BRANCH   7  12
HETATM   12  S   UNL     1     -10.263  13.514  65.658  1.00  0.00    -0.284 SA 
BRANCH  12  13
HETATM   13  C   UNL     1      -9.590  11.898  65.965  1.00  0.00    -0.235 A  
HETATM   14  C   UNL     1     -10.128  10.843  65.224  1.00  0.00    -0.340 A  
HETATM   15  C   UNL     1      -9.538   9.574  65.219  1.00  0.00    -0.314 A  
HETATM   16  C   UNL     1      -8.366   9.358  65.968  1.00  0.00    -0.123 A  
HETATM   17  C   UNL     1      -7.843  10.426  66.694  1.00  0.00    -0.120 A  
HETATM   18  C   UNL     1      -8.434  11.702  66.734  1.00  0.00    -0.177 A  
HETATM   19  N   UNL     1      -6.691   9.941  67.249  1.00  0.00    -0.073 NA 
HETATM   20  N   UNL     1      -6.429   8.659  66.956  1.00  0.00    -0.057 NA 
HETATM   21  H   UNL     1      -6.080  10.508  67.838  1.00  0.00     0.000 HD 
HETATM   22  C   UNL     1      -7.465   8.271  66.200  1.00  0.00    -0.081 A  
BRANCH  22  23
HETATM   23  C   UNL     1      -7.574   6.923  65.723  1.00  0.00    -0.091 C  
HETATM   24  C   UNL     1      -8.654   6.128  65.833  1.00  0.00    -0.147 C  
BRANCH  24  25
HETATM   25  C   UNL     1      -8.694   4.717  65.425  1.00  0.00    -0.138 A  
HETATM   26  C   UNL     1      -8.921   4.387  64.091  1.00  0.00    -0.151 A  
HETATM   27  C   UNL     1      -9.032   3.044  63.738  1.00  0.00    -0.096 A  
HETATM   28  C   UNL     1      -8.909   2.071  64.721  1.00  0.00    -0.116 A  
HETATM   29  C   UNL     1      -8.668   2.484  66.020  1.00  0.00    -0.128 A  
HETATM   30  N   UNL     1      -8.554   3.779  66.391  1.00  0.00    -0.110 NA 
ENDBRANCH  24  25
ENDBRANCH  22  23
ENDBRANCH  12  13
ENDBRANCH   7  12
ENDBRANCH   3   6
TORSDOF 5
ENDMDL
MODEL      134
REMARK 921   NORMALIZED FREE ENERGY PREDICTED BY IDOCK:   -4.26 KCAL/MOL
REMARK 922        TOTAL FREE ENERGY PREDICTED BY IDOCK:   -6.53 KCAL/MOL
REMARK 923 INTER-LIGAND FREE ENERGY PREDICTED BY IDOCK:   -5.74 KCAL/MOL
REMARK 924 INTRA-LIGAND FREE ENERGY PREDICTED BY IDOCK:   -0.80 KCAL/MOL
REMARK 927      BINDING AFFINITY PREDICTED BY RF-SCORE:    0.00 PKD
ROOT
HETATM    1  C   UNL     1     -11.410  11.265  66.831  1.00  0.00    -0.155 C  
HETATM    2  N   UNL     1     -10.637  10.162  67.333  1.00  0.00    -0.256 N  
HETATM    3  C   UNL     1     -10.109  10.177  68.606  1.00  0.00    -0.172 C  
HETATM    4  H   UNL     1     -10.476   9.351  66.735  1.00  0.00     0.000 HD 
HETATM    5  O   UNL     1     -10.096  11.173  69.322  1.00  0.00    -0.159 OA 
ENDROOT
BRANCH   3   6
HETATM    6  C   UNL     1      -9.472   8.904  69.068  1.00  0.00    -0.156 A  
HETATM    7  C   UNL     1      -8.164   8.496  68.707  1.00  0.00    -0.122 A  
HETATM    8  C   UNL     1      -7.658   7.317  69.273  1.00  0.00    -0.102 A  
HETATM    9  C   UNL     1      -9.750   6.913  70.426  1.00  0.00    -0.177 A  
HETATM   10  C   UNL     1      -8.443   6.538  70.135  1.00  0.00    -0.135 A  
HETATM   11  C   UNL     1     -10.262   8.095  69.899  1.00  0.00    -0.204 A  
BRANCH   7  12
HETATM   12  S   UNL     1      -7.295   9.309  67.369  1.00  0.00    -0.087 SA 
BRANCH  12  13
HETATM   13  C   UNL     1      -7.069  11.021  67.787  1.00  0.00    -0.086 A  
HETATM   14  C   UNL     1      -7.670  11.958  66.943  1.00  0.00    -0.106 A  
HETATM   15  C   UNL     1      -7.747  13.313  67.285  1.00  0.00    -0.100 A  
HETATM   16  C   UNL     1      -7.217  13.740  68.516  1.00  0.00    -0.108 A  
HETATM   17  C   UNL     1      -6.628  12.789  69.346  1.00  0.00    -0.064 A  
HETATM   18  C   UNL     1      -6.517  11.427  69.010  1.00  0.00    -0.069 A  
HETATM   19  N   UNL     1      -6.278  13.477  70.475  1.00  0.00    -0.389 NA 
HETATM   20  N   UNL     1      -6.577  14.784  70.445  1.00  0.00    -0.122 NA 
HETATM   21  H   UNL     1      -5.826  13.033  71.275  1.00  0.00     0.000 HD 
HETATM   22  C   UNL     1      -7.121  14.974  69.236  1.00  0.00    -0.170 A  
BRANCH  22  23
HETATM   23  C   UNL     1      -7.532  16.278  68.802  1.00  0.00    -0.195 C  
HETATM   24  C   UNL     1      -8.741  16.606  68.311  1.00  0.00    -0.216 C  
BRANCH  24  25
HETATM   25  C   UNL     1      -9.092  17.930  67.779  1.00  0.00    -0.258 A  
HETATM   26  C   UNL     1     -10.387  18.419  67.935  1.00  0.00    -0.425 A  
HETATM   27  C   UNL     1     -10.720  19.641  67.357  1.00  0.00    -0.563 A  
HETATM   28  C   UNL     1      -9.756  20.342  66.645  1.00  0.00    -0.550 A  
HETATM   29  C   UNL     1      -8.489  19.792  66.552  1.00  0.00    -0.345 A  
HETATM   30  N   UNL     1      -8.137  18.610  67.104  1.00  0.00    -0.243 NA 
ENDBRANCH  24  25
ENDBRANCH  22  23
ENDBRANCH  12  13
ENDBRANCH   7  12
ENDBRANCH   3   6
TORSDOF 5
ENDMDL
MODEL      135
REMARK 921   NORMALIZED FREE ENERGY PREDICTED BY IDOCK:   -4.25 KCAL/MOL
REMARK 922        TOTAL FREE ENERGY PREDICTED BY IDOCK:   -6.52 KCAL/MOL
REMARK 923 INTER-LIGAND FREE ENERGY PREDICTED BY IDOCK:   -6.03 KCAL/MOL
REMARK 924 INTRA-LIGAND FREE ENERGY PREDICTED BY IDOCK:   -0.48 KCAL/MOL
REMARK 927      BINDING AFFINITY PREDICTED BY RF-SCORE:    0.00 PKD
ROOT
HETATM    1  C   UNL     1      -7.612  20.429  66.669  1.00  0.00    -0.242 C  
HETATM    2  N   UNL     1      -7.078  19.255  67.306  1.00  0.00    -0.204 N  
HETATM    3  C   UNL     1      -7.788  18.579  68.275  1.00  0.00    -0.303 C  
HETATM    4  H   UNL     1      -6.155  18.916  67.036  1.00  0.00     0.000 HD 
HETATM    5  O   UNL     1      -8.815  19.013  68.788  1.00  0.00    -0.349 OA 
ENDROOT
BRANCH   3   6
HETATM    6  C   UNL     1      -7.200  17.283  68.736  1.00  0.00    -0.245 A  
HETATM    7  C   UNL     1      -7.757  16.013  68.447  1.00  0.00    -0.147 A  
HETATM    8  C   UNL     1      -7.061  14.872  68.874  1.00  0.00    -0.117 A  
HETATM    9  C   UNL     1      -5.375  16.241  69.950  1.00  0.00    -0.154 A  
HETATM   10  C   UNL     1      -5.874  14.987  69.611  1.00  0.00    -0.110 A  
HETATM   11  C   UNL     1      -6.033  17.386  69.509  1.00  0.00    -0.246 A  
BRANCH   7  12
HETATM   12  S   UNL     1      -9.420  15.876  67.799  1.00  0.00    -0.216 SA 
BRANCH  12  13
HETATM   13  C   UNL     1     -10.063  14.270  68.203  1.00  0.00    -0.232 A  
HETATM   14  C   UNL     1      -9.428  13.173  67.616  1.00  0.00    -0.207 A  
HETATM   15  C   UNL     1      -9.701  11.862  68.023  1.00  0.00    -0.191 A  
HETATM   16  C   UNL     1     -10.628  11.644  69.059  1.00  0.00    -0.188 A  
HETATM   17  C   UNL     1     -11.244  12.752  69.635  1.00  0.00    -0.002 A  
HETATM   18  C   UNL     1     -11.005  14.075  69.224  1.00  0.00    -0.242 A  
HETATM   19  N   UNL     1     -12.020  12.239  70.638  1.00  0.00    -0.503 NA 
HETATM   20  N   UNL     1     -11.969  10.904  70.754  1.00  0.00    -0.344 NA 
HETATM   21  H   UNL     1     -12.592  12.823  71.248  1.00  0.00     0.000 HD 
HETATM   22  C   UNL     1     -11.147  10.515  69.769  1.00  0.00    -0.295 A  
BRANCH  22  23
HETATM   23  C   UNL     1     -10.875   9.127  69.533  1.00  0.00    -0.194 C  
HETATM   24  C   UNL     1     -10.341   8.262  70.414  1.00  0.00    -0.214 C  
BRANCH  24  25
HETATM   25  C   UNL     1      -9.979   6.873  70.103  1.00  0.00    -0.178 A  
HETATM   26  C   UNL     1      -9.279   6.584  68.934  1.00  0.00    -0.129 A  
HETATM   27  C   UNL     1      -9.013   5.254  68.618  1.00  0.00    -0.120 A  
HETATM   28  C   UNL     1      -9.448   4.252  69.475  1.00  0.00    -0.257 A  
HETATM   29  C   UNL     1     -10.123   4.626  70.624  1.00  0.00    -0.191 A  
HETATM   30  N   UNL     1     -10.393   5.908  70.956  1.00  0.00    -0.214 NA 
ENDBRANCH  24  25
ENDBRANCH  22  23
ENDBRANCH  12  13
ENDBRANCH   7  12
ENDBRANCH   3   6
TORSDOF 5
ENDMDL
MODEL      136
REMARK 921   NORMALIZED FREE ENERGY PREDICTED BY IDOCK:   -4.25 KCAL/MOL
REMARK 922        TOTAL FREE ENERGY PREDICTED BY IDOCK:   -6.51 KCAL/MOL
REMARK 923 INTER-LIGAND FREE ENERGY PREDICTED BY IDOCK:   -5.56 KCAL/MOL
REMARK 924 INTRA-LIGAND FREE ENERGY PREDICTED BY IDOCK:   -0.96 KCAL/MOL
REMARK 927      BINDING AFFINITY PREDICTED BY RF-SCORE:    0.00 PKD
ROOT
HETATM    1  C   UNL     1      -9.289  12.483  67.724  1.00  0.00    -0.198 C  
HETATM    2  N   UNL     1     -10.087  12.940  68.828  1.00  0.00    -0.421 N  
HETATM    3  C   UNL     1     -11.461  12.820  68.819  1.00  0.00    -0.304 C  
HETATM    4  H   UNL     1      -9.629  13.362  69.636  1.00  0.00     0.000 HD 
HETATM    5  O   UNL     1     -12.105  12.496  67.826  1.00  0.00    -0.409 OA 
ENDROOT
BRANCH   3   6
HETATM    6  C   UNL     1     -12.160  13.175  70.093  1.00  0.00    -0.392 A  
HETATM    7  C   UNL     1     -12.742  12.226  70.969  1.00  0.00    -0.225 A  
HETATM    8  C   UNL     1     -13.299  12.688  72.171  1.00  0.00    -0.570 A  
HETATM    9  C   UNL     1     -12.813  14.985  71.572  1.00  0.00    -0.422 A  
HETATM   10  C   UNL     1     -13.324  14.056  72.473  1.00  0.00    -0.639 A  
HETATM   11  C   UNL     1     -12.228  14.545  70.388  1.00  0.00    -0.394 A  
BRANCH   7  12
HETATM   12  S   UNL     1     -12.997  10.536  70.437  1.00  0.00    -0.001 SA 
BRANCH  12  13
HETATM   13  C   UNL     1     -11.424   9.815  70.034  1.00  0.00    -0.180 A  
HETATM   14  C   UNL     1     -11.284   9.296  68.745  1.00  0.00     0.169 A  
HETATM   15  C   UNL     1     -10.037   8.904  68.243  1.00  0.00    -0.219 A  
HETATM   16  C   UNL     1      -8.895   9.049  69.052  1.00  0.00    -0.136 A  
HETATM   17  C   UNL     1      -9.057   9.576  70.332  1.00  0.00    -0.246 A  
HETATM   18  C   UNL     1     -10.303   9.951  70.865  1.00  0.00    -0.119 A  
HETATM   19  N   UNL     1      -7.789   9.660  70.839  1.00  0.00    -0.342 NA 
HETATM   20  N   UNL     1      -6.829   9.228  70.009  1.00  0.00    -0.047 NA 
HETATM   21  H   UNL     1      -7.590  10.022  71.771  1.00  0.00     0.000 HD 
HETATM   22  C   UNL     1      -7.489   8.814  68.920  1.00  0.00    -0.083 A  
BRANCH  22  23
HETATM   23  C   UNL     1      -6.798   8.228  67.808  1.00  0.00    -0.070 C  
HETATM   24  C   UNL     1      -6.965   8.549  66.511  1.00  0.00    -0.075 C  
BRANCH  24  25
HETATM   25  C   UNL     1      -6.315   7.854  65.392  1.00  0.00    -0.041 A  
HETATM   26  C   UNL     1      -5.682   8.590  64.393  1.00  0.00    -0.064 A  
HETATM   27  C   UNL     1      -5.139   7.918  63.301  1.00  0.00    -0.042 A  
HETATM   28  C   UNL     1      -5.238   6.534  63.238  1.00  0.00    -0.026 A  
HETATM   29  C   UNL     1      -5.868   5.878  64.281  1.00  0.00    -0.025 A  
HETATM   30  N   UNL     1      -6.402   6.505  65.353  1.00  0.00    -0.037 NA 
ENDBRANCH  24  25
ENDBRANCH  22  23
ENDBRANCH  12  13
ENDBRANCH   7  12
ENDBRANCH   3   6
TORSDOF 5
ENDMDL
MODEL      137
REMARK 921   NORMALIZED FREE ENERGY PREDICTED BY IDOCK:   -4.22 KCAL/MOL
REMARK 922        TOTAL FREE ENERGY PREDICTED BY IDOCK:   -6.48 KCAL/MOL
REMARK 923 INTER-LIGAND FREE ENERGY PREDICTED BY IDOCK:   -5.99 KCAL/MOL
REMARK 924 INTRA-LIGAND FREE ENERGY PREDICTED BY IDOCK:   -0.49 KCAL/MOL
REMARK 927      BINDING AFFINITY PREDICTED BY RF-SCORE:    0.00 PKD
ROOT
HETATM    1  C   UNL     1      -9.560   4.753  67.606  1.00  0.00    -0.155 C  
HETATM    2  N   UNL     1     -10.176   5.902  68.212  1.00  0.00    -0.167 N  
HETATM    3  C   UNL     1      -9.943   6.227  69.531  1.00  0.00    -0.164 C  
HETATM    4  H   UNL     1     -10.797   6.489  67.655  1.00  0.00     0.000 HD 
HETATM    5  O   UNL     1      -9.363   5.487  70.320  1.00  0.00    -0.147 OA 
ENDROOT
BRANCH   3   6
HETATM    6  C   UNL     1     -10.504   7.535  69.994  1.00  0.00    -0.231 A  
HETATM    7  C   UNL     1     -10.126   8.792  69.462  1.00  0.00    -0.202 A  
HETATM    8  C   UNL     1     -10.788   9.937  69.932  1.00  0.00    -0.316 A  
HETATM    9  C   UNL     1     -12.072   8.611  71.502  1.00  0.00    -0.369 A  
HETATM   10  C   UNL     1     -11.760   9.844  70.937  1.00  0.00    -0.449 A  
HETATM   11  C   UNL     1     -11.450   7.459  71.028  1.00  0.00    -0.307 A  
BRANCH   7  12
HETATM   12  S   UNL     1      -8.673   8.941  68.427  1.00  0.00    -0.134 SA 
BRANCH  12  13
HETATM   13  C   UNL     1      -8.046  10.599  68.552  1.00  0.00    -0.125 A  
HETATM   14  C   UNL     1      -8.695  11.573  67.790  1.00  0.00    -0.142 A  
HETATM   15  C   UNL     1      -8.436  12.938  67.968  1.00  0.00    -0.178 A  
HETATM   16  C   UNL     1      -7.509  13.338  68.948  1.00  0.00     0.002 A  
HETATM   17  C   UNL     1      -6.879  12.350  69.702  1.00  0.00     0.149 A  
HETATM   18  C   UNL     1      -7.105  10.973  69.521  1.00  0.00    -0.113 A  
HETATM   19  N   UNL     1      -6.106  13.033  70.600  1.00  0.00    -0.457 NA 
HETATM   20  N   UNL     1      -6.173  14.368  70.488  1.00  0.00    -0.182 NA 
HETATM   21  H   UNL     1      -5.527  12.566  71.298  1.00  0.00     0.000 HD 
HETATM   22  C   UNL     1      -7.001  14.575  69.456  1.00  0.00    -0.147 A  
BRANCH  22  23
HETATM   23  C   UNL     1      -7.289  15.901  68.989  1.00  0.00    -0.185 C  
HETATM   24  C   UNL     1      -8.129  16.224  67.988  1.00  0.00    -0.150 C  
BRANCH  24  25
HETATM   25  C   UNL     1      -8.319  17.585  67.469  1.00  0.00    -0.215 A  
HETATM   26  C   UNL     1      -9.390  18.354  67.916  1.00  0.00    -0.291 A  
HETATM   27  C   UNL     1      -9.599  19.612  67.355  1.00  0.00    -0.455 A  
HETATM   28  C   UNL     1      -8.733  20.068  66.370  1.00  0.00    -0.364 A  
HETATM   29  C   UNL     1      -7.685  19.247  65.994  1.00  0.00    -0.277 A  
HETATM   30  N   UNL     1      -7.457  18.023  66.522  1.00  0.00    -0.224 NA 
ENDBRANCH  24  25
ENDBRANCH  22  23
ENDBRANCH  12  13
ENDBRANCH   7  12
ENDBRANCH   3   6
TORSDOF 5
ENDMDL
MODEL      138
REMARK 921   NORMALIZED FREE ENERGY PREDICTED BY IDOCK:   -4.22 KCAL/MOL
REMARK 922        TOTAL FREE ENERGY PREDICTED BY IDOCK:   -6.48 KCAL/MOL
REMARK 923 INTER-LIGAND FREE ENERGY PREDICTED BY IDOCK:   -5.40 KCAL/MOL
REMARK 924 INTRA-LIGAND FREE ENERGY PREDICTED BY IDOCK:   -1.08 KCAL/MOL
REMARK 927      BINDING AFFINITY PREDICTED BY RF-SCORE:    0.00 PKD
ROOT
HETATM    1  C   UNL     1      -7.787   7.031  65.977  1.00  0.00    -0.104 C  
HETATM    2  N   UNL     1      -8.103   7.621  67.250  1.00  0.00    -0.117 N  
HETATM    3  C   UNL     1      -9.258   7.292  67.926  1.00  0.00    -0.131 C  
HETATM    4  H   UNL     1      -7.459   8.297  67.661  1.00  0.00     0.000 HD 
HETATM    5  O   UNL     1     -10.169   6.636  67.431  1.00  0.00    -0.152 OA 
ENDROOT
BRANCH   3   6
HETATM    6  C   UNL     1      -9.388   7.843  69.311  1.00  0.00    -0.148 A  
HETATM    7  C   UNL     1     -10.186   8.964  69.646  1.00  0.00    -0.206 A  
HETATM    8  C   UNL     1     -10.282   9.329  70.998  1.00  0.00    -0.384 A  
HETATM    9  C   UNL     1      -8.731   7.579  71.633  1.00  0.00    -0.126 A  
HETATM   10  C   UNL     1      -9.567   8.634  71.983  1.00  0.00    -0.385 A  
HETATM   11  C   UNL     1      -8.645   7.181  70.301  1.00  0.00    -0.143 A  
BRANCH   7  12
HETATM   12  S   UNL     1     -10.830  10.037  68.366  1.00  0.00    -0.217 SA 
BRANCH  12  13
HETATM   13  C   UNL     1      -9.710  11.397  68.139  1.00  0.00    -0.192 A  
HETATM   14  C   UNL     1     -10.265  12.679  68.174  1.00  0.00    -0.240 A  
HETATM   15  C   UNL     1      -9.464  13.825  68.226  1.00  0.00    -0.214 A  
HETATM   16  C   UNL     1      -8.064  13.683  68.257  1.00  0.00    -0.155 A  
HETATM   17  C   UNL     1      -7.532  12.396  68.229  1.00  0.00    -0.124 A  
HETATM   18  C   UNL     1      -8.318  11.232  68.150  1.00  0.00    -0.143 A  
HETATM   19  N   UNL     1      -6.180  12.573  68.341  1.00  0.00    -0.055 NA 
HETATM   20  N   UNL     1      -5.793  13.854  68.428  1.00  0.00    -0.093 NA 
HETATM   21  H   UNL     1      -5.521  11.795  68.356  1.00  0.00     0.000 HD 
HETATM   22  C   UNL     1      -6.932  14.554  68.342  1.00  0.00    -0.107 A  
BRANCH  22  23
HETATM   23  C   UNL     1      -6.925  15.988  68.346  1.00  0.00    -0.121 C  
HETATM   24  C   UNL     1      -6.862  16.785  67.263  1.00  0.00    -0.205 C  
BRANCH  24  25
HETATM   25  C   UNL     1      -6.752  18.249  67.312  1.00  0.00    -0.195 A  
HETATM   26  C   UNL     1      -5.929  18.851  68.260  1.00  0.00    -0.218 A  
HETATM   27  C   UNL     1      -5.897  20.241  68.342  1.00  0.00    -0.294 A  
HETATM   28  C   UNL     1      -6.682  20.990  67.475  1.00  0.00    -0.428 A  
HETATM   29  C   UNL     1      -7.459  20.313  66.551  1.00  0.00    -0.259 A  
HETATM   30  N   UNL     1      -7.508  18.966  66.449  1.00  0.00    -0.244 NA 
ENDBRANCH  24  25
ENDBRANCH  22  23
ENDBRANCH  12  13
ENDBRANCH   7  12
ENDBRANCH   3   6
TORSDOF 5
ENDMDL
MODEL      139
REMARK 921   NORMALIZED FREE ENERGY PREDICTED BY IDOCK:   -4.20 KCAL/MOL
REMARK 922        TOTAL FREE ENERGY PREDICTED BY IDOCK:   -6.45 KCAL/MOL
REMARK 923 INTER-LIGAND FREE ENERGY PREDICTED BY IDOCK:   -6.29 KCAL/MOL
REMARK 924 INTRA-LIGAND FREE ENERGY PREDICTED BY IDOCK:   -0.16 KCAL/MOL
REMARK 927      BINDING AFFINITY PREDICTED BY RF-SCORE:    0.00 PKD
ROOT
HETATM    1  C   UNL     1      -8.478   4.496  67.883  1.00  0.00    -0.102 C  
HETATM    2  N   UNL     1      -7.838   5.641  68.471  1.00  0.00    -0.095 N  
HETATM    3  C   UNL     1      -8.024   6.908  67.959  1.00  0.00    -0.115 C  
HETATM    4  H   UNL     1      -7.234   5.515  69.283  1.00  0.00     0.000 HD 
HETATM    5  O   UNL     1      -8.580   7.130  66.888  1.00  0.00    -0.119 OA 
ENDROOT
BRANCH   3   6
HETATM    6  C   UNL     1      -7.443   8.031  68.758  1.00  0.00    -0.091 A  
HETATM    7  C   UNL     1      -8.216   8.973  69.480  1.00  0.00    -0.114 A  
HETATM    8  C   UNL     1      -7.542   9.931  70.253  1.00  0.00    -0.172 A  
HETATM    9  C   UNL     1      -5.394   9.099  69.502  1.00  0.00    -0.035 A  
HETATM   10  C   UNL     1      -6.142   9.985  70.271  1.00  0.00    -0.082 A  
HETATM   11  C   UNL     1      -6.042   8.121  68.752  1.00  0.00    -0.044 A  
BRANCH   7  12
HETATM   12  S   UNL     1      -9.980   9.105  69.202  1.00  0.00    -0.194 SA 
BRANCH  12  13
HETATM   13  C   UNL     1     -10.327  10.682  68.459  1.00  0.00    -0.183 A  
HETATM   14  C   UNL     1      -9.334  11.658  68.567  1.00  0.00    -0.169 A  
HETATM   15  C   UNL     1      -9.399  12.855  67.842  1.00  0.00    -0.208 A  
HETATM   16  C   UNL     1     -10.486  13.073  66.975  1.00  0.00    -0.249 A  
HETATM   17  C   UNL     1     -11.461  12.083  66.878  1.00  0.00    -0.337 A  
HETATM   18  C   UNL     1     -11.428  10.886  67.616  1.00  0.00    -0.281 A  
HETATM   19  N   UNL     1     -12.331  12.540  65.926  1.00  0.00    -0.603 NA 
HETATM   20  N   UNL     1     -12.011  13.735  65.410  1.00  0.00    -0.358 NA 
HETATM   21  H   UNL     1     -13.155  12.015  65.633  1.00  0.00     0.000 HD 
HETATM   22  C   UNL     1     -10.901  14.098  66.066  1.00  0.00    -0.297 A  
BRANCH  22  23
HETATM   23  C   UNL     1     -10.273  15.364  65.823  1.00  0.00    -0.378 C  
HETATM   24  C   UNL     1      -9.092  15.773  66.323  1.00  0.00    -0.373 C  
BRANCH  24  25
HETATM   25  C   UNL     1      -8.530  17.117  66.136  1.00  0.00    -0.203 A  
HETATM   26  C   UNL     1      -7.152  17.281  66.012  1.00  0.00    -0.200 A  
HETATM   27  C   UNL     1      -6.633  18.569  65.914  1.00  0.00    -0.299 A  
HETATM   28  C   UNL     1      -7.499  19.655  65.937  1.00  0.00    -0.327 A  
HETATM   29  C   UNL     1      -8.855  19.403  66.047  1.00  0.00    -0.158 A  
HETATM   30  N   UNL     1      -9.387  18.163  66.142  1.00  0.00    -0.505 NA 
ENDBRANCH  24  25
ENDBRANCH  22  23
ENDBRANCH  12  13
ENDBRANCH   7  12
ENDBRANCH   3   6
TORSDOF 5
ENDMDL
MODEL      140
REMARK 921   NORMALIZED FREE ENERGY PREDICTED BY IDOCK:   -4.19 KCAL/MOL
REMARK 922        TOTAL FREE ENERGY PREDICTED BY IDOCK:   -6.44 KCAL/MOL
REMARK 923 INTER-LIGAND FREE ENERGY PREDICTED BY IDOCK:   -5.72 KCAL/MOL
REMARK 924 INTRA-LIGAND FREE ENERGY PREDICTED BY IDOCK:   -0.72 KCAL/MOL
REMARK 927      BINDING AFFINITY PREDICTED BY RF-SCORE:    0.00 PKD
ROOT
HETATM    1  C   UNL     1      -7.496   4.127  73.868  1.00  0.00    -0.076 C  
HETATM    2  N   UNL     1      -7.144   4.190  72.475  1.00  0.00    -0.058 N  
HETATM    3  C   UNL     1      -7.319   3.108  71.640  1.00  0.00    -0.040 C  
HETATM    4  H   UNL     1      -6.756   5.055  72.097  1.00  0.00     0.000 HD 
HETATM    5  O   UNL     1      -7.604   1.983  72.041  1.00  0.00    -0.039 OA 
ENDROOT
BRANCH   3   6
HETATM    6  C   UNL     1      -7.074   3.354  70.185  1.00  0.00    -0.041 A  
HETATM    7  C   UNL     1      -7.947   4.093  69.349  1.00  0.00    -0.056 A  
HETATM    8  C   UNL     1      -7.559   4.316  68.019  1.00  0.00    -0.068 A  
HETATM    9  C   UNL     1      -5.551   2.995  68.330  1.00  0.00    -0.018 A  
HETATM   10  C   UNL     1      -6.365   3.779  67.518  1.00  0.00    -0.037 A  
HETATM   11  C   UNL     1      -5.902   2.787  69.661  1.00  0.00    -0.023 A  
BRANCH   7  12
HETATM   12  S   UNL     1      -9.604   4.495  69.893  1.00  0.00    -0.214 SA 
BRANCH  12  13
HETATM   13  C   UNL     1      -9.874   6.237  69.674  1.00  0.00    -0.163 A  
HETATM   14  C   UNL     1     -10.043   6.685  68.362  1.00  0.00    -0.163 A  
HETATM   15  C   UNL     1     -10.476   7.986  68.080  1.00  0.00    -0.222 A  
HETATM   16  C   UNL     1     -10.760   8.861  69.146  1.00  0.00    -0.162 A  
HETATM   17  C   UNL     1     -10.592   8.390  70.446  1.00  0.00    -0.223 A  
HETATM   18  C   UNL     1     -10.133   7.096  70.751  1.00  0.00    -0.197 A  
HETATM   19  N   UNL     1     -11.006   9.420  71.247  1.00  0.00    -0.345 NA 
HETATM   20  N   UNL     1     -11.415  10.511  70.583  1.00  0.00    -0.336 NA 
HETATM   21  H   UNL     1     -11.003   9.362  72.265  1.00  0.00     0.000 HD 
HETATM   22  C   UNL     1     -11.238  10.202  69.292  1.00  0.00    -0.196 A  
BRANCH  22  23
HETATM   23  C   UNL     1     -11.521  11.151  68.255  1.00  0.00    -0.373 C  
HETATM   24  C   UNL     1     -10.611  11.812  67.514  1.00  0.00    -0.247 C  
BRANCH  24  25
HETATM   25  C   UNL     1     -10.937  12.855  66.532  1.00  0.00    -0.275 A  
HETATM   26  C   UNL     1     -10.004  13.846  66.239  1.00  0.00    -0.315 A  
HETATM   27  C   UNL     1     -10.359  14.869  65.364  1.00  0.00    -0.413 A  
HETATM   28  C   UNL     1     -11.630  14.873  64.803  1.00  0.00    -0.410 A  
HETATM   29  C   UNL     1     -12.490  13.841  65.135  1.00  0.00    -0.450 A  
HETATM   30  N   UNL     1     -12.171  12.835  65.980  1.00  0.00    -0.559 NA 
ENDBRANCH  24  25
ENDBRANCH  22  23
ENDBRANCH  12  13
ENDBRANCH   7  12
ENDBRANCH   3   6
TORSDOF 5
ENDMDL
MODEL      141
REMARK 921   NORMALIZED FREE ENERGY PREDICTED BY IDOCK:   -4.15 KCAL/MOL
REMARK 922        TOTAL FREE ENERGY PREDICTED BY IDOCK:   -6.38 KCAL/MOL
REMARK 923 INTER-LIGAND FREE ENERGY PREDICTED BY IDOCK:   -6.54 KCAL/MOL
REMARK 924 INTRA-LIGAND FREE ENERGY PREDICTED BY IDOCK:    0.16 KCAL/MOL
REMARK 927      BINDING AFFINITY PREDICTED BY RF-SCORE:    0.00 PKD
ROOT
HETATM    1  C   UNL     1      -6.926  12.406  67.181  1.00  0.00    -0.077 C  
HETATM    2  N   UNL     1      -8.245  12.313  66.617  1.00  0.00    -0.387 N  
HETATM    3  C   UNL     1      -8.962  13.441  66.279  1.00  0.00     0.132 C  
HETATM    4  H   UNL     1      -8.660  11.394  66.463  1.00  0.00     0.000 HD 
HETATM    5  O   UNL     1      -8.623  14.578  66.593  1.00  0.00    -0.188 OA 
ENDROOT
BRANCH   3   6
HETATM    6  C   UNL     1     -10.246  13.210  65.547  1.00  0.00    -0.297 A  
HETATM    7  C   UNL     1     -11.526  13.495  66.082  1.00  0.00    -0.325 A  
HETATM    8  C   UNL     1     -12.646  13.304  65.259  1.00  0.00    -0.528 A  
HETATM    9  C   UNL     1     -11.250  12.453  63.470  1.00  0.00    -0.540 A  
HETATM   10  C   UNL     1     -12.506  12.797  63.960  1.00  0.00    -0.445 A  
HETATM   11  C   UNL     1     -10.122  12.664  64.259  1.00  0.00    -0.292 A  
BRANCH   7  12
HETATM   12  S   UNL     1     -11.726  13.828  67.829  1.00  0.00    -0.373 SA 
BRANCH  12  13
HETATM   13  C   UNL     1     -11.440  12.328  68.737  1.00  0.00    -0.311 A  
HETATM   14  C   UNL     1     -10.191  11.724  68.573  1.00  0.00    -0.215 A  
HETATM   15  C   UNL     1      -9.772  10.670  69.393  1.00  0.00    -0.141 A  
HETATM   16  C   UNL     1     -10.624  10.216  70.417  1.00  0.00    -0.287 A  
HETATM   17  C   UNL     1     -11.861  10.838  70.568  1.00  0.00    -0.356 A  
HETATM   18  C   UNL     1     -12.313  11.880  69.738  1.00  0.00    -0.136 A  
HETATM   19  N   UNL     1     -12.421  10.242  71.664  1.00  0.00    -0.405 NA 
HETATM   20  N   UNL     1     -11.664   9.289  72.226  1.00  0.00    -0.157 NA 
HETATM   21  H   UNL     1     -13.340  10.500  72.025  1.00  0.00     0.000 HD 
HETATM   22  C   UNL     1     -10.571   9.232  71.454  1.00  0.00    -0.347 A  
BRANCH  22  23
HETATM   23  C   UNL     1      -9.529   8.279  71.709  1.00  0.00    -0.274 C  
HETATM   24  C   UNL     1      -9.190   7.244  70.918  1.00  0.00    -0.155 C  
BRANCH  24  25
HETATM   25  C   UNL     1      -8.186   6.228  71.263  1.00  0.00    -0.122 A  
HETATM   26  C   UNL     1      -7.697   5.375  70.277  1.00  0.00    -0.077 A  
HETATM   27  C   UNL     1      -6.804   4.369  70.638  1.00  0.00    -0.036 A  
HETATM   28  C   UNL     1      -6.422   4.244  71.967  1.00  0.00    -0.022 A  
HETATM   29  C   UNL     1      -6.943   5.144  72.881  1.00  0.00    -0.079 A  
HETATM   30  N   UNL     1      -7.809   6.130  72.558  1.00  0.00    -0.103 NA 
ENDBRANCH  24  25
ENDBRANCH  22  23
ENDBRANCH  12  13
ENDBRANCH   7  12
ENDBRANCH   3   6
TORSDOF 5
ENDMDL
MODEL      142
REMARK 921   NORMALIZED FREE ENERGY PREDICTED BY IDOCK:   -4.12 KCAL/MOL
REMARK 922        TOTAL FREE ENERGY PREDICTED BY IDOCK:   -6.35 KCAL/MOL
REMARK 923 INTER-LIGAND FREE ENERGY PREDICTED BY IDOCK:   -5.65 KCAL/MOL
REMARK 924 INTRA-LIGAND FREE ENERGY PREDICTED BY IDOCK:   -0.69 KCAL/MOL
REMARK 927      BINDING AFFINITY PREDICTED BY RF-SCORE:    0.00 PKD
ROOT
HETATM    1  C   UNL     1     -10.911  10.619  70.126  1.00  0.00    -0.222 C  
HETATM    2  N   UNL     1     -10.314  11.557  69.215  1.00  0.00    -0.426 N  
HETATM    3  C   UNL     1     -11.083  12.308  68.352  1.00  0.00    -0.243 C  
HETATM    4  H   UNL     1      -9.300  11.669  69.207  1.00  0.00     0.000 HD 
HETATM    5  O   UNL     1     -12.279  12.111  68.166  1.00  0.00    -0.388 OA 
ENDROOT
BRANCH   3   6
HETATM    6  C   UNL     1     -10.360  13.365  67.579  1.00  0.00    -0.226 A  
HETATM    7  C   UNL     1     -10.457  13.524  66.174  1.00  0.00    -0.296 A  
HETATM    8  C   UNL     1      -9.787  14.606  65.583  1.00  0.00    -0.354 A  
HETATM    9  C   UNL     1      -8.860  15.267  67.722  1.00  0.00    -0.174 A  
HETATM   10  C   UNL     1      -9.004  15.477  66.354  1.00  0.00    -0.359 A  
HETATM   11  C   UNL     1      -9.540  14.218  68.333  1.00  0.00    -0.221 A  
BRANCH   7  12
HETATM   12  S   UNL     1     -11.181  12.239  65.162  1.00  0.00    -0.333 SA 
BRANCH  12  13
HETATM   13  C   UNL     1     -10.033  10.889  65.038  1.00  0.00    -0.298 A  
HETATM   14  C   UNL     1     -10.143   9.882  66.000  1.00  0.00    -0.314 A  
HETATM   15  C   UNL     1      -9.447   8.673  65.880  1.00  0.00    -0.243 A  
HETATM   16  C   UNL     1      -8.627   8.461  64.757  1.00  0.00    -0.077 A  
HETATM   17  C   UNL     1      -8.538   9.476  63.806  1.00  0.00    -0.211 A  
HETATM   18  C   UNL     1      -9.207  10.708  63.920  1.00  0.00    -0.271 A  
HETATM   19  N   UNL     1      -7.743   8.962  62.818  1.00  0.00    -0.114 NA 
HETATM   20  N   UNL     1      -7.304   7.716  63.050  1.00  0.00    -0.093 NA 
HETATM   21  H   UNL     1      -7.502   9.483  61.975  1.00  0.00     0.000 HD 
HETATM   22  C   UNL     1      -7.806   7.403  64.252  1.00  0.00    -0.127 A  
BRANCH  22  23
HETATM   23  C   UNL     1      -7.511   6.146  64.877  1.00  0.00    -0.083 C  
HETATM   24  C   UNL     1      -8.367   5.399  65.599  1.00  0.00    -0.130 C  
BRANCH  24  25
HETATM   25  C   UNL     1      -8.000   4.168  66.311  1.00  0.00    -0.098 A  
HETATM   26  C   UNL     1      -7.065   4.216  67.343  1.00  0.00    -0.067 A  
HETATM   27  C   UNL     1      -6.674   3.028  67.954  1.00  0.00    -0.044 A  
HETATM   28  C   UNL     1      -7.226   1.829  67.524  1.00  0.00    -0.050 A  
HETATM   29  C   UNL     1      -8.161   1.871  66.504  1.00  0.00    -0.079 A  
HETATM   30  N   UNL     1      -8.561   3.010  65.895  1.00  0.00    -0.111 NA 
ENDBRANCH  24  25
ENDBRANCH  22  23
ENDBRANCH  12  13
ENDBRANCH   7  12
ENDBRANCH   3   6
TORSDOF 5
ENDMDL
MODEL      143
REMARK 921   NORMALIZED FREE ENERGY PREDICTED BY IDOCK:   -4.11 KCAL/MOL
REMARK 922        TOTAL FREE ENERGY PREDICTED BY IDOCK:   -6.33 KCAL/MOL
REMARK 923 INTER-LIGAND FREE ENERGY PREDICTED BY IDOCK:   -5.59 KCAL/MOL
REMARK 924 INTRA-LIGAND FREE ENERGY PREDICTED BY IDOCK:   -0.74 KCAL/MOL
REMARK 927      BINDING AFFINITY PREDICTED BY RF-SCORE:    0.00 PKD
ROOT
HETATM    1  C   UNL     1     -11.464  12.714  63.561  1.00  0.00    -0.491 C  
HETATM    2  N   UNL     1     -10.277  12.673  64.371  1.00  0.00    -0.485 N  
HETATM    3  C   UNL     1     -10.255  12.011  65.580  1.00  0.00    -0.258 C  
HETATM    4  H   UNL     1      -9.433  13.145  64.045  1.00  0.00     0.000 HD 
HETATM    5  O   UNL     1     -11.262  11.576  66.132  1.00  0.00    -0.286 OA 
ENDROOT
BRANCH   3   6
HETATM    6  C   UNL     1      -8.920  11.898  66.244  1.00  0.00    -0.157 A  
HETATM    7  C   UNL     1      -7.927  10.959  65.873  1.00  0.00    -0.105 A  
HETATM    8  C   UNL     1      -6.686  11.012  66.526  1.00  0.00    -0.135 A  
HETATM    9  C   UNL     1      -7.461  12.807  67.958  1.00  0.00    -0.122 A  
HETATM   10  C   UNL     1      -6.453  11.937  67.554  1.00  0.00    -0.111 A  
HETATM   11  C   UNL     1      -8.689  12.792  67.301  1.00  0.00    -0.200 A  
BRANCH   7  12
HETATM   12  S   UNL     1      -8.332   9.584  64.801  1.00  0.00    -0.163 SA 
BRANCH  12  13
HETATM   13  C   UNL     1      -8.360   8.092  65.766  1.00  0.00    -0.138 A  
HETATM   14  C   UNL     1      -8.763   8.214  67.098  1.00  0.00    -0.130 A  
HETATM   15  C   UNL     1      -9.032   7.091  67.890  1.00  0.00    -0.122 A  
HETATM   16  C   UNL     1      -8.907   5.808  67.326  1.00  0.00    -0.106 A  
HETATM   17  C   UNL     1      -8.511   5.710  65.994  1.00  0.00    -0.132 A  
HETATM   18  C   UNL     1      -8.210   6.823  65.189  1.00  0.00    -0.114 A  
HETATM   19  N   UNL     1      -8.547   4.371  65.715  1.00  0.00    -0.114 NA 
HETATM   20  N   UNL     1      -8.920   3.599  66.746  1.00  0.00    -0.132 NA 
HETATM   21  H   UNL     1      -8.310   3.991  64.799  1.00  0.00     0.000 HD 
HETATM   22  C   UNL     1      -9.110   4.458  67.755  1.00  0.00    -0.127 A  
BRANCH  22  23
HETATM   23  C   UNL     1      -9.474   3.999  69.065  1.00  0.00    -0.243 C  
HETATM   24  C   UNL     1      -9.852   4.771  70.100  1.00  0.00    -0.308 C  
BRANCH  24  25
HETATM   25  C   UNL     1     -10.117   4.274  71.456  1.00  0.00    -0.135 A  
HETATM   26  C   UNL     1      -9.748   2.977  71.804  1.00  0.00    -0.231 A  
HETATM   27  C   UNL     1     -10.076   2.498  73.069  1.00  0.00    -0.206 A  
HETATM   28  C   UNL     1     -10.758   3.324  73.952  1.00  0.00    -0.291 A  
HETATM   29  C   UNL     1     -11.074   4.605  73.533  1.00  0.00    -0.331 A  
HETATM   30  N   UNL     1     -10.766   5.097  72.312  1.00  0.00    -0.218 NA 
ENDBRANCH  24  25
ENDBRANCH  22  23
ENDBRANCH  12  13
ENDBRANCH   7  12
ENDBRANCH   3   6
TORSDOF 5
ENDMDL
MODEL      144
REMARK 921   NORMALIZED FREE ENERGY PREDICTED BY IDOCK:   -4.09 KCAL/MOL
REMARK 922        TOTAL FREE ENERGY PREDICTED BY IDOCK:   -6.30 KCAL/MOL
REMARK 923 INTER-LIGAND FREE ENERGY PREDICTED BY IDOCK:   -5.44 KCAL/MOL
REMARK 924 INTRA-LIGAND FREE ENERGY PREDICTED BY IDOCK:   -0.86 KCAL/MOL
REMARK 927      BINDING AFFINITY PREDICTED BY RF-SCORE:    0.00 PKD
ROOT
HETATM    1  C   UNL     1     -13.018  14.024  65.472  1.00  0.00    -0.316 C  
HETATM    2  N   UNL     1     -11.893  13.846  66.349  1.00  0.00    -0.389 N  
HETATM    3  C   UNL     1     -10.633  14.280  65.996  1.00  0.00    -0.300 C  
HETATM    4  H   UNL     1     -12.029  13.389  67.250  1.00  0.00     0.000 HD 
HETATM    5  O   UNL     1     -10.342  14.671  64.870  1.00  0.00    -0.411 OA 
ENDROOT
BRANCH   3   6
HETATM    6  C   UNL     1      -9.585  14.190  67.061  1.00  0.00    -0.264 A  
HETATM    7  C   UNL     1      -8.694  13.098  67.204  1.00  0.00    -0.213 A  
HETATM    8  C   UNL     1      -7.706  13.176  68.198  1.00  0.00    -0.143 A  
HETATM    9  C   UNL     1      -8.561  15.314  68.952  1.00  0.00    -0.207 A  
HETATM   10  C   UNL     1      -7.635  14.281  69.058  1.00  0.00    -0.084 A  
HETATM   11  C   UNL     1      -9.530  15.271  67.953  1.00  0.00    -0.197 A  
BRANCH   7  12
HETATM   12  S   UNL     1      -8.988  11.564  66.331  1.00  0.00    -0.194 SA 
BRANCH  12  13
HETATM   13  C   UNL     1      -8.526  10.207  67.381  1.00  0.00    -0.122 A  
HETATM   14  C   UNL     1      -9.428   9.860  68.391  1.00  0.00    -0.142 A  
HETATM   15  C   UNL     1      -9.280   8.684  69.135  1.00  0.00    -0.152 A  
HETATM   16  C   UNL     1      -8.204   7.823  68.851  1.00  0.00    -0.127 A  
HETATM   17  C   UNL     1      -7.322   8.184  67.836  1.00  0.00    -0.096 A  
HETATM   18  C   UNL     1      -7.436   9.374  67.094  1.00  0.00    -0.091 A  
HETATM   19  N   UNL     1      -6.443   7.139  67.747  1.00  0.00    -0.046 NA 
HETATM   20  N   UNL     1      -6.672   6.145  68.616  1.00  0.00    -0.058 NA 
HETATM   21  H   UNL     1      -5.676   7.118  67.074  1.00  0.00     0.000 HD 
HETATM   22  C   UNL     1      -7.727   6.561  69.329  1.00  0.00    -0.101 A  
BRANCH  22  23
HETATM   23  C   UNL     1      -8.250   5.777  70.410  1.00  0.00    -0.107 C  
HETATM   24  C   UNL     1      -9.489   5.256  70.486  1.00  0.00    -0.222 C  
BRANCH  24  25
HETATM   25  C   UNL     1     -10.023   4.547  71.656  1.00  0.00    -0.196 A  
HETATM   26  C   UNL     1      -9.759   3.190  71.825  1.00  0.00    -0.234 A  
HETATM   27  C   UNL     1     -10.338   2.518  72.898  1.00  0.00    -0.239 A  
HETATM   28  C   UNL     1     -11.158   3.216  73.774  1.00  0.00    -0.288 A  
HETATM   29  C   UNL     1     -11.356   4.566  73.543  1.00  0.00    -0.268 A  
HETATM   30  N   UNL     1     -10.806   5.244  72.511  1.00  0.00    -0.238 NA 
ENDBRANCH  24  25
ENDBRANCH  22  23
ENDBRANCH  12  13
ENDBRANCH   7  12
ENDBRANCH   3   6
TORSDOF 5
ENDMDL
MODEL      145
REMARK 921   NORMALIZED FREE ENERGY PREDICTED BY IDOCK:   -4.07 KCAL/MOL
REMARK 922        TOTAL FREE ENERGY PREDICTED BY IDOCK:   -6.28 KCAL/MOL
REMARK 923 INTER-LIGAND FREE ENERGY PREDICTED BY IDOCK:   -5.49 KCAL/MOL
REMARK 924 INTRA-LIGAND FREE ENERGY PREDICTED BY IDOCK:   -0.79 KCAL/MOL
REMARK 927      BINDING AFFINITY PREDICTED BY RF-SCORE:    0.00 PKD
ROOT
HETATM    1  C   UNL     1      -8.903   4.240  68.915  1.00  0.00    -0.100 C  
HETATM    2  N   UNL     1      -8.710   5.151  70.010  1.00  0.00    -0.105 N  
HETATM    3  C   UNL     1      -9.329   4.953  71.226  1.00  0.00    -0.150 C  
HETATM    4  H   UNL     1      -8.102   5.961  69.886  1.00  0.00     0.000 HD 
HETATM    5  O   UNL     1     -10.210   4.118  71.409  1.00  0.00    -0.138 OA 
ENDROOT
BRANCH   3   6
HETATM    6  C   UNL     1      -8.915   5.872  72.332  1.00  0.00    -0.137 A  
HETATM    7  C   UNL     1      -9.764   6.847  72.911  1.00  0.00    -0.160 A  
HETATM    8  C   UNL     1      -9.275   7.591  73.995  1.00  0.00    -0.279 A  
HETATM    9  C   UNL     1      -7.118   6.498  73.838  1.00  0.00    -0.081 A  
HETATM   10  C   UNL     1      -7.966   7.410  74.461  1.00  0.00    -0.205 A  
HETATM   11  C   UNL     1      -7.593   5.728  72.780  1.00  0.00    -0.097 A  
BRANCH   7  12
HETATM   12  S   UNL     1     -11.302   7.300  72.115  1.00  0.00    -0.276 SA 
BRANCH  12  13
HETATM   13  C   UNL     1     -10.952   8.425  70.786  1.00  0.00    -0.247 A  
HETATM   14  C   UNL     1     -11.533   9.693  70.867  1.00  0.00    -0.427 A  
HETATM   15  C   UNL     1     -11.160  10.729  70.002  1.00  0.00    -0.327 A  
HETATM   16  C   UNL     1     -10.167  10.491  69.035  1.00  0.00    -0.233 A  
HETATM   17  C   UNL     1      -9.595   9.222  68.976  1.00  0.00    -0.159 A  
HETATM   18  C   UNL     1      -9.974   8.160  69.818  1.00  0.00    -0.191 A  
HETATM   19  N   UNL     1      -8.633   9.315  68.008  1.00  0.00    -0.121 NA 
HETATM   20  N   UNL     1      -8.540  10.523  67.432  1.00  0.00    -0.122 NA 
HETATM   21  H   UNL     1      -8.037   8.531  67.745  1.00  0.00     0.000 HD 
HETATM   22  C   UNL     1      -9.497  11.250  68.023  1.00  0.00    -0.173 A  
BRANCH  22  23
HETATM   23  C   UNL     1      -9.747  12.607  67.633  1.00  0.00    -0.197 C  
HETATM   24  C   UNL     1     -10.526  13.009  66.611  1.00  0.00    -0.271 C  
BRANCH  24  25
HETATM   25  C   UNL     1     -10.675  14.404  66.177  1.00  0.00    -0.304 A  
HETATM   26  C   UNL     1     -10.321  15.440  67.037  1.00  0.00    -0.280 A  
HETATM   27  C   UNL     1     -10.542  16.755  66.637  1.00  0.00    -0.198 A  
HETATM   28  C   UNL     1     -11.104  17.001  65.392  1.00  0.00     0.127 A  
HETATM   29  C   UNL     1     -11.412  15.915  64.591  1.00  0.00    -0.263 A  
HETATM   30  N   UNL     1     -11.207  14.628  64.953  1.00  0.00    -0.379 NA 
ENDBRANCH  24  25
ENDBRANCH  22  23
ENDBRANCH  12  13
ENDBRANCH   7  12
ENDBRANCH   3   6
TORSDOF 5
ENDMDL
MODEL      146
REMARK 921   NORMALIZED FREE ENERGY PREDICTED BY IDOCK:   -4.07 KCAL/MOL
REMARK 922        TOTAL FREE ENERGY PREDICTED BY IDOCK:   -6.28 KCAL/MOL
REMARK 923 INTER-LIGAND FREE ENERGY PREDICTED BY IDOCK:   -5.33 KCAL/MOL
REMARK 924 INTRA-LIGAND FREE ENERGY PREDICTED BY IDOCK:   -0.95 KCAL/MOL
REMARK 927      BINDING AFFINITY PREDICTED BY RF-SCORE:    0.00 PKD
ROOT
HETATM    1  C   UNL     1      -9.406   3.386  71.349  1.00  0.00    -0.137 C  
HETATM    2  N   UNL     1      -8.395   3.851  70.440  1.00  0.00    -0.057 N  
HETATM    3  C   UNL     1      -8.717   4.615  69.338  1.00  0.00    -0.082 C  
HETATM    4  H   UNL     1      -7.419   3.612  70.612  1.00  0.00     0.000 HD 
HETATM    5  O   UNL     1      -9.869   4.797  68.954  1.00  0.00    -0.169 OA 
ENDROOT
BRANCH   3   6
HETATM    6  C   UNL     1      -7.564   5.177  68.568  1.00  0.00    -0.079 A  
HETATM    7  C   UNL     1      -6.636   6.107  69.097  1.00  0.00    -0.047 A  
HETATM    8  C   UNL     1      -5.554   6.494  68.292  1.00  0.00    -0.012 A  
HETATM    9  C   UNL     1      -6.381   5.155  66.449  1.00  0.00    -0.036 A  
HETATM   10  C   UNL     1      -5.423   6.013  66.982  1.00  0.00    -0.009 A  
HETATM   11  C   UNL     1      -7.445   4.734  67.242  1.00  0.00    -0.082 A  
BRANCH   7  12
HETATM   12  S   UNL     1      -6.979   6.960  70.633  1.00  0.00    -0.064 SA 
BRANCH  12  13
HETATM   13  C   UNL     1      -8.106   8.295  70.309  1.00  0.00    -0.104 A  
HETATM   14  C   UNL     1      -7.642   9.320  69.481  1.00  0.00    -0.081 A  
HETATM   15  C   UNL     1      -8.502  10.306  68.981  1.00  0.00    -0.150 A  
HETATM   16  C   UNL     1      -9.869  10.255  69.310  1.00  0.00    -0.244 A  
HETATM   17  C   UNL     1     -10.311   9.220  70.132  1.00  0.00    -0.222 A  
HETATM   18  C   UNL     1      -9.460   8.235  70.666  1.00  0.00    -0.181 A  
HETATM   19  N   UNL     1     -11.666   9.392  70.214  1.00  0.00    -0.450 NA 
HETATM   20  N   UNL     1     -12.135  10.446  69.531  1.00  0.00    -0.127 NA 
HETATM   21  H   UNL     1     -12.270   8.769  70.751  1.00  0.00     0.000 HD 
HETATM   22  C   UNL     1     -11.043  11.011  68.998  1.00  0.00    -0.244 A  
BRANCH  22  23
HETATM   23  C   UNL     1     -11.132  12.215  68.224  1.00  0.00    -0.288 C  
HETATM   24  C   UNL     1     -11.609  12.319  66.970  1.00  0.00    -0.418 C  
BRANCH  24  25
HETATM   25  C   UNL     1     -11.588  13.551  66.170  1.00  0.00    -0.343 A  
HETATM   26  C   UNL     1     -12.136  13.556  64.890  1.00  0.00    -0.431 A  
HETATM   27  C   UNL     1     -12.037  14.712  64.118  1.00  0.00    -0.346 A  
HETATM   28  C   UNL     1     -11.401  15.828  64.645  1.00  0.00    -0.343 A  
HETATM   29  C   UNL     1     -10.898  15.743  65.932  1.00  0.00    -0.268 A  
HETATM   30  N   UNL     1     -10.981  14.636  66.703  1.00  0.00    -0.316 NA 
ENDBRANCH  24  25
ENDBRANCH  22  23
ENDBRANCH  12  13
ENDBRANCH   7  12
ENDBRANCH   3   6
TORSDOF 5
ENDMDL
MODEL      147
REMARK 921   NORMALIZED FREE ENERGY PREDICTED BY IDOCK:   -4.06 KCAL/MOL
REMARK 922        TOTAL FREE ENERGY PREDICTED BY IDOCK:   -6.27 KCAL/MOL
REMARK 923 INTER-LIGAND FREE ENERGY PREDICTED BY IDOCK:   -5.42 KCAL/MOL
REMARK 924 INTRA-LIGAND FREE ENERGY PREDICTED BY IDOCK:   -0.85 KCAL/MOL
REMARK 927      BINDING AFFINITY PREDICTED BY RF-SCORE:    0.00 PKD
ROOT
HETATM    1  C   UNL     1     -10.102   5.384  70.900  1.00  0.00    -0.219 C  
HETATM    2  N   UNL     1      -9.609   5.729  69.594  1.00  0.00    -0.148 N  
HETATM    3  C   UNL     1      -8.906   6.894  69.377  1.00  0.00    -0.136 C  
HETATM    4  H   UNL     1      -9.784   5.098  68.811  1.00  0.00     0.000 HD 
HETATM    5  O   UNL     1      -8.807   7.790  70.210  1.00  0.00    -0.142 OA 
ENDROOT
BRANCH   3   6
HETATM    6  C   UNL     1      -8.304   7.056  68.017  1.00  0.00    -0.119 A  
HETATM    7  C   UNL     1      -8.838   7.894  67.009  1.00  0.00    -0.130 A  
HETATM    8  C   UNL     1      -8.131   8.015  65.803  1.00  0.00    -0.121 A  
HETATM    9  C   UNL     1      -6.476   6.412  66.556  1.00  0.00    -0.047 A  
HETATM   10  C   UNL     1      -6.953   7.287  65.584  1.00  0.00    -0.060 A  
HETATM   11  C   UNL     1      -7.146   6.301  67.771  1.00  0.00    -0.081 A  
BRANCH   7  12
HETATM   12  S   UNL     1     -10.492   8.561  67.164  1.00  0.00    -0.254 SA 
BRANCH  12  13
HETATM   13  C   UNL     1     -10.389  10.330  67.297  1.00  0.00    -0.232 A  
HETATM   14  C   UNL     1      -9.157  10.858  67.692  1.00  0.00    -0.148 A  
HETATM   15  C   UNL     1      -8.891  12.231  67.622  1.00  0.00    -0.175 A  
HETATM   16  C   UNL     1      -9.883  13.099  67.130  1.00  0.00    -0.235 A  
HETATM   17  C   UNL     1     -11.101  12.549  66.735  1.00  0.00    -0.279 A  
HETATM   18  C   UNL     1     -11.399  11.178  66.822  1.00  0.00    -0.119 A  
HETATM   19  N   UNL     1     -11.820  13.606  66.247  1.00  0.00    -0.370 NA 
HETATM   20  N   UNL     1     -11.182  14.784  66.300  1.00  0.00    -0.342 NA 
HETATM   21  H   UNL     1     -12.764  13.507  65.874  1.00  0.00     0.000 HD 
HETATM   22  C   UNL     1     -10.005  14.501  66.873  1.00  0.00    -0.259 A  
BRANCH  22  23
HETATM   23  C   UNL     1      -9.046  15.531  67.151  1.00  0.00    -0.233 C  
HETATM   24  C   UNL     1      -8.339  15.671  68.288  1.00  0.00    -0.154 C  
BRANCH  24  25
HETATM   25  C   UNL     1      -7.443  16.798  68.577  1.00  0.00    -0.213 A  
HETATM   26  C   UNL     1      -6.100  16.562  68.863  1.00  0.00    -0.147 A  
HETATM   27  C   UNL     1      -5.285  17.636  69.210  1.00  0.00    -0.178 A  
HETATM   28  C   UNL     1      -5.828  18.913  69.259  1.00  0.00    -0.242 A  
HETATM   29  C   UNL     1      -7.168  19.063  68.946  1.00  0.00    -0.329 A  
HETATM   30  N   UNL     1      -7.982  18.039  68.603  1.00  0.00    -0.308 NA 
ENDBRANCH  24  25
ENDBRANCH  22  23
ENDBRANCH  12  13
ENDBRANCH   7  12
ENDBRANCH   3   6
TORSDOF 5
ENDMDL
MODEL      148
REMARK 921   NORMALIZED FREE ENERGY PREDICTED BY IDOCK:   -4.06 KCAL/MOL
REMARK 922        TOTAL FREE ENERGY PREDICTED BY IDOCK:   -6.27 KCAL/MOL
REMARK 923 INTER-LIGAND FREE ENERGY PREDICTED BY IDOCK:   -5.48 KCAL/MOL
REMARK 924 INTRA-LIGAND FREE ENERGY PREDICTED BY IDOCK:   -0.79 KCAL/MOL
REMARK 927      BINDING AFFINITY PREDICTED BY RF-SCORE:    0.00 PKD
ROOT
HETATM    1  C   UNL     1      -7.979  18.794  68.398  1.00  0.00    -0.334 C  
HETATM    2  N   UNL     1      -8.538  17.736  67.602  1.00  0.00    -0.228 N  
HETATM    3  C   UNL     1      -9.893  17.485  67.592  1.00  0.00    -0.291 C  
HETATM    4  H   UNL     1      -7.919  17.159  67.032  1.00  0.00     0.000 HD 
HETATM    5  O   UNL     1     -10.683  18.003  68.375  1.00  0.00    -0.285 OA 
ENDROOT
BRANCH   3   6
HETATM    6  C   UNL     1     -10.367  16.473  66.597  1.00  0.00    -0.298 A  
HETATM    7  C   UNL     1     -10.468  15.086  66.865  1.00  0.00    -0.279 A  
HETATM    8  C   UNL     1     -11.003  14.256  65.868  1.00  0.00    -0.304 A  
HETATM    9  C   UNL     1     -11.209  16.130  64.347  1.00  0.00    -0.184 A  
HETATM   10  C   UNL     1     -11.379  14.777  64.622  1.00  0.00    -0.370 A  
HETATM   11  C   UNL     1     -10.710  16.977  65.333  1.00  0.00    -0.126 A  
BRANCH   7  12
HETATM   12  S   UNL     1      -9.693  14.382  68.316  1.00  0.00    -0.226 SA 
BRANCH  12  13
HETATM   13  C   UNL     1      -9.741  12.610  68.191  1.00  0.00    -0.219 A  
HETATM   14  C   UNL     1      -8.634  11.992  67.605  1.00  0.00    -0.163 A  
HETATM   15  C   UNL     1      -8.459  10.604  67.648  1.00  0.00    -0.118 A  
HETATM   16  C   UNL     1      -9.416   9.812  68.309  1.00  0.00    -0.148 A  
HETATM   17  C   UNL     1     -10.508  10.450  68.893  1.00  0.00    -0.212 A  
HETATM   18  C   UNL     1     -10.716  11.840  68.839  1.00  0.00    -0.241 A  
HETATM   19  N   UNL     1     -11.210   9.449  69.508  1.00  0.00    -0.429 NA 
HETATM   20  N   UNL     1     -10.676   8.227  69.366  1.00  0.00    -0.195 NA 
HETATM   21  H   UNL     1     -12.069   9.618  70.032  1.00  0.00     0.000 HD 
HETATM   22  C   UNL     1      -9.594   8.423  68.602  1.00  0.00    -0.149 A  
BRANCH  22  23
HETATM   23  C   UNL     1      -8.772   7.325  68.182  1.00  0.00    -0.128 C  
HETATM   24  C   UNL     1      -9.170   6.273  67.442  1.00  0.00    -0.116 C  
BRANCH  24  25
HETATM   25  C   UNL     1      -8.325   5.115  67.120  1.00  0.00    -0.107 A  
HETATM   26  C   UNL     1      -8.618   3.869  67.669  1.00  0.00    -0.112 A  
HETATM   27  C   UNL     1      -7.762   2.801  67.413  1.00  0.00    -0.069 A  
HETATM   28  C   UNL     1      -6.643   3.003  66.616  1.00  0.00    -0.037 A  
HETATM   29  C   UNL     1      -6.434   4.269  66.097  1.00  0.00    -0.041 A  
HETATM   30  N   UNL     1      -7.249   5.323  66.327  1.00  0.00    -0.072 NA 
ENDBRANCH  24  25
ENDBRANCH  22  23
ENDBRANCH  12  13
ENDBRANCH   7  12
ENDBRANCH   3   6
TORSDOF 5
ENDMDL
MODEL      149
REMARK 921   NORMALIZED FREE ENERGY PREDICTED BY IDOCK:   -4.06 KCAL/MOL
REMARK 922        TOTAL FREE ENERGY PREDICTED BY IDOCK:   -6.27 KCAL/MOL
REMARK 923 INTER-LIGAND FREE ENERGY PREDICTED BY IDOCK:   -5.47 KCAL/MOL
REMARK 924 INTRA-LIGAND FREE ENERGY PREDICTED BY IDOCK:   -0.80 KCAL/MOL
REMARK 927      BINDING AFFINITY PREDICTED BY RF-SCORE:    0.00 PKD
ROOT
HETATM    1  C   UNL     1      -8.387  18.541  66.408  1.00  0.00    -0.259 C  
HETATM    2  N   UNL     1      -9.129  17.677  67.286  1.00  0.00    -0.235 N  
HETATM    3  C   UNL     1      -9.998  16.729  66.791  1.00  0.00    -0.282 C  
HETATM    4  H   UNL     1      -9.009  17.767  68.295  1.00  0.00     0.000 HD 
HETATM    5  O   UNL     1     -10.340  16.671  65.614  1.00  0.00    -0.469 OA 
ENDROOT
BRANCH   3   6
HETATM    6  C   UNL     1     -10.578  15.783  67.795  1.00  0.00    -0.292 A  
HETATM    7  C   UNL     1     -10.206  14.421  67.907  1.00  0.00    -0.232 A  
HETATM    8  C   UNL     1     -10.771  13.662  68.944  1.00  0.00    -0.237 A  
HETATM    9  C   UNL     1     -12.125  15.544  69.650  1.00  0.00    -0.352 A  
HETATM   10  C   UNL     1     -11.716  14.225  69.814  1.00  0.00    -0.367 A  
HETATM   11  C   UNL     1     -11.555  16.323  68.646  1.00  0.00    -0.216 A  
BRANCH   7  12
HETATM   12  S   UNL     1      -9.260  13.627  66.611  1.00  0.00    -0.166 SA 
BRANCH  12  13
HETATM   13  C   UNL     1      -9.176  11.884  66.945  1.00  0.00    -0.193 A  
HETATM   14  C   UNL     1      -8.160  11.458  67.804  1.00  0.00    -0.121 A  
HETATM   15  C   UNL     1      -8.125  10.154  68.311  1.00  0.00    -0.102 A  
HETATM   16  C   UNL     1      -9.147   9.253  67.957  1.00  0.00    -0.132 A  
HETATM   17  C   UNL     1     -10.155   9.701  67.106  1.00  0.00    -0.218 A  
HETATM   18  C   UNL     1     -10.194  10.998  66.565  1.00  0.00    -0.280 A  
HETATM   19  N   UNL     1     -11.022   8.647  67.005  1.00  0.00    -0.271 NA 
HETATM   20  N   UNL     1     -10.661   7.561  67.703  1.00  0.00    -0.243 NA 
HETATM   21  H   UNL     1     -11.873   8.685  66.444  1.00  0.00     0.000 HD 
HETATM   22  C   UNL     1      -9.493   7.899  68.267  1.00  0.00    -0.144 A  
BRANCH  22  23
HETATM   23  C   UNL     1      -8.755   6.964  69.066  1.00  0.00    -0.131 C  
HETATM   24  C   UNL     1      -8.660   6.969  70.408  1.00  0.00    -0.142 C  
BRANCH  24  25
HETATM   25  C   UNL     1      -7.810   6.058  71.186  1.00  0.00    -0.111 A  
HETATM   26  C   UNL     1      -7.285   4.917  70.585  1.00  0.00    -0.053 A  
HETATM   27  C   UNL     1      -6.545   4.026  71.359  1.00  0.00    -0.026 A  
HETATM   28  C   UNL     1      -6.346   4.300  72.705  1.00  0.00    -0.017 A  
HETATM   29  C   UNL     1      -6.889   5.464  73.220  1.00  0.00    -0.079 A  
HETATM   30  N   UNL     1      -7.609   6.347  72.492  1.00  0.00    -0.099 NA 
ENDBRANCH  24  25
ENDBRANCH  22  23
ENDBRANCH  12  13
ENDBRANCH   7  12
ENDBRANCH   3   6
TORSDOF 5
ENDMDL
MODEL      150
REMARK 921   NORMALIZED FREE ENERGY PREDICTED BY IDOCK:   -4.04 KCAL/MOL
REMARK 922        TOTAL FREE ENERGY PREDICTED BY IDOCK:   -6.25 KCAL/MOL
REMARK 923 INTER-LIGAND FREE ENERGY PREDICTED BY IDOCK:   -6.72 KCAL/MOL
REMARK 924 INTRA-LIGAND FREE ENERGY PREDICTED BY IDOCK:    0.47 KCAL/MOL
REMARK 927      BINDING AFFINITY PREDICTED BY RF-SCORE:    0.00 PKD
ROOT
HETATM    1  C   UNL     1      -7.130  11.457  67.637  1.00  0.00    -0.092 C  
HETATM    2  N   UNL     1      -8.341  11.842  66.964  1.00  0.00    -0.173 N  
HETATM    3  C   UNL     1      -8.679  11.314  65.737  1.00  0.00    -0.109 C  
HETATM    4  H   UNL     1      -8.964  12.520  67.405  1.00  0.00     0.000 HD 
HETATM    5  O   UNL     1      -7.913  10.640  65.056  1.00  0.00    -0.119 OA 
ENDROOT
BRANCH   3   6
HETATM    6  C   UNL     1     -10.040  11.665  65.223  1.00  0.00    -0.305 A  
HETATM    7  C   UNL     1     -11.133  12.019  66.051  1.00  0.00    -0.320 A  
HETATM    8  C   UNL     1     -12.334  12.402  65.436  1.00  0.00    -0.308 A  
HETATM    9  C   UNL     1     -11.406  11.968  63.240  1.00  0.00    -0.396 A  
HETATM   10  C   UNL     1     -12.465  12.386  64.040  1.00  0.00    -0.554 A  
HETATM   11  C   UNL     1     -10.196  11.613  63.829  1.00  0.00    -0.430 A  
BRANCH   7  12
HETATM   12  S   UNL     1     -11.067  11.729  67.816  1.00  0.00    -0.264 SA 
BRANCH  12  13
HETATM   13  C   UNL     1     -10.682  10.018  68.104  1.00  0.00    -0.239 A  
HETATM   14  C   UNL     1     -10.443   9.643  69.428  1.00  0.00    -0.236 A  
HETATM   15  C   UNL     1     -10.346   8.298  69.804  1.00  0.00    -0.216 A  
HETATM   16  C   UNL     1     -10.506   7.299  68.826  1.00  0.00    -0.214 A  
HETATM   17  C   UNL     1     -10.750   7.696  67.513  1.00  0.00    -0.209 A  
HETATM   18  C   UNL     1     -10.825   9.041  67.109  1.00  0.00    -0.079 A  
HETATM   19  N   UNL     1     -10.927   6.528  66.822  1.00  0.00    -0.624 NA 
HETATM   20  N   UNL     1     -10.810   5.419  67.565  1.00  0.00    -0.055 NA 
HETATM   21  H   UNL     1     -11.131   6.504  65.823  1.00  0.00     0.000 HD 
HETATM   22  C   UNL     1     -10.515   5.868  68.792  1.00  0.00    -0.249 A  
BRANCH  22  23
HETATM   23  C   UNL     1     -10.261   4.962  69.875  1.00  0.00    -0.299 C  
HETATM   24  C   UNL     1     -10.246   5.275  71.184  1.00  0.00    -0.294 C  
BRANCH  24  25
HETATM   25  C   UNL     1      -9.879   4.343  72.258  1.00  0.00    -0.172 A  
HETATM   26  C   UNL     1     -10.868   3.815  73.086  1.00  0.00    -0.257 A  
HETATM   27  C   UNL     1     -10.492   2.994  74.146  1.00  0.00    -0.236 A  
HETATM   28  C   UNL     1      -9.146   2.720  74.349  1.00  0.00    -0.093 A  
HETATM   29  C   UNL     1      -8.230   3.271  73.470  1.00  0.00    -0.074 A  
HETATM   30  N   UNL     1      -8.566   4.069  72.432  1.00  0.00    -0.101 NA 
ENDBRANCH  24  25
ENDBRANCH  22  23
ENDBRANCH  12  13
ENDBRANCH   7  12
ENDBRANCH   3   6
TORSDOF 5
ENDMDL
MODEL      151
REMARK 921   NORMALIZED FREE ENERGY PREDICTED BY IDOCK:   -4.03 KCAL/MOL
REMARK 922        TOTAL FREE ENERGY PREDICTED BY IDOCK:   -6.23 KCAL/MOL
REMARK 923 INTER-LIGAND FREE ENERGY PREDICTED BY IDOCK:   -6.12 KCAL/MOL
REMARK 924 INTRA-LIGAND FREE ENERGY PREDICTED BY IDOCK:   -0.11 KCAL/MOL
REMARK 927      BINDING AFFINITY PREDICTED BY RF-SCORE:    0.00 PKD
ROOT
HETATM    1  C   UNL     1     -10.161  20.217  69.814  1.00  0.00     0.354 C  
HETATM    2  N   UNL     1      -9.304  19.829  68.728  1.00  0.00    -0.283 N  
HETATM    3  C   UNL     1      -8.035  19.341  68.955  1.00  0.00    -0.318 C  
HETATM    4  H   UNL     1      -9.641  19.917  67.769  1.00  0.00     0.000 HD 
HETATM    5  O   UNL     1      -7.483  19.372  70.051  1.00  0.00     0.157 OA 
ENDROOT
BRANCH   3   6
HETATM    6  C   UNL     1      -7.309  18.816  67.757  1.00  0.00    -0.250 A  
HETATM    7  C   UNL     1      -7.950  18.268  66.619  1.00  0.00    -0.251 A  
HETATM    8  C   UNL     1      -7.153  17.883  65.529  1.00  0.00     0.093 A  
HETATM    9  C   UNL     1      -5.134  18.466  66.736  1.00  0.00    -0.143 A  
HETATM   10  C   UNL     1      -5.757  17.992  65.586  1.00  0.00    -0.215 A  
HETATM   11  C   UNL     1      -5.908  18.882  67.817  1.00  0.00    -0.196 A  
BRANCH   7  12
HETATM   12  S   UNL     1      -9.685  17.832  66.675  1.00  0.00    -0.327 SA 
BRANCH  12  13
HETATM   13  C   UNL     1      -9.842  16.073  66.483  1.00  0.00    -0.267 A  
HETATM   14  C   UNL     1      -9.934  15.319  67.656  1.00  0.00    -0.222 A  
HETATM   15  C   UNL     1     -10.277  13.962  67.633  1.00  0.00    -0.242 A  
HETATM   16  C   UNL     1     -10.549  13.345  66.398  1.00  0.00    -0.285 A  
HETATM   17  C   UNL     1     -10.459  14.116  65.242  1.00  0.00    -0.384 A  
HETATM   18  C   UNL     1     -10.090  15.474  65.241  1.00  0.00    -0.337 A  
HETATM   19  N   UNL     1     -10.840  13.278  64.230  1.00  0.00    -0.440 NA 
HETATM   20  N   UNL     1     -11.158  12.037  64.627  1.00  0.00    -0.312 NA 
HETATM   21  H   UNL     1     -10.880  13.572  63.254  1.00  0.00     0.000 HD 
HETATM   22  C   UNL     1     -10.950  12.046  65.950  1.00  0.00    -0.298 A  
BRANCH  22  23
HETATM   23  C   UNL     1     -11.136  10.863  66.740  1.00  0.00    -0.196 C  
HETATM   24  C   UNL     1     -10.331  10.436  67.731  1.00  0.00    -0.245 C  
BRANCH  24  25
HETATM   25  C   UNL     1     -10.496   9.165  68.448  1.00  0.00    -0.199 A  
HETATM   26  C   UNL     1     -10.272   7.961  67.785  1.00  0.00    -0.276 A  
HETATM   27  C   UNL     1     -10.508   6.765  68.459  1.00  0.00    -0.234 A  
HETATM   28  C   UNL     1     -10.956   6.804  69.773  1.00  0.00    -0.345 A  
HETATM   29  C   UNL     1     -11.137   8.042  70.363  1.00  0.00    -0.238 A  
HETATM   30  N   UNL     1     -10.914   9.218  69.733  1.00  0.00    -0.224 NA 
ENDBRANCH  24  25
ENDBRANCH  22  23
ENDBRANCH  12  13
ENDBRANCH   7  12
ENDBRANCH   3   6
TORSDOF 5
ENDMDL
MODEL      152
REMARK 921   NORMALIZED FREE ENERGY PREDICTED BY IDOCK:   -4.03 KCAL/MOL
REMARK 922        TOTAL FREE ENERGY PREDICTED BY IDOCK:   -6.23 KCAL/MOL
REMARK 923 INTER-LIGAND FREE ENERGY PREDICTED BY IDOCK:   -5.14 KCAL/MOL
REMARK 924 INTRA-LIGAND FREE ENERGY PREDICTED BY IDOCK:   -1.09 KCAL/MOL
REMARK 927      BINDING AFFINITY PREDICTED BY RF-SCORE:    0.00 PKD
ROOT
HETATM    1  C   UNL     1      -8.061   5.802  64.253  1.00  0.00    -0.127 C  
HETATM    2  N   UNL     1      -8.157   5.557  65.667  1.00  0.00    -0.113 N  
HETATM    3  C   UNL     1      -9.063   4.652  66.178  1.00  0.00    -0.128 C  
HETATM    4  H   UNL     1      -7.543   6.063  66.305  1.00  0.00     0.000 HD 
HETATM    5  O   UNL     1      -9.956   4.139  65.511  1.00  0.00    -0.200 OA 
ENDROOT
BRANCH   3   6
HETATM    6  C   UNL     1      -8.949   4.363  67.641  1.00  0.00    -0.134 A  
HETATM    7  C   UNL     1      -9.848   4.856  68.619  1.00  0.00    -0.152 A  
HETATM    8  C   UNL     1      -9.672   4.445  69.949  1.00  0.00    -0.291 A  
HETATM    9  C   UNL     1      -7.688   3.188  69.350  1.00  0.00    -0.048 A  
HETATM   10  C   UNL     1      -8.606   3.608  70.308  1.00  0.00    -0.105 A  
HETATM   11  C   UNL     1      -7.862   3.560  68.020  1.00  0.00    -0.068 A  
BRANCH   7  12
HETATM   12  S   UNL     1     -10.998   6.168  68.217  1.00  0.00    -0.226 SA 
BRANCH  12  13
HETATM   13  C   UNL     1     -10.103   7.697  68.087  1.00  0.00    -0.186 A  
HETATM   14  C   UNL     1     -10.735   8.738  67.402  1.00  0.00    -0.216 A  
HETATM   15  C   UNL     1     -10.230  10.043  67.422  1.00  0.00    -0.269 A  
HETATM   16  C   UNL     1      -9.065  10.317  68.161  1.00  0.00    -0.136 A  
HETATM   17  C   UNL     1      -8.455   9.267  68.843  1.00  0.00    -0.129 A  
HETATM   18  C   UNL     1      -8.930   7.943  68.814  1.00  0.00    -0.141 A  
HETATM   19  N   UNL     1      -7.410   9.843  69.512  1.00  0.00    -0.088 NA 
HETATM   20  N   UNL     1      -7.285  11.163  69.317  1.00  0.00    -0.121 NA 
HETATM   21  H   UNL     1      -6.777   9.312  70.110  1.00  0.00     0.000 HD 
HETATM   22  C   UNL     1      -8.270  11.469  68.461  1.00  0.00    -0.148 A  
BRANCH  22  23
HETATM   23  C   UNL     1      -8.436  12.804  67.965  1.00  0.00    -0.177 C  
HETATM   24  C   UNL     1      -9.439  13.646  68.273  1.00  0.00    -0.213 C  
BRANCH  24  25
HETATM   25  C   UNL     1      -9.633  14.969  67.665  1.00  0.00    -0.203 A  
HETATM   26  C   UNL     1      -8.815  15.375  66.613  1.00  0.00    -0.330 A  
HETATM   27  C   UNL     1      -8.963  16.661  66.100  1.00  0.00    -0.321 A  
HETATM   28  C   UNL     1      -9.923  17.503  66.646  1.00  0.00    -0.314 A  
HETATM   29  C   UNL     1     -10.705  17.016  67.679  1.00  0.00    -0.295 A  
HETATM   30  N   UNL     1     -10.584  15.772  68.194  1.00  0.00    -0.266 NA 
ENDBRANCH  24  25
ENDBRANCH  22  23
ENDBRANCH  12  13
ENDBRANCH   7  12
ENDBRANCH   3   6
TORSDOF 5
ENDMDL
MODEL      153
REMARK 921   NORMALIZED FREE ENERGY PREDICTED BY IDOCK:   -4.02 KCAL/MOL
REMARK 922        TOTAL FREE ENERGY PREDICTED BY IDOCK:   -6.21 KCAL/MOL
REMARK 923 INTER-LIGAND FREE ENERGY PREDICTED BY IDOCK:   -5.31 KCAL/MOL
REMARK 924 INTRA-LIGAND FREE ENERGY PREDICTED BY IDOCK:   -0.90 KCAL/MOL
REMARK 927      BINDING AFFINITY PREDICTED BY RF-SCORE:    0.00 PKD
ROOT
HETATM    1  C   UNL     1     -11.870  12.146  63.741  1.00  0.00    -0.500 C  
HETATM    2  N   UNL     1     -11.568  13.010  64.849  1.00  0.00    -0.314 N  
HETATM    3  C   UNL     1     -11.430  12.515  66.128  1.00  0.00    -0.377 C  
HETATM    4  H   UNL     1     -11.453  14.011  64.687  1.00  0.00     0.000 HD 
HETATM    5  O   UNL     1     -11.727  11.367  66.445  1.00  0.00    -0.353 OA 
ENDROOT
BRANCH   3   6
HETATM    6  C   UNL     1     -10.949  13.485  67.161  1.00  0.00    -0.302 A  
HETATM    7  C   UNL     1      -9.583  13.722  67.450  1.00  0.00    -0.229 A  
HETATM    8  C   UNL     1      -9.267  14.716  68.388  1.00  0.00    -0.197 A  
HETATM    9  C   UNL     1     -11.616  15.131  68.815  1.00  0.00    -0.369 A  
HETATM   10  C   UNL     1     -10.277  15.422  69.057  1.00  0.00    -0.233 A  
HETATM   11  C   UNL     1     -11.951  14.169  67.866  1.00  0.00    -0.378 A  
BRANCH   7  12
HETATM   12  S   UNL     1      -8.319  12.608  66.844  1.00  0.00    -0.006 SA 
BRANCH  12  13
HETATM   13  C   UNL     1      -8.073  11.314  68.036  1.00  0.00    -0.128 A  
HETATM   14  C   UNL     1      -9.221  10.770  68.618  1.00  0.00    -0.184 A  
HETATM   15  C   UNL     1      -9.169   9.609  69.399  1.00  0.00    -0.196 A  
HETATM   16  C   UNL     1      -7.932   8.968  69.593  1.00  0.00    -0.093 A  
HETATM   17  C   UNL     1      -6.802   9.523  68.998  1.00  0.00    -0.054 A  
HETATM   18  C   UNL     1      -6.827  10.702  68.232  1.00  0.00    -0.068 A  
HETATM   19  N   UNL     1      -5.786   8.657  69.300  1.00  0.00    -0.038 NA 
HETATM   20  N   UNL     1      -6.156   7.603  70.040  1.00  0.00    -0.027 NA 
HETATM   21  H   UNL     1      -4.826   8.802  68.987  1.00  0.00     0.000 HD 
HETATM   22  C   UNL     1      -7.464   7.793  70.262  1.00  0.00    -0.079 A  
BRANCH  22  23
HETATM   23  C   UNL     1      -8.220   6.884  71.074  1.00  0.00    -0.118 C  
HETATM   24  C   UNL     1      -7.916   6.497  72.327  1.00  0.00    -0.102 C  
BRANCH  24  25
HETATM   25  C   UNL     1      -8.658   5.484  73.089  1.00  0.00    -0.117 A  
HETATM   26  C   UNL     1      -8.082   4.239  73.331  1.00  0.00    -0.090 A  
HETATM   27  C   UNL     1      -8.830   3.266  73.988  1.00  0.00    -0.083 A  
HETATM   28  C   UNL     1     -10.127   3.561  74.387  1.00  0.00    -0.209 A  
HETATM   29  C   UNL     1     -10.617   4.828  74.122  1.00  0.00    -0.296 A  
HETATM   30  N   UNL     1      -9.913   5.792  73.488  1.00  0.00    -0.170 NA 
ENDBRANCH  24  25
ENDBRANCH  22  23
ENDBRANCH  12  13
ENDBRANCH   7  12
ENDBRANCH   3   6
TORSDOF 5
ENDMDL
MODEL      154
REMARK 921   NORMALIZED FREE ENERGY PREDICTED BY IDOCK:   -4.01 KCAL/MOL
REMARK 922        TOTAL FREE ENERGY PREDICTED BY IDOCK:   -6.21 KCAL/MOL
REMARK 923 INTER-LIGAND FREE ENERGY PREDICTED BY IDOCK:   -5.32 KCAL/MOL
REMARK 924 INTRA-LIGAND FREE ENERGY PREDICTED BY IDOCK:   -0.89 KCAL/MOL
REMARK 927      BINDING AFFINITY PREDICTED BY RF-SCORE:    0.00 PKD
ROOT
HETATM    1  C   UNL     1      -6.623  18.961  66.799  1.00  0.00    -0.190 C  
HETATM    2  N   UNL     1      -7.706  18.331  67.504  1.00  0.00    -0.221 N  
HETATM    3  C   UNL     1      -8.370  17.245  66.976  1.00  0.00    -0.208 C  
HETATM    4  H   UNL     1      -7.988  18.695  68.414  1.00  0.00     0.000 HD 
HETATM    5  O   UNL     1      -8.223  16.857  65.822  1.00  0.00    -0.444 OA 
ENDROOT
BRANCH   3   6
HETATM    6  C   UNL     1      -9.360  16.578  67.879  1.00  0.00    -0.216 A  
HETATM    7  C   UNL     1      -9.053  15.478  68.717  1.00  0.00    -0.207 A  
HETATM    8  C   UNL     1     -10.055  14.997  69.573  1.00  0.00    -0.176 A  
HETATM    9  C   UNL     1     -11.650  16.590  68.684  1.00  0.00    -0.034 A  
HETATM   10  C   UNL     1     -11.340  15.557  69.562  1.00  0.00    -0.317 A  
HETATM   11  C   UNL     1     -10.661  17.103  67.848  1.00  0.00    -0.355 A  
BRANCH   7  12
HETATM   12  S   UNL     1      -7.528  14.566  68.497  1.00  0.00    -0.132 SA 
BRANCH  12  13
HETATM   13  C   UNL     1      -7.906  12.975  67.803  1.00  0.00    -0.157 A  
HETATM   14  C   UNL     1      -7.694  11.865  68.626  1.00  0.00    -0.113 A  
HETATM   15  C   UNL     1      -8.155  10.591  68.274  1.00  0.00    -0.115 A  
HETATM   16  C   UNL     1      -8.861  10.426  67.068  1.00  0.00    -0.143 A  
HETATM   17  C   UNL     1      -9.068  11.547  66.267  1.00  0.00    -0.208 A  
HETATM   18  C   UNL     1      -8.590  12.830  66.589  1.00  0.00    -0.015 A  
HETATM   19  N   UNL     1      -9.828  11.095  65.223  1.00  0.00    -0.234 NA 
HETATM   20  N   UNL     1     -10.121   9.788  65.273  1.00  0.00    -0.198 NA 
HETATM   21  H   UNL     1     -10.146  11.703  64.468  1.00  0.00     0.000 HD 
HETATM   22  C   UNL     1      -9.506   9.350  66.380  1.00  0.00    -0.201 A  
BRANCH  22  23
HETATM   23  C   UNL     1      -9.545   7.966  66.754  1.00  0.00    -0.278 C  
HETATM   24  C   UNL     1      -9.466   7.480  68.006  1.00  0.00    -0.149 C  
BRANCH  24  25
HETATM   25  C   UNL     1      -9.404   6.051  68.343  1.00  0.00    -0.119 A  
HETATM   26  C   UNL     1      -9.326   5.102  67.326  1.00  0.00    -0.129 A  
HETATM   27  C   UNL     1      -9.346   3.751  67.662  1.00  0.00    -0.240 A  
HETATM   28  C   UNL     1      -9.438   3.384  68.998  1.00  0.00    -0.202 A  
HETATM   29  C   UNL     1      -9.496   4.390  69.946  1.00  0.00    -0.183 A  
HETATM   30  N   UNL     1      -9.476   5.709  69.650  1.00  0.00    -0.136 NA 
ENDBRANCH  24  25
ENDBRANCH  22  23
ENDBRANCH  12  13
ENDBRANCH   7  12
ENDBRANCH   3   6
TORSDOF 5
ENDMDL
MODEL      155
REMARK 921   NORMALIZED FREE ENERGY PREDICTED BY IDOCK:   -3.98 KCAL/MOL
REMARK 922        TOTAL FREE ENERGY PREDICTED BY IDOCK:   -6.16 KCAL/MOL
REMARK 923 INTER-LIGAND FREE ENERGY PREDICTED BY IDOCK:   -5.37 KCAL/MOL
REMARK 924 INTRA-LIGAND FREE ENERGY PREDICTED BY IDOCK:   -0.79 KCAL/MOL
REMARK 927      BINDING AFFINITY PREDICTED BY RF-SCORE:    0.00 PKD
ROOT
HETATM    1  C   UNL     1     -12.710  13.541  65.599  1.00  0.00    -0.421 C  
HETATM    2  N   UNL     1     -11.900  14.639  66.054  1.00  0.00    -0.322 N  
HETATM    3  C   UNL     1     -11.547  14.768  67.380  1.00  0.00    -0.360 C  
HETATM    4  H   UNL     1     -11.580  15.336  65.382  1.00  0.00     0.000 HD 
HETATM    5  O   UNL     1     -12.031  14.088  68.279  1.00  0.00    -0.357 OA 
ENDROOT
BRANCH   3   6
HETATM    6  C   UNL     1     -10.566  15.853  67.696  1.00  0.00    -0.307 A  
HETATM    7  C   UNL     1      -9.255  15.916  67.164  1.00  0.00    -0.209 A  
HETATM    8  C   UNL     1      -8.464  17.030  67.481  1.00  0.00    -0.208 A  
HETATM    9  C   UNL     1     -10.203  17.921  68.913  1.00  0.00    -0.331 A  
HETATM   10  C   UNL     1      -8.940  18.030  68.341  1.00  0.00    -0.286 A  
HETATM   11  C   UNL     1     -11.017  16.839  68.588  1.00  0.00    -0.298 A  
BRANCH   7  12
HETATM   12  S   UNL     1      -8.540  14.496  66.341  1.00  0.00     0.370 SA 
BRANCH  12  13
HETATM   13  C   UNL     1      -8.537  13.121  67.465  1.00  0.00    -0.196 A  
HETATM   14  C   UNL     1      -9.284  12.002  67.090  1.00  0.00    -0.190 A  
HETATM   15  C   UNL     1      -9.185  10.787  67.779  1.00  0.00    -0.155 A  
HETATM   16  C   UNL     1      -8.301  10.687  68.868  1.00  0.00    -0.150 A  
HETATM   17  C   UNL     1      -7.559  11.813  69.221  1.00  0.00     0.171 A  
HETATM   18  C   UNL     1      -7.663  13.049  68.559  1.00  0.00    -0.111 A  
HETATM   19  N   UNL     1      -6.756  11.396  70.247  1.00  0.00    -0.486 NA 
HETATM   20  N   UNL     1      -6.918  10.111  70.593  1.00  0.00    -0.329 NA 
HETATM   21  H   UNL     1      -6.088  12.012  70.711  1.00  0.00     0.000 HD 
HETATM   22  C   UNL     1      -7.888   9.667  69.783  1.00  0.00    -0.142 A  
BRANCH  22  23
HETATM   23  C   UNL     1      -8.386   8.325  69.885  1.00  0.00    -0.125 C  
HETATM   24  C   UNL     1      -7.735   7.207  69.515  1.00  0.00    -0.113 C  
BRANCH  24  25
HETATM   25  C   UNL     1      -8.317   5.859  69.537  1.00  0.00    -0.114 A  
HETATM   26  C   UNL     1      -8.534   5.177  68.342  1.00  0.00    -0.095 A  
HETATM   27  C   UNL     1      -9.157   3.933  68.378  1.00  0.00    -0.189 A  
HETATM   28  C   UNL     1      -9.543   3.402  69.602  1.00  0.00    -0.160 A  
HETATM   29  C   UNL     1      -9.275   4.137  70.744  1.00  0.00    -0.127 A  
HETATM   30  N   UNL     1      -8.670   5.346  70.738  1.00  0.00    -0.130 NA 
ENDBRANCH  24  25
ENDBRANCH  22  23
ENDBRANCH  12  13
ENDBRANCH   7  12
ENDBRANCH   3   6
TORSDOF 5
ENDMDL
MODEL      156
REMARK 921   NORMALIZED FREE ENERGY PREDICTED BY IDOCK:   -3.95 KCAL/MOL
REMARK 922        TOTAL FREE ENERGY PREDICTED BY IDOCK:   -6.13 KCAL/MOL
REMARK 923 INTER-LIGAND FREE ENERGY PREDICTED BY IDOCK:   -5.39 KCAL/MOL
REMARK 924 INTRA-LIGAND FREE ENERGY PREDICTED BY IDOCK:   -0.74 KCAL/MOL
REMARK 927      BINDING AFFINITY PREDICTED BY RF-SCORE:    0.00 PKD
ROOT
HETATM    1  C   UNL     1     -11.725  10.896  68.076  1.00  0.00    -0.124 C  
HETATM    2  N   UNL     1     -11.201   9.574  68.288  1.00  0.00    -0.505 N  
HETATM    3  C   UNL     1     -10.506   9.253  69.435  1.00  0.00    -0.219 C  
HETATM    4  H   UNL     1     -11.346   8.858  67.576  1.00  0.00     0.000 HD 
HETATM    5  O   UNL     1     -10.129  10.086  70.253  1.00  0.00    -0.260 OA 
ENDROOT
BRANCH   3   6
HETATM    6  C   UNL     1     -10.162   7.808  69.612  1.00  0.00    -0.206 A  
HETATM    7  C   UNL     1      -9.106   7.156  68.931  1.00  0.00    -0.131 A  
HETATM    8  C   UNL     1      -8.840   5.814  69.248  1.00  0.00    -0.116 A  
HETATM    9  C   UNL     1     -10.710   5.757  70.788  1.00  0.00    -0.342 A  
HETATM   10  C   UNL     1      -9.631   5.125  70.178  1.00  0.00    -0.247 A  
HETATM   11  C   UNL     1     -10.972   7.096  70.511  1.00  0.00    -0.287 A  
BRANCH   7  12
HETATM   12  S   UNL     1      -8.316   7.931  67.524  1.00  0.00    -0.124 SA 
BRANCH  12  13
HETATM   13  C   UNL     1      -7.495   9.410  68.069  1.00  0.00    -0.080 A  
HETATM   14  C   UNL     1      -7.721  10.566  67.317  1.00  0.00    -0.106 A  
HETATM   15  C   UNL     1      -7.311  11.826  67.767  1.00  0.00    -0.106 A  
HETATM   16  C   UNL     1      -6.666  11.934  69.013  1.00  0.00    -0.099 A  
HETATM   17  C   UNL     1      -6.457  10.769  69.749  1.00  0.00    -0.118 A  
HETATM   18  C   UNL     1      -6.838   9.491  69.304  1.00  0.00    -0.049 A  
HETATM   19  N   UNL     1      -5.887  11.192  70.919  1.00  0.00    -0.345 NA 
HETATM   20  N   UNL     1      -5.701  12.517  70.999  1.00  0.00    -0.348 NA 
HETATM   21  H   UNL     1      -5.625  10.552  71.668  1.00  0.00     0.000 HD 
HETATM   22  C   UNL     1      -6.139  12.988  69.824  1.00  0.00    -0.123 A  
BRANCH  22  23
HETATM   23  C   UNL     1      -6.057  14.384  69.505  1.00  0.00    -0.114 C  
HETATM   24  C   UNL     1      -6.211  14.930  68.284  1.00  0.00    -0.125 C  
BRANCH  24  25
HETATM   25  C   UNL     1      -6.017  16.353  67.978  1.00  0.00    -0.116 A  
HETATM   26  C   UNL     1      -6.424  17.321  68.892  1.00  0.00    -0.202 A  
HETATM   27  C   UNL     1      -6.302  18.666  68.551  1.00  0.00    -0.227 A  
HETATM   28  C   UNL     1      -5.775  19.007  67.313  1.00  0.00    -0.170 A  
HETATM   29  C   UNL     1      -5.379  17.983  66.470  1.00  0.00    -0.155 A  
HETATM   30  N   UNL     1      -5.484  16.671  66.775  1.00  0.00    -0.347 NA 
ENDBRANCH  24  25
ENDBRANCH  22  23
ENDBRANCH  12  13
ENDBRANCH   7  12
ENDBRANCH   3   6
TORSDOF 5
ENDMDL
MODEL      157
REMARK 921   NORMALIZED FREE ENERGY PREDICTED BY IDOCK:   -3.93 KCAL/MOL
REMARK 922        TOTAL FREE ENERGY PREDICTED BY IDOCK:   -6.11 KCAL/MOL
REMARK 923 INTER-LIGAND FREE ENERGY PREDICTED BY IDOCK:   -5.34 KCAL/MOL
REMARK 924 INTRA-LIGAND FREE ENERGY PREDICTED BY IDOCK:   -0.76 KCAL/MOL
REMARK 927      BINDING AFFINITY PREDICTED BY RF-SCORE:    0.00 PKD
ROOT
HETATM    1  C   UNL     1     -12.218  13.753  64.267  1.00  0.00    -0.400 C  
HETATM    2  N   UNL     1     -11.885  14.343  65.535  1.00  0.00    -0.357 N  
HETATM    3  C   UNL     1     -11.968  13.621  66.706  1.00  0.00    -0.414 C  
HETATM    4  H   UNL     1     -11.580  15.316  65.569  1.00  0.00     0.000 HD 
HETATM    5  O   UNL     1     -12.493  12.514  66.783  1.00  0.00    -0.318 OA 
ENDROOT
BRANCH   3   6
HETATM    6  C   UNL     1     -11.435  14.293  67.932  1.00  0.00    -0.341 A  
HETATM    7  C   UNL     1     -10.061  14.345  68.272  1.00  0.00    -0.239 A  
HETATM    8  C   UNL     1      -9.687  15.076  69.411  1.00  0.00    -0.159 A  
HETATM    9  C   UNL     1     -12.005  15.576  69.911  1.00  0.00    -0.381 A  
HETATM   10  C   UNL     1     -10.653  15.695  70.217  1.00  0.00    -0.329 A  
HETATM   11  C   UNL     1     -12.395  14.882  68.769  1.00  0.00    -0.007 A  
BRANCH   7  12
HETATM   12  S   UNL     1      -8.877  13.295  67.436  1.00  0.00    -0.214 SA 
BRANCH  12  13
HETATM   13  C   UNL     1      -9.132  11.615  67.953  1.00  0.00    -0.171 A  
HETATM   14  C   UNL     1      -8.085  10.721  67.719  1.00  0.00    -0.111 A  
HETATM   15  C   UNL     1      -8.080   9.435  68.273  1.00  0.00    -0.109 A  
HETATM   16  C   UNL     1      -9.150   9.038  69.095  1.00  0.00    -0.140 A  
HETATM   17  C   UNL     1     -10.180   9.948  69.321  1.00  0.00    -0.209 A  
HETATM   18  C   UNL     1     -10.218  11.234  68.754  1.00  0.00    -0.215 A  
HETATM   19  N   UNL     1     -11.020   9.316  70.196  1.00  0.00    -0.241 NA 
HETATM   20  N   UNL     1     -10.632   8.081  70.547  1.00  0.00    -0.216 NA 
HETATM   21  H   UNL     1     -11.873   9.748  70.554  1.00  0.00     0.000 HD 
HETATM   22  C   UNL     1      -9.504   7.876  69.853  1.00  0.00    -0.160 A  
BRANCH  22  23
HETATM   23  C   UNL     1      -8.804   6.627  69.924  1.00  0.00    -0.144 C  
HETATM   24  C   UNL     1      -9.016   5.648  70.824  1.00  0.00    -0.154 C  
BRANCH  24  25
HETATM   25  C   UNL     1      -8.209   4.426  70.930  1.00  0.00    -0.079 A  
HETATM   26  C   UNL     1      -8.511   3.324  70.134  1.00  0.00    -0.095 A  
HETATM   27  C   UNL     1      -7.783   2.149  70.304  1.00  0.00    -0.044 A  
HETATM   28  C   UNL     1      -6.774   2.107  71.257  1.00  0.00    -0.023 A  
HETATM   29  C   UNL     1      -6.527   3.252  71.994  1.00  0.00    -0.015 A  
HETATM   30  N   UNL     1      -7.216   4.406  71.849  1.00  0.00    -0.061 NA 
ENDBRANCH  24  25
ENDBRANCH  22  23
ENDBRANCH  12  13
ENDBRANCH   7  12
ENDBRANCH   3   6
TORSDOF 5
ENDMDL
MODEL      158
REMARK 921   NORMALIZED FREE ENERGY PREDICTED BY IDOCK:   -3.92 KCAL/MOL
REMARK 922        TOTAL FREE ENERGY PREDICTED BY IDOCK:   -6.09 KCAL/MOL
REMARK 923 INTER-LIGAND FREE ENERGY PREDICTED BY IDOCK:   -5.15 KCAL/MOL
REMARK 924 INTRA-LIGAND FREE ENERGY PREDICTED BY IDOCK:   -0.94 KCAL/MOL
REMARK 927      BINDING AFFINITY PREDICTED BY RF-SCORE:    0.00 PKD
ROOT
HETATM    1  C   UNL     1      -6.976  11.236  67.521  1.00  0.00    -0.091 C  
HETATM    2  N   UNL     1      -7.757  12.263  68.155  1.00  0.00    -0.128 N  
HETATM    3  C   UNL     1      -8.670  13.012  67.445  1.00  0.00    -0.205 C  
HETATM    4  H   UNL     1      -7.633  12.441  69.152  1.00  0.00     0.000 HD 
HETATM    5  O   UNL     1      -8.754  12.994  66.220  1.00  0.00     0.081 OA 
ENDROOT
BRANCH   3   6
HETATM    6  C   UNL     1      -9.538  13.928  68.249  1.00  0.00    -0.218 A  
HETATM    7  C   UNL     1     -10.890  13.657  68.572  1.00  0.00    -0.257 A  
HETATM    8  C   UNL     1     -11.568  14.564  69.401  1.00  0.00    -0.343 A  
HETATM    9  C   UNL     1      -9.632  16.021  69.474  1.00  0.00    -0.200 A  
HETATM   10  C   UNL     1     -10.939  15.732  69.856  1.00  0.00    -0.335 A  
HETATM   11  C   UNL     1      -8.932  15.119  68.677  1.00  0.00    -0.191 A  
BRANCH   7  12
HETATM   12  S   UNL     1     -11.780  12.350  67.734  1.00  0.00    -0.309 SA 
BRANCH  12  13
HETATM   13  C   UNL     1     -11.280  10.786  68.413  1.00  0.00    -0.284 A  
HETATM   14  C   UNL     1     -10.680   9.883  67.532  1.00  0.00    -0.333 A  
HETATM   15  C   UNL     1     -10.052   8.719  67.988  1.00  0.00    -0.241 A  
HETATM   16  C   UNL     1     -10.012   8.457  69.370  1.00  0.00    -0.191 A  
HETATM   17  C   UNL     1     -10.610   9.375  70.231  1.00  0.00    -0.250 A  
HETATM   18  C   UNL     1     -11.269  10.537  69.792  1.00  0.00    -0.361 A  
HETATM   19  N   UNL     1     -10.352   8.896  71.487  1.00  0.00    -0.296 NA 
HETATM   20  N   UNL     1      -9.653   7.752  71.513  1.00  0.00    -0.154 NA 
HETATM   21  H   UNL     1     -10.665   9.370  72.334  1.00  0.00     0.000 HD 
HETATM   22  C   UNL     1      -9.466   7.446  70.222  1.00  0.00    -0.165 A  
BRANCH  22  23
HETATM   23  C   UNL     1      -8.789   6.242  69.834  1.00  0.00    -0.141 C  
HETATM   24  C   UNL     1      -8.748   5.719  68.595  1.00  0.00    -0.108 C  
BRANCH  24  25
HETATM   25  C   UNL     1      -8.133   4.429  68.255  1.00  0.00    -0.082 A  
HETATM   26  C   UNL     1      -8.744   3.243  68.655  1.00  0.00    -0.143 A  
HETATM   27  C   UNL     1      -8.107   2.033  68.392  1.00  0.00    -0.068 A  
HETATM   28  C   UNL     1      -6.883   2.039  67.734  1.00  0.00    -0.039 A  
HETATM   29  C   UNL     1      -6.354   3.261  67.357  1.00  0.00    -0.036 A  
HETATM   30  N   UNL     1      -6.951   4.449  67.598  1.00  0.00    -0.059 NA 
ENDBRANCH  24  25
ENDBRANCH  22  23
ENDBRANCH  12  13
ENDBRANCH   7  12
ENDBRANCH   3   6
TORSDOF 5
ENDMDL
MODEL      159
REMARK 921   NORMALIZED FREE ENERGY PREDICTED BY IDOCK:   -3.90 KCAL/MOL
REMARK 922        TOTAL FREE ENERGY PREDICTED BY IDOCK:   -6.06 KCAL/MOL
REMARK 923 INTER-LIGAND FREE ENERGY PREDICTED BY IDOCK:   -5.21 KCAL/MOL
REMARK 924 INTRA-LIGAND FREE ENERGY PREDICTED BY IDOCK:   -0.86 KCAL/MOL
REMARK 927      BINDING AFFINITY PREDICTED BY RF-SCORE:    0.00 PKD
ROOT
HETATM    1  C   UNL     1      -8.011  17.173  66.902  1.00  0.00    -0.217 C  
HETATM    2  N   UNL     1      -8.948  16.530  67.783  1.00  0.00    -0.201 N  
HETATM    3  C   UNL     1     -10.179  16.103  67.334  1.00  0.00    -0.272 C  
HETATM    4  H   UNL     1      -8.696  16.387  68.761  1.00  0.00     0.000 HD 
HETATM    5  O   UNL     1     -10.635  16.393  66.232  1.00  0.00    -0.303 OA 
ENDROOT
BRANCH   3   6
HETATM    6  C   UNL     1     -10.990  15.301  68.302  1.00  0.00    -0.276 A  
HETATM    7  C   UNL     1     -10.990  13.885  68.353  1.00  0.00    -0.253 A  
HETATM    8  C   UNL     1     -11.737  13.259  69.363  1.00  0.00    -0.383 A  
HETATM    9  C   UNL     1     -12.549  15.399  70.159  1.00  0.00    -0.329 A  
HETATM   10  C   UNL     1     -12.502  14.012  70.264  1.00  0.00    -0.403 A  
HETATM   11  C   UNL     1     -11.792  16.042  69.184  1.00  0.00    -0.268 A  
BRANCH   7  12
HETATM   12  S   UNL     1     -10.283  12.927  67.017  1.00  0.00    -0.246 SA 
BRANCH  12  13
HETATM   13  C   UNL     1      -9.540  11.461  67.691  1.00  0.00    -0.169 A  
HETATM   14  C   UNL     1     -10.242  10.265  67.517  1.00  0.00    -0.254 A  
HETATM   15  C   UNL     1      -9.662   9.025  67.807  1.00  0.00    -0.190 A  
HETATM   16  C   UNL     1      -8.335   8.980  68.274  1.00  0.00    -0.121 A  
HETATM   17  C   UNL     1      -7.652  10.183  68.433  1.00  0.00    -0.087 A  
HETATM   18  C   UNL     1      -8.224  11.442  68.173  1.00  0.00    -0.143 A  
HETATM   19  N   UNL     1      -6.391   9.822  68.823  1.00  0.00    -0.046 NA 
HETATM   20  N   UNL     1      -6.203   8.499  68.938  1.00  0.00    -0.044 NA 
HETATM   21  H   UNL     1      -5.655  10.502  69.010  1.00  0.00     0.000 HD 
HETATM   22  C   UNL     1      -7.395   7.965  68.641  1.00  0.00    -0.090 A  
BRANCH  22  23
HETATM   23  C   UNL     1      -7.612   6.548  68.703  1.00  0.00    -0.097 C  
HETATM   24  C   UNL     1      -7.587   5.696  67.662  1.00  0.00    -0.089 C  
BRANCH  24  25
HETATM   25  C   UNL     1      -7.917   4.267  67.748  1.00  0.00    -0.087 A  
HETATM   26  C   UNL     1      -9.060   3.859  68.432  1.00  0.00    -0.189 A  
HETATM   27  C   UNL     1      -9.314   2.497  68.569  1.00  0.00    -0.254 A  
HETATM   28  C   UNL     1      -8.427   1.582  68.019  1.00  0.00    -0.082 A  
HETATM   29  C   UNL     1      -7.323   2.071  67.342  1.00  0.00    -0.055 A  
HETATM   30  N   UNL     1      -7.053   3.387  67.192  1.00  0.00    -0.058 NA 
ENDBRANCH  24  25
ENDBRANCH  22  23
ENDBRANCH  12  13
ENDBRANCH   7  12
ENDBRANCH   3   6
TORSDOF 5
ENDMDL
MODEL      160
REMARK 921   NORMALIZED FREE ENERGY PREDICTED BY IDOCK:   -3.88 KCAL/MOL
REMARK 922        TOTAL FREE ENERGY PREDICTED BY IDOCK:   -6.04 KCAL/MOL
REMARK 923 INTER-LIGAND FREE ENERGY PREDICTED BY IDOCK:   -5.02 KCAL/MOL
REMARK 924 INTRA-LIGAND FREE ENERGY PREDICTED BY IDOCK:   -1.02 KCAL/MOL
REMARK 927      BINDING AFFINITY PREDICTED BY RF-SCORE:    0.00 PKD
ROOT
HETATM    1  C   UNL     1      -8.560   9.447  63.190  1.00  0.00    -0.219 C  
HETATM    2  N   UNL     1      -8.753   8.471  64.228  1.00  0.00    -0.406 N  
HETATM    3  C   UNL     1      -7.962   7.345  64.309  1.00  0.00    -0.097 C  
HETATM    4  H   UNL     1      -9.489   8.615  64.918  1.00  0.00     0.000 HD 
HETATM    5  O   UNL     1      -7.181   7.001  63.428  1.00  0.00    -0.063 OA 
ENDROOT
BRANCH   3   6
HETATM    6  C   UNL     1      -8.150   6.497  65.527  1.00  0.00    -0.127 A  
HETATM    7  C   UNL     1      -7.576   6.786  66.790  1.00  0.00    -0.090 A  
HETATM    8  C   UNL     1      -7.896   5.950  67.870  1.00  0.00    -0.104 A  
HETATM    9  C   UNL     1      -9.222   4.517  66.434  1.00  0.00    -0.137 A  
HETATM   10  C   UNL     1      -8.722   4.830  67.694  1.00  0.00    -0.106 A  
HETATM   11  C   UNL     1      -8.941   5.351  65.354  1.00  0.00    -0.130 A  
BRANCH   7  12
HETATM   12  S   UNL     1      -6.279   8.010  66.940  1.00  0.00    -0.056 SA 
BRANCH  12  13
HETATM   13  C   UNL     1      -7.012   9.579  67.339  1.00  0.00    -0.084 A  
HETATM   14  C   UNL     1      -6.209  10.709  67.164  1.00  0.00    -0.062 A  
HETATM   15  C   UNL     1      -6.738  12.003  67.234  1.00  0.00    -0.144 A  
HETATM   16  C   UNL     1      -8.114  12.170  67.475  1.00  0.00    -0.163 A  
HETATM   17  C   UNL     1      -8.897  11.029  67.640  1.00  0.00    -0.131 A  
HETATM   18  C   UNL     1      -8.382   9.721  67.599  1.00  0.00    -0.114 A  
HETATM   19  N   UNL     1     -10.174  11.499  67.784  1.00  0.00    -0.179 NA 
HETATM   20  N   UNL     1     -10.284  12.834  67.737  1.00  0.00    -0.218 NA 
HETATM   21  H   UNL     1     -10.977  10.884  67.917  1.00  0.00     0.000 HD 
HETATM   22  C   UNL     1      -9.026  13.268  67.585  1.00  0.00    -0.199 A  
BRANCH  22  23
HETATM   23  C   UNL     1      -8.722  14.669  67.542  1.00  0.00    -0.194 C  
HETATM   24  C   UNL     1      -8.688  15.506  68.595  1.00  0.00    -0.188 C  
BRANCH  24  25
HETATM   25  C   UNL     1      -8.476  16.956  68.499  1.00  0.00    -0.258 A  
HETATM   26  C   UNL     1      -7.186  17.460  68.353  1.00  0.00    -0.223 A  
HETATM   27  C   UNL     1      -6.997  18.840  68.341  1.00  0.00    -0.278 A  
HETATM   28  C   UNL     1      -8.097  19.677  68.471  1.00  0.00    -0.339 A  
HETATM   29  C   UNL     1      -9.347  19.095  68.595  1.00  0.00    -0.388 A  
HETATM   30  N   UNL     1      -9.559  17.760  68.608  1.00  0.00    -0.320 NA 
ENDBRANCH  24  25
ENDBRANCH  22  23
ENDBRANCH  12  13
ENDBRANCH   7  12
ENDBRANCH   3   6
TORSDOF 5
ENDMDL
MODEL      161
REMARK 921   NORMALIZED FREE ENERGY PREDICTED BY IDOCK:   -3.88 KCAL/MOL
REMARK 922        TOTAL FREE ENERGY PREDICTED BY IDOCK:   -6.04 KCAL/MOL
REMARK 923 INTER-LIGAND FREE ENERGY PREDICTED BY IDOCK:   -5.44 KCAL/MOL
REMARK 924 INTRA-LIGAND FREE ENERGY PREDICTED BY IDOCK:   -0.60 KCAL/MOL
REMARK 927      BINDING AFFINITY PREDICTED BY RF-SCORE:    0.00 PKD
ROOT
HETATM    1  C   UNL     1      -8.123  17.551  68.295  1.00  0.00    -0.268 C  
HETATM    2  N   UNL     1      -9.133  16.677  67.764  1.00  0.00    -0.211 N  
HETATM    3  C   UNL     1      -9.098  16.253  66.453  1.00  0.00    -0.301 C  
HETATM    4  H   UNL     1      -9.892  16.364  68.370  1.00  0.00     0.000 HD 
HETATM    5  O   UNL     1      -8.335  16.718  65.611  1.00  0.00    -0.333 OA 
ENDROOT
BRANCH   3   6
HETATM    6  C   UNL     1     -10.106  15.216  66.070  1.00  0.00    -0.323 A  
HETATM    7  C   UNL     1     -10.087  13.880  66.543  1.00  0.00    -0.286 A  
HETATM    8  C   UNL     1     -11.137  13.029  66.167  1.00  0.00    -0.311 A  
HETATM    9  C   UNL     1     -12.121  14.767  64.795  1.00  0.00    -0.387 A  
HETATM   10  C   UNL     1     -12.152  13.474  65.308  1.00  0.00    -0.439 A  
HETATM   11  C   UNL     1     -11.104  15.637  65.179  1.00  0.00    -0.357 A  
BRANCH   7  12
HETATM   12  S   UNL     1      -8.636  13.227  67.364  1.00  0.00    -0.213 SA 
BRANCH  12  13
HETATM   13  C   UNL     1      -8.795  11.463  67.495  1.00  0.00    -0.146 A  
HETATM   14  C   UNL     1      -8.622  10.728  66.319  1.00  0.00    -0.163 A  
HETATM   15  C   UNL     1      -8.507   9.333  66.334  1.00  0.00    -0.128 A  
HETATM   16  C   UNL     1      -8.555   8.655  67.566  1.00  0.00    -0.135 A  
HETATM   17  C   UNL     1      -8.721   9.407  68.726  1.00  0.00    -0.131 A  
HETATM   18  C   UNL     1      -8.864  10.806  68.731  1.00  0.00    -0.163 A  
HETATM   19  N   UNL     1      -8.658   8.497  69.746  1.00  0.00    -0.129 NA 
HETATM   20  N   UNL     1      -8.477   7.229  69.349  1.00  0.00    -0.133 NA 
HETATM   21  H   UNL     1      -8.742   8.760  70.728  1.00  0.00     0.000 HD 
HETATM   22  C   UNL     1      -8.448   7.299  68.011  1.00  0.00    -0.123 A  
BRANCH  22  23
HETATM   23  C   UNL     1      -8.317   6.118  67.208  1.00  0.00    -0.105 C  
HETATM   24  C   UNL     1      -8.956   5.872  66.049  1.00  0.00    -0.159 C  
BRANCH  24  25
HETATM   25  C   UNL     1      -8.877   4.607  65.307  1.00  0.00    -0.145 A  
HETATM   26  C   UNL     1      -7.765   4.337  64.514  1.00  0.00    -0.081 A  
HETATM   27  C   UNL     1      -7.743   3.167  63.758  1.00  0.00    -0.072 A  
HETATM   28  C   UNL     1      -8.826   2.301  63.817  1.00  0.00    -0.090 A  
HETATM   29  C   UNL     1      -9.884   2.637  64.643  1.00  0.00     0.022 A  
HETATM   30  N   UNL     1      -9.931   3.763  65.388  1.00  0.00    -0.130 NA 
ENDBRANCH  24  25
ENDBRANCH  22  23
ENDBRANCH  12  13
ENDBRANCH   7  12
ENDBRANCH   3   6
TORSDOF 5
ENDMDL
MODEL      162
REMARK 921   NORMALIZED FREE ENERGY PREDICTED BY IDOCK:   -3.86 KCAL/MOL
REMARK 922        TOTAL FREE ENERGY PREDICTED BY IDOCK:   -6.01 KCAL/MOL
REMARK 923 INTER-LIGAND FREE ENERGY PREDICTED BY IDOCK:   -5.72 KCAL/MOL
REMARK 924 INTRA-LIGAND FREE ENERGY PREDICTED BY IDOCK:   -0.29 KCAL/MOL
REMARK 927      BINDING AFFINITY PREDICTED BY RF-SCORE:    0.00 PKD
ROOT
HETATM    1  C   UNL     1     -14.023  15.484  72.020  1.00  0.00    -0.501 C  
HETATM    2  N   UNL     1     -13.016  15.829  71.054  1.00  0.00    -0.550 N  
HETATM    3  C   UNL     1     -12.534  14.900  70.156  1.00  0.00    -0.306 C  
HETATM    4  H   UNL     1     -12.649  16.781  71.031  1.00  0.00     0.000 HD 
HETATM    5  O   UNL     1     -12.780  13.700  70.228  1.00  0.00    -0.229 OA 
ENDROOT
BRANCH   3   6
HETATM    6  C   UNL     1     -11.617  15.423  69.097  1.00  0.00    -0.354 A  
HETATM    7  C   UNL     1     -11.488  14.851  67.807  1.00  0.00    -0.338 A  
HETATM    8  C   UNL     1     -10.648  15.488  66.881  1.00  0.00    -0.307 A  
HETATM    9  C   UNL     1     -10.000  17.142  68.529  1.00  0.00    -0.309 A  
HETATM   10  C   UNL     1      -9.919  16.631  67.237  1.00  0.00    -0.270 A  
HETATM   11  C   UNL     1     -10.851  16.543  69.455  1.00  0.00    -0.311 A  
BRANCH   7  12
HETATM   12  S   UNL     1     -12.158  13.228  67.462  1.00  0.00    -0.180 SA 
BRANCH  12  13
HETATM   13  C   UNL     1     -10.983  11.999  67.975  1.00  0.00    -0.223 A  
HETATM   14  C   UNL     1     -11.487  10.727  68.255  1.00  0.00    -0.353 A  
HETATM   15  C   UNL     1     -10.641   9.629  68.455  1.00  0.00    -0.264 A  
HETATM   16  C   UNL     1      -9.249   9.809  68.359  1.00  0.00    -0.130 A  
HETATM   17  C   UNL     1      -8.768  11.085  68.072  1.00  0.00    -0.138 A  
HETATM   18  C   UNL     1      -9.599  12.206  67.894  1.00  0.00    -0.198 A  
HETATM   19  N   UNL     1      -7.412  10.935  67.974  1.00  0.00    -0.088 NA 
HETATM   20  N   UNL     1      -6.975   9.684  68.180  1.00  0.00    -0.077 NA 
HETATM   21  H   UNL     1      -6.784  11.710  67.761  1.00  0.00     0.000 HD 
HETATM   22  C   UNL     1      -8.084   8.984  68.455  1.00  0.00    -0.108 A  
BRANCH  22  23
HETATM   23  C   UNL     1      -8.020   7.590  68.786  1.00  0.00    -0.126 C  
HETATM   24  C   UNL     1      -6.988   6.761  68.538  1.00  0.00    -0.076 C  
BRANCH  24  25
HETATM   25  C   UNL     1      -7.001   5.316  68.798  1.00  0.00    -0.060 A  
HETATM   26  C   UNL     1      -5.860   4.691  69.295  1.00  0.00    -0.017 A  
HETATM   27  C   UNL     1      -5.866   3.308  69.462  1.00  0.00    -0.023 A  
HETATM   28  C   UNL     1      -7.008   2.590  69.134  1.00  0.00    -0.040 A  
HETATM   29  C   UNL     1      -8.104   3.290  68.662  1.00  0.00    -0.060 A  
HETATM   30  N   UNL     1      -8.127   4.631  68.492  1.00  0.00    -0.083 NA 
ENDBRANCH  24  25
ENDBRANCH  22  23
ENDBRANCH  12  13
ENDBRANCH   7  12
ENDBRANCH   3   6
TORSDOF 5
ENDMDL
MODEL      163
REMARK 921   NORMALIZED FREE ENERGY PREDICTED BY IDOCK:   -3.85 KCAL/MOL
REMARK 922        TOTAL FREE ENERGY PREDICTED BY IDOCK:   -5.99 KCAL/MOL
REMARK 923 INTER-LIGAND FREE ENERGY PREDICTED BY IDOCK:   -5.88 KCAL/MOL
REMARK 924 INTRA-LIGAND FREE ENERGY PREDICTED BY IDOCK:   -0.11 KCAL/MOL
REMARK 927      BINDING AFFINITY PREDICTED BY RF-SCORE:    0.00 PKD
ROOT
HETATM    1  C   UNL     1      -6.783   3.714  66.304  1.00  0.00    -0.049 C  
HETATM    2  N   UNL     1      -7.137   4.860  67.096  1.00  0.00    -0.065 N  
HETATM    3  C   UNL     1      -8.429   5.339  67.129  1.00  0.00    -0.106 C  
HETATM    4  H   UNL     1      -6.417   5.330  67.646  1.00  0.00     0.000 HD 
HETATM    5  O   UNL     1      -9.312   4.956  66.368  1.00  0.00    -0.130 OA 
ENDROOT
BRANCH   3   6
HETATM    6  C   UNL     1      -8.702   6.427  68.119  1.00  0.00    -0.116 A  
HETATM    7  C   UNL     1      -9.180   7.714  67.769  1.00  0.00    -0.136 A  
HETATM    8  C   UNL     1      -9.469   8.617  68.804  1.00  0.00    -0.143 A  
HETATM    9  C   UNL     1      -8.708   7.031  70.470  1.00  0.00    -0.153 A  
HETATM   10  C   UNL     1      -9.244   8.273  70.144  1.00  0.00    -0.155 A  
HETATM   11  C   UNL     1      -8.443   6.108  69.461  1.00  0.00    -0.120 A  
BRANCH   7  12
HETATM   12  S   UNL     1      -9.156   8.260  66.065  1.00  0.00    -0.149 SA 
BRANCH  12  13
HETATM   13  C   UNL     1      -9.635   9.970  66.002  1.00  0.00    -0.222 A  
HETATM   14  C   UNL     1      -8.941  10.847  66.839  1.00  0.00    -0.158 A  
HETATM   15  C   UNL     1      -9.076  12.235  66.722  1.00  0.00    -0.211 A  
HETATM   16  C   UNL     1      -9.922  12.761  65.728  1.00  0.00    -0.259 A  
HETATM   17  C   UNL     1     -10.599  11.869  64.899  1.00  0.00    -0.287 A  
HETATM   18  C   UNL     1     -10.498  10.471  65.017  1.00  0.00    -0.221 A  
HETATM   19  N   UNL     1     -11.271  12.659  64.008  1.00  0.00    -0.376 NA 
HETATM   20  N   UNL     1     -11.097  13.976  64.192  1.00  0.00    -0.164 NA 
HETATM   21  H   UNL     1     -11.856  12.279  63.264  1.00  0.00     0.000 HD 
HETATM   22  C   UNL     1     -10.301  14.061  65.266  1.00  0.00    -0.383 A  
BRANCH  22  23
HETATM   23  C   UNL     1      -9.923  15.332  65.812  1.00  0.00    -0.391 C  
HETATM   24  C   UNL     1      -8.798  15.597  66.502  1.00  0.00    -0.345 C  
BRANCH  24  25
HETATM   25  C   UNL     1      -8.494  16.886  67.137  1.00  0.00    -0.197 A  
HETATM   26  C   UNL     1      -7.418  17.645  66.684  1.00  0.00    -0.270 A  
HETATM   27  C   UNL     1      -7.099  18.827  67.348  1.00  0.00    -0.213 A  
HETATM   28  C   UNL     1      -7.863  19.220  68.439  1.00  0.00    -0.377 A  
HETATM   29  C   UNL     1      -8.925  18.416  68.813  1.00  0.00    -0.229 A  
HETATM   30  N   UNL     1      -9.259  17.266  68.187  1.00  0.00    -0.260 NA 
ENDBRANCH  24  25
ENDBRANCH  22  23
ENDBRANCH  12  13
ENDBRANCH   7  12
ENDBRANCH   3   6
TORSDOF 5
ENDMDL
MODEL      164
REMARK 921   NORMALIZED FREE ENERGY PREDICTED BY IDOCK:   -3.83 KCAL/MOL
REMARK 922        TOTAL FREE ENERGY PREDICTED BY IDOCK:   -5.97 KCAL/MOL
REMARK 923 INTER-LIGAND FREE ENERGY PREDICTED BY IDOCK:   -5.34 KCAL/MOL
REMARK 924 INTRA-LIGAND FREE ENERGY PREDICTED BY IDOCK:   -0.63 KCAL/MOL
REMARK 927      BINDING AFFINITY PREDICTED BY RF-SCORE:    0.00 PKD
ROOT
HETATM    1  C   UNL     1     -11.797   9.364  71.618  1.00  0.00    -0.394 C  
HETATM    2  N   UNL     1     -11.351   8.678  70.437  1.00  0.00    -0.384 N  
HETATM    3  C   UNL     1     -10.189   7.936  70.433  1.00  0.00    -0.197 C  
HETATM    4  H   UNL     1     -11.905   8.741  69.583  1.00  0.00     0.000 HD 
HETATM    5  O   UNL     1      -9.373   7.953  71.350  1.00  0.00    -0.139 OA 
ENDROOT
BRANCH   3   6
HETATM    6  C   UNL     1      -9.923   7.136  69.198  1.00  0.00    -0.168 A  
HETATM    7  C   UNL     1      -8.650   7.019  68.587  1.00  0.00    -0.120 A  
HETATM    8  C   UNL     1      -8.523   6.173  67.476  1.00  0.00    -0.108 A  
HETATM    9  C   UNL     1     -10.895   5.677  67.519  1.00  0.00    -0.189 A  
HETATM   10  C   UNL     1      -9.636   5.499  66.953  1.00  0.00    -0.149 A  
HETATM   11  C   UNL     1     -11.037   6.488  68.641  1.00  0.00    -0.348 A  
BRANCH   7  12
HETATM   12  S   UNL     1      -7.317   8.120  69.050  1.00  0.00    -0.084 SA 
BRANCH  12  13
HETATM   13  C   UNL     1      -7.766   9.783  68.614  1.00  0.00    -0.080 A  
HETATM   14  C   UNL     1      -7.027  10.808  69.208  1.00  0.00    -0.102 A  
HETATM   15  C   UNL     1      -7.140  12.137  68.782  1.00  0.00    -0.110 A  
HETATM   16  C   UNL     1      -8.010  12.445  67.720  1.00  0.00    -0.156 A  
HETATM   17  C   UNL     1      -8.732  11.406  67.138  1.00  0.00    -0.155 A  
HETATM   18  C   UNL     1      -8.653  10.069  67.568  1.00  0.00    -0.122 A  
HETATM   19  N   UNL     1      -9.421  11.991  66.110  1.00  0.00    -0.235 NA 
HETATM   20  N   UNL     1      -9.217  13.310  65.984  1.00  0.00     0.008 NA 
HETATM   21  H   UNL     1     -10.039  11.467  65.491  1.00  0.00     0.000 HD 
HETATM   22  C   UNL     1      -8.382  13.616  66.986  1.00  0.00    -0.082 A  
BRANCH  22  23
HETATM   23  C   UNL     1      -7.962  14.968  67.217  1.00  0.00    -0.234 C  
HETATM   24  C   UNL     1      -8.586  16.078  66.783  1.00  0.00    -0.292 C  
BRANCH  24  25
HETATM   25  C   UNL     1      -8.069  17.443  66.950  1.00  0.00    -0.227 A  
HETATM   26  C   UNL     1      -8.837  18.530  66.539  1.00  0.00    -0.301 A  
HETATM   27  C   UNL     1      -8.298  19.811  66.635  1.00  0.00    -0.360 A  
HETATM   28  C   UNL     1      -7.015  19.972  67.141  1.00  0.00    -0.263 A  
HETATM   29  C   UNL     1      -6.327  18.841  67.542  1.00  0.00    -0.192 A  
HETATM   30  N   UNL     1      -6.825  17.586  67.462  1.00  0.00    -0.157 NA 
ENDBRANCH  24  25
ENDBRANCH  22  23
ENDBRANCH  12  13
ENDBRANCH   7  12
ENDBRANCH   3   6
TORSDOF 5
ENDMDL
MODEL      165
REMARK 921   NORMALIZED FREE ENERGY PREDICTED BY IDOCK:   -3.75 KCAL/MOL
REMARK 922        TOTAL FREE ENERGY PREDICTED BY IDOCK:   -5.87 KCAL/MOL
REMARK 923 INTER-LIGAND FREE ENERGY PREDICTED BY IDOCK:   -5.88 KCAL/MOL
REMARK 924 INTRA-LIGAND FREE ENERGY PREDICTED BY IDOCK:    0.01 KCAL/MOL
REMARK 927      BINDING AFFINITY PREDICTED BY RF-SCORE:    0.00 PKD
ROOT
HETATM    1  C   UNL     1     -10.709  17.724  65.993  1.00  0.00    -0.119 C  
HETATM    2  N   UNL     1      -9.790  16.673  66.338  1.00  0.00    -0.276 N  
HETATM    3  C   UNL     1     -10.166  15.632  67.159  1.00  0.00    -0.270 C  
HETATM    4  H   UNL     1      -8.840  16.698  65.966  1.00  0.00     0.000 HD 
HETATM    5  O   UNL     1     -11.218  15.615  67.792  1.00  0.00    -0.329 OA 
ENDROOT
BRANCH   3   6
HETATM    6  C   UNL     1      -9.178  14.519  67.304  1.00  0.00    -0.213 A  
HETATM    7  C   UNL     1      -9.528  13.147  67.337  1.00  0.00    -0.214 A  
HETATM    8  C   UNL     1      -8.495  12.200  67.398  1.00  0.00    -0.173 A  
HETATM    9  C   UNL     1      -6.826  13.953  67.511  1.00  0.00    -0.148 A  
HETATM   10  C   UNL     1      -7.154  12.602  67.474  1.00  0.00    -0.152 A  
HETATM   11  C   UNL     1      -7.835  14.909  67.421  1.00  0.00    -0.224 A  
BRANCH   7  12
HETATM   12  S   UNL     1     -11.232  12.650  67.568  1.00  0.00    -0.308 SA 
BRANCH  12  13
HETATM   13  C   UNL     1     -11.267  11.088  68.413  1.00  0.00    -0.274 A  
HETATM   14  C   UNL     1     -10.582  10.031  67.807  1.00  0.00    -0.311 A  
HETATM   15  C   UNL     1     -10.355   8.823  68.476  1.00  0.00    -0.231 A  
HETATM   16  C   UNL     1     -10.816   8.673  69.797  1.00  0.00    -0.185 A  
HETATM   17  C   UNL     1     -11.490   9.741  70.384  1.00  0.00    -0.280 A  
HETATM   18  C   UNL     1     -11.752  10.954  69.721  1.00  0.00    -0.413 A  
HETATM   19  N   UNL     1     -11.746   9.333  71.665  1.00  0.00    -0.369 NA 
HETATM   20  N   UNL     1     -11.309   8.098  71.952  1.00  0.00    -0.277 NA 
HETATM   21  H   UNL     1     -12.230   9.918  72.345  1.00  0.00     0.000 HD 
HETATM   22  C   UNL     1     -10.767   7.661  70.808  1.00  0.00    -0.226 A  
BRANCH  22  23
HETATM   23  C   UNL     1     -10.225   6.337  70.699  1.00  0.00    -0.240 C  
HETATM   24  C   UNL     1      -8.978   6.020  70.305  1.00  0.00    -0.152 C  
BRANCH  24  25
HETATM   25  C   UNL     1      -8.492   4.648  70.106  1.00  0.00    -0.074 A  
HETATM   26  C   UNL     1      -9.065   3.599  70.820  1.00  0.00    -0.182 A  
HETATM   27  C   UNL     1      -8.539   2.318  70.675  1.00  0.00    -0.099 A  
HETATM   28  C   UNL     1      -7.462   2.118  69.821  1.00  0.00    -0.043 A  
HETATM   29  C   UNL     1      -6.963   3.212  69.137  1.00  0.00    -0.041 A  
HETATM   30  N   UNL     1      -7.454   4.466  69.257  1.00  0.00    -0.055 NA 
ENDBRANCH  24  25
ENDBRANCH  22  23
ENDBRANCH  12  13
ENDBRANCH   7  12
ENDBRANCH   3   6
TORSDOF 5
ENDMDL
MODEL      166
REMARK 921   NORMALIZED FREE ENERGY PREDICTED BY IDOCK:   -3.73 KCAL/MOL
REMARK 922        TOTAL FREE ENERGY PREDICTED BY IDOCK:   -5.85 KCAL/MOL
REMARK 923 INTER-LIGAND FREE ENERGY PREDICTED BY IDOCK:   -4.97 KCAL/MOL
REMARK 924 INTRA-LIGAND FREE ENERGY PREDICTED BY IDOCK:   -0.87 KCAL/MOL
REMARK 927      BINDING AFFINITY PREDICTED BY RF-SCORE:    0.00 PKD
ROOT
HETATM    1  C   UNL     1      -7.338  19.356  69.084  1.00  0.00    -0.329 C  
HETATM    2  N   UNL     1      -8.265  18.470  68.436  1.00  0.00    -0.320 N  
HETATM    3  C   UNL     1      -7.835  17.493  67.564  1.00  0.00    -0.199 C  
HETATM    4  H   UNL     1      -9.263  18.565  68.625  1.00  0.00     0.000 HD 
HETATM    5  O   UNL     1      -6.685  17.423  67.141  1.00  0.00    -0.153 OA 
ENDROOT
BRANCH   3   6
HETATM    6  C   UNL     1      -8.876  16.530  67.088  1.00  0.00    -0.213 A  
HETATM    7  C   UNL     1      -9.114  15.265  67.678  1.00  0.00    -0.183 A  
HETATM    8  C   UNL     1     -10.175  14.491  67.183  1.00  0.00    -0.260 A  
HETATM    9  C   UNL     1     -10.660  16.152  65.486  1.00  0.00    -0.394 A  
HETATM   10  C   UNL     1     -10.948  14.938  66.102  1.00  0.00    -0.334 A  
HETATM   11  C   UNL     1      -9.631  16.949  65.981  1.00  0.00    -0.238 A  
BRANCH   7  12
HETATM   12  S   UNL     1      -7.935  14.562  68.827  1.00  0.00    -0.127 SA 
BRANCH  12  13
HETATM   13  C   UNL     1      -7.387  12.992  68.202  1.00  0.00    -0.118 A  
HETATM   14  C   UNL     1      -8.191  11.887  68.489  1.00  0.00    -0.126 A  
HETATM   15  C   UNL     1      -7.983  10.647  67.873  1.00  0.00    -0.106 A  
HETATM   16  C   UNL     1      -6.946  10.514  66.932  1.00  0.00    -0.096 A  
HETATM   17  C   UNL     1      -6.161  11.631  66.655  1.00  0.00    -0.094 A  
HETATM   18  C   UNL     1      -6.336  12.878  67.281  1.00  0.00    -0.018 A  
HETATM   19  N   UNL     1      -5.303  11.221  65.671  1.00  0.00    -0.455 NA 
HETATM   20  N   UNL     1      -5.457   9.943  65.297  1.00  0.00    -0.053 NA 
HETATM   21  H   UNL     1      -4.604  11.836  65.256  1.00  0.00     0.000 HD 
HETATM   22  C   UNL     1      -6.437   9.480  66.085  1.00  0.00    -0.070 A  
BRANCH  22  23
HETATM   23  C   UNL     1      -6.861   8.111  66.017  1.00  0.00    -0.057 C  
HETATM   24  C   UNL     1      -8.039   7.668  65.541  1.00  0.00    -0.130 C  
BRANCH  24  25
HETATM   25  C   UNL     1      -8.481   6.268  65.584  1.00  0.00    -0.148 A  
HETATM   26  C   UNL     1      -8.176   5.411  64.529  1.00  0.00    -0.133 A  
HETATM   27  C   UNL     1      -8.669   4.109  64.553  1.00  0.00    -0.129 A  
HETATM   28  C   UNL     1      -9.447   3.697  65.626  1.00  0.00    -0.156 A  
HETATM   29  C   UNL     1      -9.690   4.607  66.641  1.00  0.00    -0.199 A  
HETATM   30  N   UNL     1      -9.223   5.875  66.645  1.00  0.00    -0.136 NA 
ENDBRANCH  24  25
ENDBRANCH  22  23
ENDBRANCH  12  13
ENDBRANCH   7  12
ENDBRANCH   3   6
TORSDOF 5
ENDMDL
MODEL      167
REMARK 921   NORMALIZED FREE ENERGY PREDICTED BY IDOCK:   -3.71 KCAL/MOL
REMARK 922        TOTAL FREE ENERGY PREDICTED BY IDOCK:   -5.82 KCAL/MOL
REMARK 923 INTER-LIGAND FREE ENERGY PREDICTED BY IDOCK:   -5.23 KCAL/MOL
REMARK 924 INTRA-LIGAND FREE ENERGY PREDICTED BY IDOCK:   -0.58 KCAL/MOL
REMARK 927      BINDING AFFINITY PREDICTED BY RF-SCORE:    0.00 PKD
ROOT
HETATM    1  C   UNL     1      -9.673  13.235  67.176  1.00  0.00    -0.236 C  
HETATM    2  N   UNL     1     -10.213  13.675  68.434  1.00  0.00    -0.242 N  
HETATM    3  C   UNL     1     -11.562  13.592  68.704  1.00  0.00    -0.330 C  
HETATM    4  H   UNL     1      -9.585  14.056  69.142  1.00  0.00     0.000 HD 
HETATM    5  O   UNL     1     -12.407  13.321  67.855  1.00  0.00    -0.177 OA 
ENDROOT
BRANCH   3   6
HETATM    6  C   UNL     1     -11.974  13.922  70.103  1.00  0.00    -0.402 A  
HETATM    7  C   UNL     1     -12.589  13.000  70.986  1.00  0.00    -0.299 A  
HETATM    8  C   UNL     1     -12.854  13.417  72.300  1.00  0.00    -0.288 A  
HETATM    9  C   UNL     1     -12.025  15.642  71.815  1.00  0.00    -0.518 A  
HETATM   10  C   UNL     1     -12.564  14.725  72.712  1.00  0.00    -0.457 A  
HETATM   11  C   UNL     1     -11.726  15.240  70.516  1.00  0.00    -0.355 A  
BRANCH   7  12
HETATM   12  S   UNL     1     -13.250  11.455  70.371  1.00  0.00     0.787 SA 
BRANCH  12  13
HETATM   13  C   UNL     1     -11.926  10.277  70.238  1.00  0.00    -0.264 A  
HETATM   14  C   UNL     1     -11.795   9.360  71.283  1.00  0.00    -0.435 A  
HETATM   15  C   UNL     1     -10.938   8.256  71.190  1.00  0.00    -0.286 A  
HETATM   16  C   UNL     1     -10.200   8.059  70.008  1.00  0.00    -0.205 A  
HETATM   17  C   UNL     1     -10.352   8.982  68.975  1.00  0.00    -0.219 A  
HETATM   18  C   UNL     1     -11.187  10.111  69.059  1.00  0.00    -0.223 A  
HETATM   19  N   UNL     1      -9.581   8.496  67.955  1.00  0.00    -0.147 NA 
HETATM   20  N   UNL     1      -8.940   7.353  68.239  1.00  0.00    -0.130 NA 
HETATM   21  H   UNL     1      -9.499   8.964  67.053  1.00  0.00     0.000 HD 
HETATM   22  C   UNL     1      -9.278   7.086  69.508  1.00  0.00    -0.149 A  
BRANCH  22  23
HETATM   23  C   UNL     1      -8.741   5.949  70.197  1.00  0.00    -0.141 C  
HETATM   24  C   UNL     1      -8.972   5.618  71.481  1.00  0.00    -0.148 C  
BRANCH  24  25
HETATM   25  C   UNL     1      -8.322   4.503  72.183  1.00  0.00    -0.109 A  
HETATM   26  C   UNL     1      -7.248   3.843  71.591  1.00  0.00    -0.046 A  
HETATM   27  C   UNL     1      -6.695   2.740  72.237  1.00  0.00    -0.015 A  
HETATM   28  C   UNL     1      -7.224   2.330  73.454  1.00  0.00    -0.032 A  
HETATM   29  C   UNL     1      -8.281   3.051  73.980  1.00  0.00    -0.069 A  
HETATM   30  N   UNL     1      -8.836   4.126  73.376  1.00  0.00    -0.097 NA 
ENDBRANCH  24  25
ENDBRANCH  22  23
ENDBRANCH  12  13
ENDBRANCH   7  12
ENDBRANCH   3   6
TORSDOF 5
ENDMDL
MODEL      168
REMARK 921   NORMALIZED FREE ENERGY PREDICTED BY IDOCK:   -3.66 KCAL/MOL
REMARK 922        TOTAL FREE ENERGY PREDICTED BY IDOCK:   -5.75 KCAL/MOL
REMARK 923 INTER-LIGAND FREE ENERGY PREDICTED BY IDOCK:   -5.47 KCAL/MOL
REMARK 924 INTRA-LIGAND FREE ENERGY PREDICTED BY IDOCK:   -0.28 KCAL/MOL
REMARK 927      BINDING AFFINITY PREDICTED BY RF-SCORE:    0.00 PKD
ROOT
HETATM    1  C   UNL     1      -5.917  10.611  65.700  1.00  0.00    -0.128 C  
HETATM    2  N   UNL     1      -7.205  11.233  65.846  1.00  0.00    -0.367 N  
HETATM    3  C   UNL     1      -8.298  10.798  65.128  1.00  0.00    -0.064 C  
HETATM    4  H   UNL     1      -7.312  12.012  66.496  1.00  0.00     0.000 HD 
HETATM    5  O   UNL     1      -8.223   9.998  64.200  1.00  0.00    -0.145 OA 
ENDROOT
BRANCH   3   6
HETATM    6  C   UNL     1      -9.612  11.413  65.493  1.00  0.00    -0.256 A  
HETATM    7  C   UNL     1      -9.899  11.971  66.763  1.00  0.00    -0.204 A  
HETATM    8  C   UNL     1     -11.146  12.587  66.950  1.00  0.00    -0.323 A  
HETATM    9  C   UNL     1     -11.832  11.992  64.703  1.00  0.00    -0.342 A  
HETATM   10  C   UNL     1     -12.100  12.606  65.923  1.00  0.00    -0.459 A  
HETATM   11  C   UNL     1     -10.589  11.403  64.487  1.00  0.00    -0.390 A  
BRANCH   7  12
HETATM   12  S   UNL     1      -8.819  11.662  68.157  1.00  0.00    -0.167 SA 
BRANCH  12  13
HETATM   13  C   UNL     1      -9.110  10.014  68.755  1.00  0.00    -0.148 A  
HETATM   14  C   UNL     1      -8.172   9.498  69.653  1.00  0.00    -0.143 A  
HETATM   15  C   UNL     1      -8.404   8.309  70.355  1.00  0.00    -0.120 A  
HETATM   16  C   UNL     1      -9.617   7.623  70.160  1.00  0.00    -0.168 A  
HETATM   17  C   UNL     1     -10.541   8.159  69.266  1.00  0.00    -0.182 A  
HETATM   18  C   UNL     1     -10.317   9.338  68.531  1.00  0.00    -0.237 A  
HETATM   19  N   UNL     1     -11.625   7.328  69.342  1.00  0.00    -0.381 NA 
HETATM   20  N   UNL     1     -11.481   6.303  70.194  1.00  0.00    -0.412 NA 
HETATM   21  H   UNL     1     -12.473   7.476  68.795  1.00  0.00     0.000 HD 
HETATM   22  C   UNL     1     -10.241   6.444  70.680  1.00  0.00    -0.190 A  
BRANCH  22  23
HETATM   23  C   UNL     1      -9.690   5.494  71.602  1.00  0.00    -0.203 C  
HETATM   24  C   UNL     1      -8.490   4.893  71.501  1.00  0.00    -0.124 C  
BRANCH  24  25
HETATM   25  C   UNL     1      -8.004   3.846  72.409  1.00  0.00    -0.081 A  
HETATM   26  C   UNL     1      -7.104   2.889  71.946  1.00  0.00    -0.038 A  
HETATM   27  C   UNL     1      -6.714   1.860  72.800  1.00  0.00    -0.018 A  
HETATM   28  C   UNL     1      -7.228   1.816  74.089  1.00  0.00    -0.028 A  
HETATM   29  C   UNL     1      -8.105   2.815  74.475  1.00  0.00    -0.067 A  
HETATM   30  N   UNL     1      -8.498   3.826  73.668  1.00  0.00    -0.087 NA 
ENDBRANCH  24  25
ENDBRANCH  22  23
ENDBRANCH  12  13
ENDBRANCH   7  12
ENDBRANCH   3   6
TORSDOF 5
ENDMDL
MODEL      169
REMARK 921   NORMALIZED FREE ENERGY PREDICTED BY IDOCK:   -3.66 KCAL/MOL
REMARK 922        TOTAL FREE ENERGY PREDICTED BY IDOCK:   -5.75 KCAL/MOL
REMARK 923 INTER-LIGAND FREE ENERGY PREDICTED BY IDOCK:   -4.82 KCAL/MOL
REMARK 924 INTRA-LIGAND FREE ENERGY PREDICTED BY IDOCK:   -0.93 KCAL/MOL
REMARK 927      BINDING AFFINITY PREDICTED BY RF-SCORE:    0.00 PKD
ROOT
HETATM    1  C   UNL     1     -10.293   5.649  67.150  1.00  0.00    -0.248 C  
HETATM    2  N   UNL     1     -10.414   5.193  68.509  1.00  0.00    -0.081 N  
HETATM    3  C   UNL     1      -9.343   4.642  69.178  1.00  0.00    -0.142 C  
HETATM    4  H   UNL     1     -11.311   5.280  68.987  1.00  0.00     0.000 HD 
HETATM    5  O   UNL     1      -8.288   4.334  68.631  1.00  0.00    -0.082 OA 
ENDROOT
BRANCH   3   6
HETATM    6  C   UNL     1      -9.549   4.365  70.634  1.00  0.00    -0.262 A  
HETATM    7  C   UNL     1      -9.012   5.161  71.675  1.00  0.00    -0.134 A  
HETATM    8  C   UNL     1      -9.348   4.835  72.999  1.00  0.00    -0.140 A  
HETATM    9  C   UNL     1     -10.615   2.908  72.256  1.00  0.00     0.084 A  
HETATM   10  C   UNL     1     -10.152   3.723  73.284  1.00  0.00    -0.207 A  
HETATM   11  C   UNL     1     -10.319   3.231  70.934  1.00  0.00     0.750 A  
BRANCH   7  12
HETATM   12  S   UNL     1      -7.737   6.369  71.331  1.00  0.00    -0.100 SA 
BRANCH  12  13
HETATM   13  C   UNL     1      -8.504   7.883  70.807  1.00  0.00    -0.124 A  
HETATM   14  C   UNL     1      -7.666   8.851  70.249  1.00  0.00    -0.090 A  
HETATM   15  C   UNL     1      -8.179   9.984  69.606  1.00  0.00    -0.185 A  
HETATM   16  C   UNL     1      -9.574  10.145  69.508  1.00  0.00    -0.243 A  
HETATM   17  C   UNL     1     -10.391   9.164  70.066  1.00  0.00    -0.207 A  
HETATM   18  C   UNL     1      -9.897   8.032  70.739  1.00  0.00    -0.197 A  
HETATM   19  N   UNL     1     -11.666   9.553  69.757  1.00  0.00    -0.440 NA 
HETATM   20  N   UNL     1     -11.745  10.697  69.062  1.00  0.00    -0.264 NA 
HETATM   21  H   UNL     1     -12.488   9.017  70.033  1.00  0.00     0.000 HD 
HETATM   22  C   UNL     1     -10.473  11.096  68.930  1.00  0.00    -0.207 A  
BRANCH  22  23
HETATM   23  C   UNL     1     -10.145  12.329  68.274  1.00  0.00    -0.218 C  
HETATM   24  C   UNL     1     -10.798  13.498  68.410  1.00  0.00    -0.286 C  
BRANCH  24  25
HETATM   25  C   UNL     1     -10.496  14.714  67.643  1.00  0.00    -0.243 A  
HETATM   26  C   UNL     1     -10.790  15.964  68.181  1.00  0.00    -0.317 A  
HETATM   27  C   UNL     1     -10.568  17.101  67.408  1.00  0.00    -0.297 A  
HETATM   28  C   UNL     1     -10.058  16.960  66.124  1.00  0.00    -0.347 A  
HETATM   29  C   UNL     1      -9.779  15.682  65.672  1.00  0.00    -0.313 A  
HETATM   30  N   UNL     1      -9.982  14.562  66.401  1.00  0.00    -0.280 NA 
ENDBRANCH  24  25
ENDBRANCH  22  23
ENDBRANCH  12  13
ENDBRANCH   7  12
ENDBRANCH   3   6
TORSDOF 5
ENDMDL
MODEL      170
REMARK 921   NORMALIZED FREE ENERGY PREDICTED BY IDOCK:   -3.65 KCAL/MOL
REMARK 922        TOTAL FREE ENERGY PREDICTED BY IDOCK:   -5.74 KCAL/MOL
REMARK 923 INTER-LIGAND FREE ENERGY PREDICTED BY IDOCK:   -4.79 KCAL/MOL
REMARK 924 INTRA-LIGAND FREE ENERGY PREDICTED BY IDOCK:   -0.95 KCAL/MOL
REMARK 927      BINDING AFFINITY PREDICTED BY RF-SCORE:    0.00 PKD
ROOT
HETATM    1  C   UNL     1     -10.773   5.514  66.739  1.00  0.00    -0.253 C  
HETATM    2  N   UNL     1      -9.593   5.370  67.547  1.00  0.00    -0.121 N  
HETATM    3  C   UNL     1      -8.477   4.711  67.076  1.00  0.00    -0.105 C  
HETATM    4  H   UNL     1      -9.581   5.762  68.488  1.00  0.00     0.000 HD 
HETATM    5  O   UNL     1      -8.465   4.056  66.039  1.00  0.00    -0.108 OA 
ENDROOT
BRANCH   3   6
HETATM    6  C   UNL     1      -7.261   4.777  67.945  1.00  0.00    -0.066 A  
HETATM    7  C   UNL     1      -6.199   5.695  67.754  1.00  0.00    -0.033 A  
HETATM    8  C   UNL     1      -5.152   5.702  68.689  1.00  0.00     0.000 A  
HETATM    9  C   UNL     1      -6.147   3.847  69.890  1.00  0.00    -0.023 A  
HETATM   10  C   UNL     1      -5.133   4.791  69.754  1.00  0.00     0.000 A  
HETATM   11  C   UNL     1      -7.210   3.843  68.992  1.00  0.00    -0.054 A  
BRANCH   7  12
HETATM   12  S   UNL     1      -6.064   6.623  66.230  1.00  0.00    -0.034 SA 
BRANCH  12  13
HETATM   13  C   UNL     1      -7.407   7.782  66.141  1.00  0.00    -0.078 A  
HETATM   14  C   UNL     1      -7.583   8.624  67.242  1.00  0.00    -0.093 A  
HETATM   15  C   UNL     1      -8.460   9.714  67.201  1.00  0.00    -0.131 A  
HETATM   16  C   UNL     1      -9.173   9.977  66.016  1.00  0.00    -0.204 A  
HETATM   17  C   UNL     1      -8.977   9.129  64.928  1.00  0.00    -0.151 A  
HETATM   18  C   UNL     1      -8.121   8.014  64.957  1.00  0.00    -0.145 A  
HETATM   19  N   UNL     1      -9.733   9.668  63.923  1.00  0.00    -0.417 NA 
HETATM   20  N   UNL     1     -10.404  10.777  64.266  1.00  0.00    -0.366 NA 
HETATM   21  H   UNL     1      -9.782   9.261  62.989  1.00  0.00     0.000 HD 
HETATM   22  C   UNL     1     -10.103  10.964  65.558  1.00  0.00    -0.267 A  
BRANCH  22  23
HETATM   23  C   UNL     1     -10.680  12.042  66.308  1.00  0.00    -0.302 C  
HETATM   24  C   UNL     1     -10.228  13.309  66.353  1.00  0.00    -0.292 C  
BRANCH  24  25
HETATM   25  C   UNL     1     -10.783  14.361  67.214  1.00  0.00    -0.285 A  
HETATM   26  C   UNL     1     -10.513  15.699  66.936  1.00  0.00    -0.307 A  
HETATM   27  C   UNL     1     -10.983  16.677  67.808  1.00  0.00    -0.234 A  
HETATM   28  C   UNL     1     -11.712  16.296  68.927  1.00  0.00    -0.160 A  
HETATM   29  C   UNL     1     -11.949  14.946  69.121  1.00  0.00    -0.278 A  
HETATM   30  N   UNL     1     -11.506  13.976  68.290  1.00  0.00    -0.285 NA 
ENDBRANCH  24  25
ENDBRANCH  22  23
ENDBRANCH  12  13
ENDBRANCH   7  12
ENDBRANCH   3   6
TORSDOF 5
ENDMDL
MODEL      171
REMARK 921   NORMALIZED FREE ENERGY PREDICTED BY IDOCK:   -3.58 KCAL/MOL
REMARK 922        TOTAL FREE ENERGY PREDICTED BY IDOCK:   -5.65 KCAL/MOL
REMARK 923 INTER-LIGAND FREE ENERGY PREDICTED BY IDOCK:   -5.85 KCAL/MOL
REMARK 924 INTRA-LIGAND FREE ENERGY PREDICTED BY IDOCK:    0.20 KCAL/MOL
REMARK 927      BINDING AFFINITY PREDICTED BY RF-SCORE:    0.00 PKD
ROOT
HETATM    1  C   UNL     1      -9.597  18.156  66.897  1.00  0.00    -0.299 C  
HETATM    2  N   UNL     1     -10.289  17.399  67.905  1.00  0.00    -0.352 N  
HETATM    3  C   UNL     1     -10.854  16.175  67.621  1.00  0.00    -0.297 C  
HETATM    4  H   UNL     1     -10.363  17.776  68.850  1.00  0.00     0.000 HD 
HETATM    5  O   UNL     1     -10.972  15.731  66.483  1.00  0.00    -0.278 OA 
ENDROOT
BRANCH   3   6
HETATM    6  C   UNL     1     -11.394  15.413  68.790  1.00  0.00    -0.328 A  
HETATM    7  C   UNL     1     -11.199  14.025  68.990  1.00  0.00    -0.276 A  
HETATM    8  C   UNL     1     -11.694  13.449  70.170  1.00  0.00    -0.266 A  
HETATM    9  C   UNL     1     -12.651  15.565  70.861  1.00  0.00    -0.512 A  
HETATM   10  C   UNL     1     -12.405  14.217  71.102  1.00  0.00    -0.447 A  
HETATM   11  C   UNL     1     -12.143  16.163  69.711  1.00  0.00     0.019 A  
BRANCH   7  12
HETATM   12  S   UNL     1     -10.584  12.993  67.663  1.00  0.00    -0.226 SA 
BRANCH  12  13
HETATM   13  C   UNL     1      -9.880  11.518  68.360  1.00  0.00    -0.204 A  
HETATM   14  C   UNL     1     -10.656  10.836  69.299  1.00  0.00    -0.261 A  
HETATM   15  C   UNL     1     -10.307   9.558  69.751  1.00  0.00    -0.251 A  
HETATM   16  C   UNL     1      -9.152   8.940  69.238  1.00  0.00    -0.145 A  
HETATM   17  C   UNL     1      -8.397   9.635  68.297  1.00  0.00    -0.117 A  
HETATM   18  C   UNL     1      -8.715  10.930  67.848  1.00  0.00    -0.131 A  
HETATM   19  N   UNL     1      -7.399   8.770  67.939  1.00  0.00    -0.087 NA 
HETATM   20  N   UNL     1      -7.438   7.587  68.569  1.00  0.00    -0.105 NA 
HETATM   21  H   UNL     1      -6.685   9.004  67.250  1.00  0.00     0.000 HD 
HETATM   22  C   UNL     1      -8.486   7.684  69.398  1.00  0.00    -0.132 A  
BRANCH  22  23
HETATM   23  C   UNL     1      -8.827   6.617  70.294  1.00  0.00    -0.152 C  
HETATM   24  C   UNL     1      -8.585   6.584  71.618  1.00  0.00    -0.128 C  
BRANCH  24  25
HETATM   25  C   UNL     1      -8.855   5.429  72.484  1.00  0.00    -0.130 A  
HETATM   26  C   UNL     1     -10.104   5.289  73.084  1.00  0.00    -0.205 A  
HETATM   27  C   UNL     1     -10.316   4.230  73.963  1.00  0.00    -0.273 A  
HETATM   28  C   UNL     1      -9.281   3.340  74.216  1.00  0.00    -0.104 A  
HETATM   29  C   UNL     1      -8.076   3.542  73.566  1.00  0.00    -0.075 A  
HETATM   30  N   UNL     1      -7.843   4.559  72.707  1.00  0.00    -0.086 NA 
ENDBRANCH  24  25
ENDBRANCH  22  23
ENDBRANCH  12  13
ENDBRANCH   7  12
ENDBRANCH   3   6
TORSDOF 5
ENDMDL
MODEL      172
REMARK 921   NORMALIZED FREE ENERGY PREDICTED BY IDOCK:   -3.54 KCAL/MOL
REMARK 922        TOTAL FREE ENERGY PREDICTED BY IDOCK:   -5.59 KCAL/MOL
REMARK 923 INTER-LIGAND FREE ENERGY PREDICTED BY IDOCK:   -4.95 KCAL/MOL
REMARK 924 INTRA-LIGAND FREE ENERGY PREDICTED BY IDOCK:   -0.64 KCAL/MOL
REMARK 927      BINDING AFFINITY PREDICTED BY RF-SCORE:    0.00 PKD
ROOT
HETATM    1  C   UNL     1      -6.942   2.706  72.075  1.00  0.00    -0.030 C  
HETATM    2  N   UNL     1      -6.649   2.911  70.683  1.00  0.00    -0.031 N  
HETATM    3  C   UNL     1      -7.433   2.353  69.695  1.00  0.00    -0.043 C  
HETATM    4  H   UNL     1      -5.845   3.480  70.419  1.00  0.00     0.000 HD 
HETATM    5  O   UNL     1      -8.302   1.515  69.914  1.00  0.00    -0.044 OA 
ENDROOT
BRANCH   3   6
HETATM    6  C   UNL     1      -7.126   2.778  68.294  1.00  0.00    -0.049 A  
HETATM    7  C   UNL     1      -7.974   3.599  67.511  1.00  0.00    -0.082 A  
HETATM    8  C   UNL     1      -7.529   3.988  66.238  1.00  0.00    -0.088 A  
HETATM    9  C   UNL     1      -5.510   2.671  66.486  1.00  0.00    -0.016 A  
HETATM   10  C   UNL     1      -6.302   3.535  65.735  1.00  0.00    -0.032 A  
HETATM   11  C   UNL     1      -5.918   2.298  67.764  1.00  0.00    -0.024 A  
BRANCH   7  12
HETATM   12  S   UNL     1      -9.663   3.905  68.018  1.00  0.00     0.008 SA 
BRANCH  12  13
HETATM   13  C   UNL     1      -9.862   5.641  68.339  1.00  0.00    -0.139 A  
HETATM   14  C   UNL     1     -10.913   6.007  69.183  1.00  0.00    -0.429 A  
HETATM   15  C   UNL     1     -11.036   7.310  69.681  1.00  0.00    -0.204 A  
HETATM   16  C   UNL     1     -10.070   8.272  69.332  1.00  0.00    -0.198 A  
HETATM   17  C   UNL     1      -9.026   7.884  68.495  1.00  0.00    -0.133 A  
HETATM   18  C   UNL     1      -8.898   6.588  67.963  1.00  0.00    -0.114 A  
HETATM   19  N   UNL     1      -8.227   8.989  68.395  1.00  0.00    -0.115 NA 
HETATM   20  N   UNL     1      -8.664  10.055  69.082  1.00  0.00    -0.155 NA 
HETATM   21  H   UNL     1      -7.369   9.003  67.844  1.00  0.00     0.000 HD 
HETATM   22  C   UNL     1      -9.814   9.647  69.635  1.00  0.00    -0.215 A  
BRANCH  22  23
HETATM   23  C   UNL     1     -10.619  10.537  70.420  1.00  0.00     0.027 C  
HETATM   24  C   UNL     1     -11.619  11.313  69.963  1.00  0.00    -0.404 C  
BRANCH  24  25
HETATM   25  C   UNL     1     -12.353  12.291  70.778  1.00  0.00    -0.290 A  
HETATM   26  C   UNL     1     -12.179  13.654  70.550  1.00  0.00    -0.438 A  
HETATM   27  C   UNL     1     -12.823  14.565  71.382  1.00  0.00    -0.406 A  
HETATM   28  C   UNL     1     -13.625  14.094  72.414  1.00  0.00    -0.632 A  
HETATM   29  C   UNL     1     -13.757  12.724  72.561  1.00  0.00    -0.232 A  
HETATM   30  N   UNL     1     -13.145  11.817  71.767  1.00  0.00    -0.445 NA 
ENDBRANCH  24  25
ENDBRANCH  22  23
ENDBRANCH  12  13
ENDBRANCH   7  12
ENDBRANCH   3   6
TORSDOF 5
ENDMDL
MODEL      173
REMARK 921   NORMALIZED FREE ENERGY PREDICTED BY IDOCK:   -3.37 KCAL/MOL
REMARK 922        TOTAL FREE ENERGY PREDICTED BY IDOCK:   -5.38 KCAL/MOL
REMARK 923 INTER-LIGAND FREE ENERGY PREDICTED BY IDOCK:   -4.67 KCAL/MOL
REMARK 924 INTRA-LIGAND FREE ENERGY PREDICTED BY IDOCK:   -0.71 KCAL/MOL
REMARK 927      BINDING AFFINITY PREDICTED BY RF-SCORE:    0.00 PKD
ROOT
HETATM    1  C   UNL     1      -7.787  18.988  66.241  1.00  0.00    -0.287 C  
HETATM    2  N   UNL     1      -8.640  18.271  67.149  1.00  0.00    -0.244 N  
HETATM    3  C   UNL     1      -9.242  17.085  66.785  1.00  0.00    -0.252 C  
HETATM    4  H   UNL     1      -8.803  18.647  68.084  1.00  0.00     0.000 HD 
HETATM    5  O   UNL     1      -9.250  16.656  65.635  1.00  0.00    -0.491 OA 
ENDROOT
BRANCH   3   6
HETATM    6  C   UNL     1      -9.964  16.354  67.871  1.00  0.00    -0.243 A  
HETATM    7  C   UNL     1      -9.321  15.709  68.956  1.00  0.00    -0.243 A  
HETATM    8  C   UNL     1     -10.122  15.125  69.950  1.00  0.00    -0.146 A  
HETATM    9  C   UNL     1     -12.138  15.711  68.740  1.00  0.00    -0.131 A  
HETATM   10  C   UNL     1     -11.520  15.136  69.846  1.00  0.00    -0.315 A  
HETATM   11  C   UNL     1     -11.363  16.323  67.758  1.00  0.00    -0.081 A  
BRANCH   7  12
HETATM   12  S   UNL     1      -7.556  15.414  68.920  1.00  0.00    -0.181 SA 
BRANCH  12  13
HETATM   13  C   UNL     1      -7.260  13.771  68.313  1.00  0.00    -0.114 A  
HETATM   14  C   UNL     1      -8.276  12.834  68.516  1.00  0.00    -0.068 A  
HETATM   15  C   UNL     1      -8.252  11.579  67.898  1.00  0.00    -0.134 A  
HETATM   16  C   UNL     1      -7.185  11.257  67.039  1.00  0.00    -0.129 A  
HETATM   17  C   UNL     1      -6.186  12.208  66.845  1.00  0.00    -0.007 A  
HETATM   18  C   UNL     1      -6.177  13.465  67.477  1.00  0.00    -0.096 A  
HETATM   19  N   UNL     1      -5.342  11.648  65.926  1.00  0.00    -0.488 NA 
HETATM   20  N   UNL     1      -5.699  10.421  65.518  1.00  0.00    -0.103 NA 
HETATM   21  H   UNL     1      -4.509  12.123  65.578  1.00  0.00     0.000 HD 
HETATM   22  C   UNL     1      -6.809  10.147  66.217  1.00  0.00    -0.104 A  
BRANCH  22  23
HETATM   23  C   UNL     1      -7.473   8.882  66.093  1.00  0.00    -0.090 C  
HETATM   24  C   UNL     1      -7.141   7.745  66.733  1.00  0.00    -0.080 C  
BRANCH  24  25
HETATM   25  C   UNL     1      -7.779   6.443  66.501  1.00  0.00    -0.099 A  
HETATM   26  C   UNL     1      -8.875   6.061  67.271  1.00  0.00    -0.107 A  
HETATM   27  C   UNL     1      -9.418   4.791  67.089  1.00  0.00    -0.164 A  
HETATM   28  C   UNL     1      -8.858   3.942  66.144  1.00  0.00    -0.124 A  
HETATM   29  C   UNL     1      -7.780   4.406  65.409  1.00  0.00    -0.086 A  
HETATM   30  N   UNL     1      -7.234   5.633  65.564  1.00  0.00    -0.066 NA 
ENDBRANCH  24  25
ENDBRANCH  22  23
ENDBRANCH  12  13
ENDBRANCH   7  12
ENDBRANCH   3   6
TORSDOF 5
ENDMDL
MODEL      174
REMARK 921   NORMALIZED FREE ENERGY PREDICTED BY IDOCK:   -3.35 KCAL/MOL
REMARK 922        TOTAL FREE ENERGY PREDICTED BY IDOCK:   -5.35 KCAL/MOL
REMARK 923 INTER-LIGAND FREE ENERGY PREDICTED BY IDOCK:   -4.48 KCAL/MOL
REMARK 924 INTRA-LIGAND FREE ENERGY PREDICTED BY IDOCK:   -0.87 KCAL/MOL
REMARK 927      BINDING AFFINITY PREDICTED BY RF-SCORE:    0.00 PKD
ROOT
HETATM    1  C   UNL     1     -12.233  13.781  63.869  1.00  0.00    -0.351 C  
HETATM    2  N   UNL     1     -11.933  14.244  65.196  1.00  0.00    -0.378 N  
HETATM    3  C   UNL     1     -11.831  13.368  66.256  1.00  0.00    -0.394 C  
HETATM    4  H   UNL     1     -11.791  15.241  65.358  1.00  0.00     0.000 HD 
HETATM    5  O   UNL     1     -12.160  12.188  66.192  1.00  0.00    -0.621 OA 
ENDROOT
BRANCH   3   6
HETATM    6  C   UNL     1     -11.349  13.951  67.546  1.00  0.00    -0.342 A  
HETATM    7  C   UNL     1      -9.982  14.142  67.868  1.00  0.00    -0.231 A  
HETATM    8  C   UNL     1      -9.669  14.772  69.082  1.00  0.00    -0.149 A  
HETATM    9  C   UNL     1     -12.014  14.899  69.679  1.00  0.00    -0.360 A  
HETATM   10  C   UNL     1     -10.679  15.156  69.975  1.00  0.00    -0.259 A  
HETATM   11  C   UNL     1     -12.348  14.303  68.466  1.00  0.00    -0.034 A  
BRANCH   7  12
HETATM   12  S   UNL     1      -8.701  13.366  66.888  1.00  0.00    -0.082 SA 
BRANCH  12  13
HETATM   13  C   UNL     1      -8.199  11.861  67.687  1.00  0.00    -0.148 A  
HETATM   14  C   UNL     1      -8.646  10.667  67.114  1.00  0.00    -0.127 A  
HETATM   15  C   UNL     1      -8.144   9.425  67.519  1.00  0.00    -0.110 A  
HETATM   16  C   UNL     1      -7.154   9.377  68.518  1.00  0.00    -0.071 A  
HETATM   17  C   UNL     1      -6.718  10.579  69.070  1.00  0.00    -0.063 A  
HETATM   18  C   UNL     1      -7.228  11.836  68.697  1.00  0.00    -0.112 A  
HETATM   19  N   UNL     1      -5.725  10.224  69.942  1.00  0.00    -0.044 NA 
HETATM   20  N   UNL     1      -5.490   8.906  70.010  1.00  0.00    -0.028 NA 
HETATM   21  H   UNL     1      -5.207  10.906  70.496  1.00  0.00     0.000 HD 
HETATM   22  C   UNL     1      -6.382   8.364  69.170  1.00  0.00    -0.043 A  
BRANCH  22  23
HETATM   23  C   UNL     1      -6.478   6.943  69.003  1.00  0.00    -0.036 C  
HETATM   24  C   UNL     1      -7.616   6.227  68.933  1.00  0.00    -0.092 C  
BRANCH  24  25
HETATM   25  C   UNL     1      -7.674   4.761  68.866  1.00  0.00    -0.072 A  
HETATM   26  C   UNL     1      -8.041   4.135  67.677  1.00  0.00    -0.094 A  
HETATM   27  C   UNL     1      -8.165   2.748  67.656  1.00  0.00    -0.087 A  
HETATM   28  C   UNL     1      -7.916   2.026  68.815  1.00  0.00    -0.061 A  
HETATM   29  C   UNL     1      -7.541   2.724  69.949  1.00  0.00    -0.043 A  
HETATM   30  N   UNL     1      -7.410   4.069  69.998  1.00  0.00    -0.045 NA 
ENDBRANCH  24  25
ENDBRANCH  22  23
ENDBRANCH  12  13
ENDBRANCH   7  12
ENDBRANCH   3   6
TORSDOF 5
ENDMDL
MODEL      175
REMARK 921   NORMALIZED FREE ENERGY PREDICTED BY IDOCK:   -3.34 KCAL/MOL
REMARK 922        TOTAL FREE ENERGY PREDICTED BY IDOCK:   -5.34 KCAL/MOL
REMARK 923 INTER-LIGAND FREE ENERGY PREDICTED BY IDOCK:   -5.20 KCAL/MOL
REMARK 924 INTRA-LIGAND FREE ENERGY PREDICTED BY IDOCK:   -0.15 KCAL/MOL
REMARK 927      BINDING AFFINITY PREDICTED BY RF-SCORE:    0.00 PKD
ROOT
HETATM    1  C   UNL     1     -10.409  20.255  69.562  1.00  0.00     0.268 C  
HETATM    2  N   UNL     1      -9.480  19.854  68.541  1.00  0.00    -0.287 N  
HETATM    3  C   UNL     1      -8.262  19.293  68.859  1.00  0.00    -0.309 C  
HETATM    4  H   UNL     1      -9.727  19.986  67.560  1.00  0.00     0.000 HD 
HETATM    5  O   UNL     1      -7.808  19.263  69.999  1.00  0.00     0.447 OA 
ENDROOT
BRANCH   3   6
HETATM    6  C   UNL     1      -7.461  18.764  67.711  1.00  0.00    -0.245 A  
HETATM    7  C   UNL     1      -8.023  18.346  66.480  1.00  0.00    -0.271 A  
HETATM    8  C   UNL     1      -7.151  17.944  65.457  1.00  0.00     0.093 A  
HETATM    9  C   UNL     1      -5.230  18.256  66.901  1.00  0.00    -0.146 A  
HETATM   10  C   UNL     1      -5.765  17.910  65.664  1.00  0.00    -0.179 A  
HETATM   11  C   UNL     1      -6.076  18.687  67.921  1.00  0.00    -0.191 A  
BRANCH   7  12
HETATM   12  S   UNL     1      -9.787  18.082  66.328  1.00  0.00    -0.271 SA 
BRANCH  12  13
HETATM   13  C   UNL     1     -10.161  16.412  66.807  1.00  0.00    -0.285 A  
HETATM   14  C   UNL     1      -9.178  15.452  66.557  1.00  0.00    -0.323 A  
HETATM   15  C   UNL     1      -9.265  14.157  67.081  1.00  0.00    -0.237 A  
HETATM   16  C   UNL     1     -10.366  13.818  67.890  1.00  0.00    -0.244 A  
HETATM   17  C   UNL     1     -11.331  14.792  68.132  1.00  0.00    -0.307 A  
HETATM   18  C   UNL     1     -11.276  16.091  67.594  1.00  0.00    -0.183 A  
HETATM   19  N   UNL     1     -12.219  14.201  68.990  1.00  0.00    -0.521 NA 
HETATM   20  N   UNL     1     -11.919  12.935  69.313  1.00  0.00    -0.287 NA 
HETATM   21  H   UNL     1     -13.040  14.684  69.353  1.00  0.00     0.000 HD 
HETATM   22  C   UNL     1     -10.804  12.668  68.620  1.00  0.00    -0.249 A  
BRANCH  22  23
HETATM   23  C   UNL     1     -10.194  11.371  68.666  1.00  0.00    -0.217 C  
HETATM   24  C   UNL     1     -10.838  10.189  68.649  1.00  0.00    -0.272 C  
BRANCH  24  25
HETATM   25  C   UNL     1     -10.184   8.883  68.802  1.00  0.00    -0.206 A  
HETATM   26  C   UNL     1      -9.571   8.551  70.008  1.00  0.00    -0.170 A  
HETATM   27  C   UNL     1      -8.891   7.341  70.109  1.00  0.00    -0.145 A  
HETATM   28  C   UNL     1      -8.844   6.494  69.010  1.00  0.00    -0.130 A  
HETATM   29  C   UNL     1      -9.494   6.892  67.854  1.00  0.00    -0.120 A  
HETATM   30  N   UNL     1     -10.163   8.060  67.729  1.00  0.00    -0.208 NA 
ENDBRANCH  24  25
ENDBRANCH  22  23
ENDBRANCH  12  13
ENDBRANCH   7  12
ENDBRANCH   3   6
TORSDOF 5
ENDMDL
MODEL      176
REMARK 921   NORMALIZED FREE ENERGY PREDICTED BY IDOCK:   -3.32 KCAL/MOL
REMARK 922        TOTAL FREE ENERGY PREDICTED BY IDOCK:   -5.32 KCAL/MOL
REMARK 923 INTER-LIGAND FREE ENERGY PREDICTED BY IDOCK:   -5.73 KCAL/MOL
REMARK 924 INTRA-LIGAND FREE ENERGY PREDICTED BY IDOCK:    0.41 KCAL/MOL
REMARK 927      BINDING AFFINITY PREDICTED BY RF-SCORE:    0.00 PKD
ROOT
HETATM    1  C   UNL     1     -10.569  18.129  68.315  1.00  0.00    -0.249 C  
HETATM    2  N   UNL     1      -9.695  16.987  68.323  1.00  0.00    -0.264 N  
HETATM    3  C   UNL     1     -10.054  15.805  67.711  1.00  0.00    -0.238 C  
HETATM    4  H   UNL     1      -8.791  17.052  68.791  1.00  0.00     0.000 HD 
HETATM    5  O   UNL     1     -11.183  15.577  67.287  1.00  0.00    -0.308 OA 
ENDROOT
BRANCH   3   6
HETATM    6  C   UNL     1      -8.994  14.752  67.643  1.00  0.00    -0.183 A  
HETATM    7  C   UNL     1      -9.255  13.378  67.417  1.00  0.00    -0.213 A  
HETATM    8  C   UNL     1      -8.161  12.506  67.298  1.00  0.00    -0.184 A  
HETATM    9  C   UNL     1      -6.608  14.313  67.739  1.00  0.00    -0.189 A  
HETATM   10  C   UNL     1      -6.848  12.974  67.448  1.00  0.00    -0.126 A  
HETATM   11  C   UNL     1      -7.677  15.201  67.831  1.00  0.00    -0.145 A  
BRANCH   7  12
HETATM   12  S   UNL     1     -10.920  12.735  67.550  1.00  0.00    -0.259 SA 
BRANCH  12  13
HETATM   13  C   UNL     1     -10.903  11.309  68.609  1.00  0.00    -0.204 A  
HETATM   14  C   UNL     1      -9.721  10.564  68.639  1.00  0.00    -0.175 A  
HETATM   15  C   UNL     1      -9.512   9.557  69.589  1.00  0.00    -0.213 A  
HETATM   16  C   UNL     1     -10.512   9.296  70.544  1.00  0.00    -0.312 A  
HETATM   17  C   UNL     1     -11.679  10.055  70.499  1.00  0.00    -0.318 A  
HETATM   18  C   UNL     1     -11.920  11.053  69.538  1.00  0.00    -0.413 A  
HETATM   19  N   UNL     1     -12.415   9.630  71.572  1.00  0.00    -0.359 NA 
HETATM   20  N   UNL     1     -11.834   8.662  72.295  1.00  0.00    -0.376 NA 
HETATM   21  H   UNL     1     -13.330  10.017  71.802  1.00  0.00     0.000 HD 
HETATM   22  C   UNL     1     -10.680   8.417  71.660  1.00  0.00    -0.265 A  
BRANCH  22  23
HETATM   23  C   UNL     1      -9.786   7.390  72.112  1.00  0.00    -0.205 C  
HETATM   24  C   UNL     1      -8.596   7.582  72.711  1.00  0.00    -0.159 C  
BRANCH  24  25
HETATM   25  C   UNL     1      -7.660   6.506  73.065  1.00  0.00    -0.093 A  
HETATM   26  C   UNL     1      -7.997   5.595  74.063  1.00  0.00    -0.102 A  
HETATM   27  C   UNL     1      -7.066   4.630  74.438  1.00  0.00    -0.073 A  
HETATM   28  C   UNL     1      -5.829   4.598  73.807  1.00  0.00    -0.021 A  
HETATM   29  C   UNL     1      -5.581   5.531  72.815  1.00  0.00    -0.023 A  
HETATM   30  N   UNL     1      -6.466   6.476  72.429  1.00  0.00    -0.058 NA 
ENDBRANCH  24  25
ENDBRANCH  22  23
ENDBRANCH  12  13
ENDBRANCH   7  12
ENDBRANCH   3   6
TORSDOF 5
ENDMDL
MODEL      177
REMARK 921   NORMALIZED FREE ENERGY PREDICTED BY IDOCK:   -3.30 KCAL/MOL
REMARK 922        TOTAL FREE ENERGY PREDICTED BY IDOCK:   -5.29 KCAL/MOL
REMARK 923 INTER-LIGAND FREE ENERGY PREDICTED BY IDOCK:   -4.80 KCAL/MOL
REMARK 924 INTRA-LIGAND FREE ENERGY PREDICTED BY IDOCK:   -0.49 KCAL/MOL
REMARK 927      BINDING AFFINITY PREDICTED BY RF-SCORE:    0.00 PKD
ROOT
HETATM    1  C   UNL     1      -5.780   3.879  71.839  1.00  0.00    -0.008 C  
HETATM    2  N   UNL     1      -5.933   3.845  70.410  1.00  0.00    -0.017 N  
HETATM    3  C   UNL     1      -7.011   3.221  69.819  1.00  0.00    -0.041 C  
HETATM    4  H   UNL     1      -5.230   4.290  69.821  1.00  0.00     0.000 HD 
HETATM    5  O   UNL     1      -7.802   2.510  70.431  1.00  0.00    -0.043 OA 
ENDROOT
BRANCH   3   6
HETATM    6  C   UNL     1      -7.144   3.401  68.339  1.00  0.00    -0.050 A  
HETATM    7  C   UNL     1      -8.300   3.916  67.704  1.00  0.00    -0.094 A  
HETATM    8  C   UNL     1      -8.264   4.107  66.314  1.00  0.00    -0.105 A  
HETATM    9  C   UNL     1      -6.029   3.178  66.195  1.00  0.00    -0.023 A  
HETATM   10  C   UNL     1      -7.132   3.749  65.568  1.00  0.00    -0.063 A  
HETATM   11  C   UNL     1      -6.033   3.009  67.577  1.00  0.00    -0.027 A  
BRANCH   7  12
HETATM   12  S   UNL     1      -9.841   4.064  68.603  1.00  0.00     0.140 SA 
BRANCH  12  13
HETATM   13  C   UNL     1     -10.083   5.765  69.054  1.00  0.00    -0.191 A  
HETATM   14  C   UNL     1      -9.433   6.721  68.270  1.00  0.00    -0.125 A  
HETATM   15  C   UNL     1      -9.717   8.087  68.389  1.00  0.00    -0.168 A  
HETATM   16  C   UNL     1     -10.691   8.506  69.314  1.00  0.00    -0.147 A  
HETATM   17  C   UNL     1     -11.332   7.536  70.081  1.00  0.00    -0.151 A  
HETATM   18  C   UNL     1     -11.043   6.162  69.995  1.00  0.00    -0.462 A  
HETATM   19  N   UNL     1     -12.255   8.226  70.819  1.00  0.00    -0.495 NA 
HETATM   20  N   UNL     1     -12.261   9.549  70.605  1.00  0.00    -0.185 NA 
HETATM   21  H   UNL     1     -12.887   7.771  71.477  1.00  0.00     0.000 HD 
HETATM   22  C   UNL     1     -11.283   9.747  69.711  1.00  0.00    -0.202 A  
BRANCH  22  23
HETATM   23  C   UNL     1     -10.942  11.066  69.261  1.00  0.00    -0.305 C  
HETATM   24  C   UNL     1     -11.544  12.211  69.633  1.00  0.00    -0.361 C  
BRANCH  24  25
HETATM   25  C   UNL     1     -11.236  13.533  69.071  1.00  0.00    -0.269 A  
HETATM   26  C   UNL     1     -10.965  14.602  69.922  1.00  0.00    -0.194 A  
HETATM   27  C   UNL     1     -10.752  15.864  69.373  1.00  0.00    -0.272 A  
HETATM   28  C   UNL     1     -10.811  16.024  67.995  1.00  0.00    -0.335 A  
HETATM   29  C   UNL     1     -11.069  14.906  67.220  1.00  0.00    -0.336 A  
HETATM   30  N   UNL     1     -11.278  13.670  67.726  1.00  0.00    -0.274 NA 
ENDBRANCH  24  25
ENDBRANCH  22  23
ENDBRANCH  12  13
ENDBRANCH   7  12
ENDBRANCH   3   6
TORSDOF 5
ENDMDL
MODEL      178
REMARK 921   NORMALIZED FREE ENERGY PREDICTED BY IDOCK:   -3.29 KCAL/MOL
REMARK 922        TOTAL FREE ENERGY PREDICTED BY IDOCK:   -5.27 KCAL/MOL
REMARK 923 INTER-LIGAND FREE ENERGY PREDICTED BY IDOCK:   -4.33 KCAL/MOL
REMARK 924 INTRA-LIGAND FREE ENERGY PREDICTED BY IDOCK:   -0.95 KCAL/MOL
REMARK 927      BINDING AFFINITY PREDICTED BY RF-SCORE:    0.00 PKD
ROOT
HETATM    1  C   UNL     1     -10.643   6.270  71.648  1.00  0.00    -0.227 C  
HETATM    2  N   UNL     1      -9.867   5.456  70.751  1.00  0.00    -0.179 N  
HETATM    3  C   UNL     1      -8.641   4.948  71.123  1.00  0.00    -0.122 C  
HETATM    4  H   UNL     1     -10.231   5.251  69.821  1.00  0.00     0.000 HD 
HETATM    5  O   UNL     1      -8.047   5.289  72.142  1.00  0.00    -0.110 OA 
ENDROOT
BRANCH   3   6
HETATM    6  C   UNL     1      -8.013   3.982  70.169  1.00  0.00    -0.051 A  
HETATM    7  C   UNL     1      -6.791   4.218  69.492  1.00  0.00    -0.045 A  
HETATM    8  C   UNL     1      -6.273   3.194  68.684  1.00  0.00    -0.029 A  
HETATM    9  C   UNL     1      -8.204   1.799  69.127  1.00  0.00    -0.067 A  
HETATM   10  C   UNL     1      -6.971   1.990  68.512  1.00  0.00    -0.039 A  
HETATM   11  C   UNL     1      -8.721   2.789  69.957  1.00  0.00    -0.126 A  
BRANCH   7  12
HETATM   12  S   UNL     1      -6.075   5.858  69.454  1.00  0.00    -0.030 SA 
BRANCH  12  13
HETATM   13  C   UNL     1      -7.214   6.964  68.658  1.00  0.00    -0.088 A  
HETATM   14  C   UNL     1      -7.370   8.227  69.236  1.00  0.00    -0.076 A  
HETATM   15  C   UNL     1      -8.065   9.252  68.584  1.00  0.00    -0.105 A  
HETATM   16  C   UNL     1      -8.610   9.009  67.310  1.00  0.00    -0.115 A  
HETATM   17  C   UNL     1      -8.437   7.746  66.749  1.00  0.00    -0.126 A  
HETATM   18  C   UNL     1      -7.765   6.694  67.398  1.00  0.00    -0.109 A  
HETATM   19  N   UNL     1      -9.001   7.834  65.506  1.00  0.00    -0.380 NA 
HETATM   20  N   UNL     1      -9.529   9.032  65.219  1.00  0.00    -0.121 NA 
HETATM   21  H   UNL     1      -9.019   7.052  64.851  1.00  0.00     0.000 HD 
HETATM   22  C   UNL     1      -9.332   9.758  66.327  1.00  0.00    -0.180 A  
BRANCH  22  23
HETATM   23  C   UNL     1      -9.812  11.106  66.428  1.00  0.00    -0.248 C  
HETATM   24  C   UNL     1      -9.092  12.223  66.211  1.00  0.00    -0.125 C  
BRANCH  24  25
HETATM   25  C   UNL     1      -9.590  13.588  66.425  1.00  0.00    -0.259 A  
HETATM   26  C   UNL     1      -9.208  14.294  67.564  1.00  0.00    -0.197 A  
HETATM   27  C   UNL     1      -9.751  15.557  67.788  1.00  0.00    -0.211 A  
HETATM   28  C   UNL     1     -10.652  16.081  66.872  1.00  0.00    -0.300 A  
HETATM   29  C   UNL     1     -10.965  15.321  65.758  1.00  0.00    -0.338 A  
HETATM   30  N   UNL     1     -10.453  14.094  65.514  1.00  0.00    -0.321 NA 
ENDBRANCH  24  25
ENDBRANCH  22  23
ENDBRANCH  12  13
ENDBRANCH   7  12
ENDBRANCH   3   6
TORSDOF 5
ENDMDL
MODEL      179
REMARK 921   NORMALIZED FREE ENERGY PREDICTED BY IDOCK:   -3.26 KCAL/MOL
REMARK 922        TOTAL FREE ENERGY PREDICTED BY IDOCK:   -5.23 KCAL/MOL
REMARK 923 INTER-LIGAND FREE ENERGY PREDICTED BY IDOCK:   -4.76 KCAL/MOL
REMARK 924 INTRA-LIGAND FREE ENERGY PREDICTED BY IDOCK:   -0.48 KCAL/MOL
REMARK 927      BINDING AFFINITY PREDICTED BY RF-SCORE:    0.00 PKD
ROOT
HETATM    1  C   UNL     1      -8.291  16.481  66.239  1.00  0.00    -0.329 C  
HETATM    2  N   UNL     1      -9.161  16.018  67.286  1.00  0.00    -0.203 N  
HETATM    3  C   UNL     1     -10.390  15.460  67.003  1.00  0.00    -0.280 C  
HETATM    4  H   UNL     1      -8.864  16.104  68.258  1.00  0.00     0.000 HD 
HETATM    5  O   UNL     1     -10.903  15.481  65.889  1.00  0.00    -0.326 OA 
ENDROOT
BRANCH   3   6
HETATM    6  C   UNL     1     -11.124  14.865  68.163  1.00  0.00    -0.290 A  
HETATM    7  C   UNL     1     -11.370  13.479  68.319  1.00  0.00    -0.294 A  
HETATM    8  C   UNL     1     -12.002  13.046  69.494  1.00  0.00    -0.350 A  
HETATM    9  C   UNL     1     -12.239  15.330  70.268  1.00  0.00    -0.403 A  
HETATM   10  C   UNL     1     -12.424  13.965  70.465  1.00  0.00    -0.422 A  
HETATM   11  C   UNL     1     -11.586  15.778  69.123  1.00  0.00    -0.399 A  
BRANCH   7  12
HETATM   12  S   UNL     1     -11.128  12.354  66.948  1.00  0.00    -0.305 SA 
BRANCH  12  13
HETATM   13  C   UNL     1     -10.765  10.737  67.588  1.00  0.00    -0.258 A  
HETATM   14  C   UNL     1      -9.434  10.318  67.516  1.00  0.00    -0.171 A  
HETATM   15  C   UNL     1      -8.990   9.167  68.178  1.00  0.00    -0.129 A  
HETATM   16  C   UNL     1      -9.903   8.421  68.946  1.00  0.00    -0.184 A  
HETATM   17  C   UNL     1     -11.223   8.861  69.010  1.00  0.00     0.304 A  
HETATM   18  C   UNL     1     -11.696   9.999  68.332  1.00  0.00     0.357 A  
HETATM   19  N   UNL     1     -11.840   7.993  69.869  1.00  0.00    -0.197 NA 
HETATM   20  N   UNL     1     -11.043   7.030  70.354  1.00  0.00    -0.274 NA 
HETATM   21  H   UNL     1     -12.826   8.070  70.119  1.00  0.00     0.000 HD 
HETATM   22  C   UNL     1      -9.857   7.253  69.772  1.00  0.00    -0.177 A  
BRANCH  22  23
HETATM   23  C   UNL     1      -8.739   6.386  70.006  1.00  0.00    -0.142 C  
HETATM   24  C   UNL     1      -8.730   5.047  69.869  1.00  0.00    -0.122 C  
BRANCH  24  25
HETATM   25  C   UNL     1      -7.596   4.182  70.218  1.00  0.00    -0.045 A  
HETATM   26  C   UNL     1      -6.366   4.749  70.543  1.00  0.00    -0.026 A  
HETATM   27  C   UNL     1      -5.283   3.911  70.796  1.00  0.00    -0.004 A  
HETATM   28  C   UNL     1      -5.457   2.535  70.723  1.00  0.00    -0.012 A  
HETATM   29  C   UNL     1      -6.716   2.054  70.409  1.00  0.00    -0.032 A  
HETATM   30  N   UNL     1      -7.785   2.844  70.161  1.00  0.00    -0.043 NA 
ENDBRANCH  24  25
ENDBRANCH  22  23
ENDBRANCH  12  13
ENDBRANCH   7  12
ENDBRANCH   3   6
TORSDOF 5
ENDMDL
MODEL      180
REMARK 921   NORMALIZED FREE ENERGY PREDICTED BY IDOCK:   -3.16 KCAL/MOL
REMARK 922        TOTAL FREE ENERGY PREDICTED BY IDOCK:   -5.11 KCAL/MOL
REMARK 923 INTER-LIGAND FREE ENERGY PREDICTED BY IDOCK:   -4.52 KCAL/MOL
REMARK 924 INTRA-LIGAND FREE ENERGY PREDICTED BY IDOCK:   -0.58 KCAL/MOL
REMARK 927      BINDING AFFINITY PREDICTED BY RF-SCORE:    0.00 PKD
ROOT
HETATM    1  C   UNL     1     -10.736   9.199  66.195  1.00  0.00     0.649 C  
HETATM    2  N   UNL     1      -9.595   8.365  66.458  1.00  0.00    -0.218 N  
HETATM    3  C   UNL     1      -8.346   8.683  65.969  1.00  0.00    -0.131 C  
HETATM    4  H   UNL     1      -9.711   7.520  67.018  1.00  0.00     0.000 HD 
HETATM    5  O   UNL     1      -8.147   9.570  65.144  1.00  0.00    -0.117 OA 
ENDROOT
BRANCH   3   6
HETATM    6  C   UNL     1      -7.214   7.831  66.452  1.00  0.00    -0.075 A  
HETATM    7  C   UNL     1      -6.844   7.703  67.813  1.00  0.00    -0.068 A  
HETATM    8  C   UNL     1      -5.812   6.808  68.137  1.00  0.00    -0.020 A  
HETATM    9  C   UNL     1      -5.460   6.287  65.797  1.00  0.00    -0.014 A  
HETATM   10  C   UNL     1      -5.134   6.099  67.137  1.00  0.00    -0.005 A  
HETATM   11  C   UNL     1      -6.501   7.146  65.456  1.00  0.00    -0.047 A  
BRANCH   7  12
HETATM   12  S   UNL     1      -7.483   8.839  69.040  1.00  0.00    -0.082 SA 
BRANCH  12  13
HETATM   13  C   UNL     1      -7.423  10.488  68.382  1.00  0.00    -0.092 A  
HETATM   14  C   UNL     1      -8.603  11.233  68.450  1.00  0.00    -0.155 A  
HETATM   15  C   UNL     1      -8.622  12.605  68.168  1.00  0.00    -0.188 A  
HETATM   16  C   UNL     1      -7.422  13.251  67.820  1.00  0.00    -0.154 A  
HETATM   17  C   UNL     1      -6.256  12.490  67.765  1.00  0.00    -0.119 A  
HETATM   18  C   UNL     1      -6.219  11.107  68.019  1.00  0.00    -0.049 A  
HETATM   19  N   UNL     1      -5.265  13.388  67.477  1.00  0.00    -0.328 NA 
HETATM   20  N   UNL     1      -5.685  14.652  67.332  1.00  0.00    -0.308 NA 
HETATM   21  H   UNL     1      -4.286  13.118  67.381  1.00  0.00     0.000 HD 
HETATM   22  C   UNL     1      -7.012  14.585  67.502  1.00  0.00    -0.164 A  
BRANCH  22  23
HETATM   23  C   UNL     1      -7.840  15.749  67.370  1.00  0.00    -0.203 C  
HETATM   24  C   UNL     1      -7.437  17.027  67.499  1.00  0.00    -0.181 C  
BRANCH  24  25
HETATM   25  C   UNL     1      -8.334  18.190  67.460  1.00  0.00    -0.237 A  
HETATM   26  C   UNL     1      -9.017  18.577  68.610  1.00  0.00    -0.323 A  
HETATM   27  C   UNL     1      -9.921  19.634  68.534  1.00  0.00    -0.542 A  
HETATM   28  C   UNL     1     -10.114  20.276  67.319  1.00  0.00    -0.545 A  
HETATM   29  C   UNL     1      -9.383  19.840  66.228  1.00  0.00    -0.391 A  
HETATM   30  N   UNL     1      -8.498  18.818  66.273  1.00  0.00    -0.416 NA 
ENDBRANCH  24  25
ENDBRANCH  22  23
ENDBRANCH  12  13
ENDBRANCH   7  12
ENDBRANCH   3   6
TORSDOF 5
ENDMDL
MODEL      181
REMARK 921   NORMALIZED FREE ENERGY PREDICTED BY IDOCK:   -3.14 KCAL/MOL
REMARK 922        TOTAL FREE ENERGY PREDICTED BY IDOCK:   -5.08 KCAL/MOL
REMARK 923 INTER-LIGAND FREE ENERGY PREDICTED BY IDOCK:   -4.23 KCAL/MOL
REMARK 924 INTRA-LIGAND FREE ENERGY PREDICTED BY IDOCK:   -0.86 KCAL/MOL
REMARK 927      BINDING AFFINITY PREDICTED BY RF-SCORE:    0.00 PKD
ROOT
HETATM    1  C   UNL     1      -9.832  12.538  66.815  1.00  0.00    -0.229 C  
HETATM    2  N   UNL     1     -10.328  12.908  68.113  1.00  0.00    -0.234 N  
HETATM    3  C   UNL     1     -11.671  13.127  68.332  1.00  0.00    -0.351 C  
HETATM    4  H   UNL     1      -9.672  13.011  68.887  1.00  0.00     0.000 HD 
HETATM    5  O   UNL     1     -12.500  13.204  67.431  1.00  0.00    -0.150 OA 
ENDROOT
BRANCH   3   6
HETATM    6  C   UNL     1     -12.078  13.339  69.756  1.00  0.00    -0.355 A  
HETATM    7  C   UNL     1     -12.373  12.289  70.660  1.00  0.00    -0.286 A  
HETATM    8  C   UNL     1     -12.667  12.624  71.991  1.00  0.00    -0.124 A  
HETATM    9  C   UNL     1     -12.493  14.988  71.488  1.00  0.00    -0.400 A  
HETATM   10  C   UNL     1     -12.716  13.963  72.402  1.00  0.00    -0.294 A  
HETATM   11  C   UNL     1     -12.170  14.677  70.170  1.00  0.00    -0.391 A  
BRANCH   7  12
HETATM   12  S   UNL     1     -12.627  10.621  70.064  1.00  0.00    -0.050 SA 
BRANCH  12  13
HETATM   13  C   UNL     1     -11.093   9.731  70.173  1.00  0.00    -0.285 A  
HETATM   14  C   UNL     1     -11.170   8.338  70.101  1.00  0.00    -0.132 A  
HETATM   15  C   UNL     1     -10.024   7.546  69.957  1.00  0.00    -0.186 A  
HETATM   16  C   UNL     1      -8.766   8.169  69.869  1.00  0.00    -0.138 A  
HETATM   17  C   UNL     1      -8.714   9.560  69.935  1.00  0.00    -0.210 A  
HETATM   18  C   UNL     1      -9.849  10.372  70.106  1.00  0.00     0.156 A  
HETATM   19  N   UNL     1      -7.393   9.870  69.754  1.00  0.00    -0.111 NA 
HETATM   20  N   UNL     1      -6.591   8.808  69.587  1.00  0.00    -0.039 NA 
HETATM   21  H   UNL     1      -7.047  10.829  69.746  1.00  0.00     0.000 HD 
HETATM   22  C   UNL     1      -7.408   7.752  69.691  1.00  0.00    -0.088 A  
BRANCH  22  23
HETATM   23  C   UNL     1      -6.904   6.411  69.616  1.00  0.00    -0.065 C  
HETATM   24  C   UNL     1      -7.453   5.395  68.926  1.00  0.00    -0.075 C  
BRANCH  24  25
HETATM   25  C   UNL     1      -6.967   4.009  68.957  1.00  0.00    -0.047 A  
HETATM   26  C   UNL     1      -7.086   3.258  70.124  1.00  0.00    -0.041 A  
HETATM   27  C   UNL     1      -6.550   1.974  70.158  1.00  0.00    -0.029 A  
HETATM   28  C   UNL     1      -5.915   1.473  69.029  1.00  0.00    -0.024 A  
HETATM   29  C   UNL     1      -5.854   2.278  67.906  1.00  0.00    -0.020 A  
HETATM   30  N   UNL     1      -6.367   3.528  67.844  1.00  0.00    -0.036 NA 
ENDBRANCH  24  25
ENDBRANCH  22  23
ENDBRANCH  12  13
ENDBRANCH   7  12
ENDBRANCH   3   6
TORSDOF 5
ENDMDL
MODEL      182
REMARK 921   NORMALIZED FREE ENERGY PREDICTED BY IDOCK:   -3.12 KCAL/MOL
REMARK 922        TOTAL FREE ENERGY PREDICTED BY IDOCK:   -5.05 KCAL/MOL
REMARK 923 INTER-LIGAND FREE ENERGY PREDICTED BY IDOCK:   -5.17 KCAL/MOL
REMARK 924 INTRA-LIGAND FREE ENERGY PREDICTED BY IDOCK:    0.12 KCAL/MOL
REMARK 927      BINDING AFFINITY PREDICTED BY RF-SCORE:    0.00 PKD
ROOT
HETATM    1  C   UNL     1      -9.330   2.505  67.460  1.00  0.00    -0.129 C  
HETATM    2  N   UNL     1      -9.358   3.785  66.806  1.00  0.00    -0.179 N  
HETATM    3  C   UNL     1      -8.432   4.762  67.101  1.00  0.00    -0.105 C  
HETATM    4  H   UNL     1     -10.078   3.974  66.108  1.00  0.00     0.000 HD 
HETATM    5  O   UNL     1      -7.651   4.692  68.045  1.00  0.00    -0.076 OA 
ENDROOT
BRANCH   3   6
HETATM    6  C   UNL     1      -8.464   5.981  66.234  1.00  0.00    -0.130 A  
HETATM    7  C   UNL     1      -8.875   7.261  66.681  1.00  0.00    -0.139 A  
HETATM    8  C   UNL     1      -8.782   8.337  65.786  1.00  0.00    -0.196 A  
HETATM    9  C   UNL     1      -8.008   6.868  64.021  1.00  0.00    -0.070 A  
HETATM   10  C   UNL     1      -8.342   8.142  64.469  1.00  0.00    -0.067 A  
HETATM   11  C   UNL     1      -8.063   5.791  64.902  1.00  0.00    -0.131 A  
BRANCH   7  12
HETATM   12  S   UNL     1      -9.734   7.446  68.240  1.00  0.00    -0.156 SA 
BRANCH  12  13
HETATM   13  C   UNL     1      -9.887   9.177  68.611  1.00  0.00    -0.164 A  
HETATM   14  C   UNL     1      -9.142  10.055  67.821  1.00  0.00    -0.137 A  
HETATM   15  C   UNL     1      -9.343  11.440  67.872  1.00  0.00    -0.164 A  
HETATM   16  C   UNL     1     -10.331  11.958  68.730  1.00  0.00    -0.184 A  
HETATM   17  C   UNL     1     -11.068  11.064  69.503  1.00  0.00    -0.263 A  
HETATM   18  C   UNL     1     -10.863   9.672  69.487  1.00  0.00    -0.253 A  
HETATM   19  N   UNL     1     -11.978  11.840  70.166  1.00  0.00    -0.342 NA 
HETATM   20  N   UNL     1     -11.889  13.151  69.899  1.00  0.00    -0.322 NA 
HETATM   21  H   UNL     1     -12.668  11.455  70.810  1.00  0.00     0.000 HD 
HETATM   22  C   UNL     1     -10.860  13.250  69.047  1.00  0.00    -0.173 A  
BRANCH  22  23
HETATM   23  C   UNL     1     -10.415  14.524  68.561  1.00  0.00    -0.250 C  
HETATM   24  C   UNL     1      -9.165  15.015  68.650  1.00  0.00    -0.198 C  
BRANCH  24  25
HETATM   25  C   UNL     1      -8.770  16.367  68.235  1.00  0.00    -0.201 A  
HETATM   26  C   UNL     1      -9.161  17.468  68.994  1.00  0.00    -0.072 A  
HETATM   27  C   UNL     1      -8.844  18.746  68.543  1.00  0.00    -0.378 A  
HETATM   28  C   UNL     1      -8.143  18.892  67.354  1.00  0.00    -0.280 A  
HETATM   29  C   UNL     1      -7.778  17.746  66.669  1.00  0.00    -0.240 A  
HETATM   30  N   UNL     1      -8.071  16.493  67.084  1.00  0.00    -0.170 NA 
ENDBRANCH  24  25
ENDBRANCH  22  23
ENDBRANCH  12  13
ENDBRANCH   7  12
ENDBRANCH   3   6
TORSDOF 5
ENDMDL
MODEL      183
REMARK 921   NORMALIZED FREE ENERGY PREDICTED BY IDOCK:   -3.05 KCAL/MOL
REMARK 922        TOTAL FREE ENERGY PREDICTED BY IDOCK:   -4.97 KCAL/MOL
REMARK 923 INTER-LIGAND FREE ENERGY PREDICTED BY IDOCK:   -5.45 KCAL/MOL
REMARK 924 INTRA-LIGAND FREE ENERGY PREDICTED BY IDOCK:    0.48 KCAL/MOL
REMARK 927      BINDING AFFINITY PREDICTED BY RF-SCORE:    0.00 PKD
ROOT
HETATM    1  C   UNL     1      -6.328  13.558  67.616  1.00  0.00    -0.147 C  
HETATM    2  N   UNL     1      -7.407  13.250  66.718  1.00  0.00    -0.044 N  
HETATM    3  C   UNL     1      -8.709  13.585  67.019  1.00  0.00    -0.187 C  
HETATM    4  H   UNL     1      -7.205  12.772  65.839  1.00  0.00     0.000 HD 
HETATM    5  O   UNL     1      -9.066  13.992  68.121  1.00  0.00    -0.179 OA 
ENDROOT
BRANCH   3   6
HETATM    6  C   UNL     1      -9.713  13.364  65.932  1.00  0.00    -0.197 A  
HETATM    7  C   UNL     1     -10.933  14.076  65.823  1.00  0.00    -0.294 A  
HETATM    8  C   UNL     1     -11.750  13.825  64.710  1.00  0.00    -0.399 A  
HETATM    9  C   UNL     1     -10.226  12.117  63.914  1.00  0.00    -0.426 A  
HETATM   10  C   UNL     1     -11.392  12.860  63.758  1.00  0.00    -0.490 A  
HETATM   11  C   UNL     1      -9.386  12.372  64.995  1.00  0.00     0.324 A  
BRANCH   7  12
HETATM   12  S   UNL     1     -11.537  15.059  67.191  1.00  0.00    -0.193 SA 
BRANCH  12  13
HETATM   13  C   UNL     1     -12.113  13.970  68.472  1.00  0.00    -0.294 A  
HETATM   14  C   UNL     1     -11.757  12.624  68.357  1.00  0.00    -0.377 A  
HETATM   15  C   UNL     1     -11.963  11.718  69.404  1.00  0.00    -0.361 A  
HETATM   16  C   UNL     1     -12.531  12.177  70.607  1.00  0.00    -0.330 A  
HETATM   17  C   UNL     1     -12.871  13.525  70.702  1.00  0.00    -0.118 A  
HETATM   18  C   UNL     1     -12.697  14.445  69.653  1.00  0.00     0.052 A  
HETATM   19  N   UNL     1     -13.323  13.682  71.984  1.00  0.00    -0.421 NA 
HETATM   20  N   UNL     1     -13.314  12.560  72.718  1.00  0.00    -0.013 NA 
HETATM   21  H   UNL     1     -13.641  14.579  72.351  1.00  0.00     0.000 HD 
HETATM   22  C   UNL     1     -12.865  11.616  71.880  1.00  0.00    -0.248 A  
BRANCH  22  23
HETATM   23  C   UNL     1     -12.761  10.246  72.291  1.00  0.00    -0.103 C  
HETATM   24  C   UNL     1     -11.892   9.337  71.809  1.00  0.00    -0.454 C  
BRANCH  24  25
HETATM   25  C   UNL     1     -11.884   7.916  72.180  1.00  0.00    -0.334 A  
HETATM   26  C   UNL     1     -12.887   7.071  71.710  1.00  0.00    -0.365 A  
HETATM   27  C   UNL     1     -12.905   5.745  72.134  1.00  0.00     0.704 A  
HETATM   28  C   UNL     1     -11.924   5.298  73.009  1.00  0.00    -0.018 A  
HETATM   29  C   UNL     1     -10.955   6.198  73.415  1.00  0.00    -0.155 A  
HETATM   30  N   UNL     1     -10.911   7.490  73.018  1.00  0.00    -0.381 NA 
ENDBRANCH  24  25
ENDBRANCH  22  23
ENDBRANCH  12  13
ENDBRANCH   7  12
ENDBRANCH   3   6
TORSDOF 5
ENDMDL
MODEL      184
REMARK 921   NORMALIZED FREE ENERGY PREDICTED BY IDOCK:   -3.05 KCAL/MOL
REMARK 922        TOTAL FREE ENERGY PREDICTED BY IDOCK:   -4.96 KCAL/MOL
REMARK 923 INTER-LIGAND FREE ENERGY PREDICTED BY IDOCK:   -4.61 KCAL/MOL
REMARK 924 INTRA-LIGAND FREE ENERGY PREDICTED BY IDOCK:   -0.35 KCAL/MOL
REMARK 927      BINDING AFFINITY PREDICTED BY RF-SCORE:    0.00 PKD
ROOT
HETATM    1  C   UNL     1     -12.130   7.511  72.632  1.00  0.00    -0.037 C  
HETATM    2  N   UNL     1     -10.939   6.888  72.120  1.00  0.00    -0.229 N  
HETATM    3  C   UNL     1     -10.641   5.572  72.400  1.00  0.00    -0.223 C  
HETATM    4  H   UNL     1     -10.302   7.431  71.537  1.00  0.00     0.000 HD 
HETATM    5  O   UNL     1     -11.248   4.903  73.232  1.00  0.00    -0.307 OA 
ENDROOT
BRANCH   3   6
HETATM    6  C   UNL     1      -9.468   4.995  71.673  1.00  0.00    -0.198 A  
HETATM    7  C   UNL     1      -8.187   5.597  71.631  1.00  0.00    -0.119 A  
HETATM    8  C   UNL     1      -7.152   4.910  70.978  1.00  0.00    -0.052 A  
HETATM    9  C   UNL     1      -8.671   3.137  70.330  1.00  0.00    -0.126 A  
HETATM   10  C   UNL     1      -7.392   3.684  70.342  1.00  0.00    -0.041 A  
HETATM   11  C   UNL     1      -9.705   3.787  70.998  1.00  0.00    -0.248 A  
BRANCH   7  12
HETATM   12  S   UNL     1      -7.964   7.294  72.155  1.00  0.00    -0.094 SA 
BRANCH  12  13
HETATM   13  C   UNL     1      -7.829   8.327  70.716  1.00  0.00    -0.091 A  
HETATM   14  C   UNL     1      -8.827   9.289  70.539  1.00  0.00    -0.285 A  
HETATM   15  C   UNL     1      -8.714  10.295  69.572  1.00  0.00    -0.155 A  
HETATM   16  C   UNL     1      -7.560  10.348  68.768  1.00  0.00    -0.097 A  
HETATM   17  C   UNL     1      -6.575   9.383  68.967  1.00  0.00    -0.046 A  
HETATM   18  C   UNL     1      -6.680   8.348  69.914  1.00  0.00    -0.042 A  
HETATM   19  N   UNL     1      -5.568   9.729  68.107  1.00  0.00    -0.040 NA 
HETATM   20  N   UNL     1      -5.818  10.819  67.368  1.00  0.00    -0.044 NA 
HETATM   21  H   UNL     1      -4.698   9.201  68.034  1.00  0.00     0.000 HD 
HETATM   22  C   UNL     1      -7.052  11.194  67.732  1.00  0.00    -0.086 A  
BRANCH  22  23
HETATM   23  C   UNL     1      -7.702  12.313  67.114  1.00  0.00    -0.134 C  
HETATM   24  C   UNL     1      -8.257  13.360  67.753  1.00  0.00    -0.172 C  
BRANCH  24  25
HETATM   25  C   UNL     1      -9.006  14.436  67.092  1.00  0.00    -0.232 A  
HETATM   26  C   UNL     1     -10.142  14.133  66.345  1.00  0.00    -0.299 A  
HETATM   27  C   UNL     1     -10.794  15.158  65.663  1.00  0.00    -0.367 A  
HETATM   28  C   UNL     1     -10.299  16.452  65.747  1.00  0.00    -0.388 A  
HETATM   29  C   UNL     1      -9.175  16.670  66.524  1.00  0.00    -0.270 A  
HETATM   30  N   UNL     1      -8.523  15.696  67.198  1.00  0.00    -0.189 NA 
ENDBRANCH  24  25
ENDBRANCH  22  23
ENDBRANCH  12  13
ENDBRANCH   7  12
ENDBRANCH   3   6
TORSDOF 5
ENDMDL
MODEL      185
REMARK 921   NORMALIZED FREE ENERGY PREDICTED BY IDOCK:   -2.89 KCAL/MOL
REMARK 922        TOTAL FREE ENERGY PREDICTED BY IDOCK:   -4.76 KCAL/MOL
REMARK 923 INTER-LIGAND FREE ENERGY PREDICTED BY IDOCK:   -3.73 KCAL/MOL
REMARK 924 INTRA-LIGAND FREE ENERGY PREDICTED BY IDOCK:   -1.03 KCAL/MOL
REMARK 927      BINDING AFFINITY PREDICTED BY RF-SCORE:    0.00 PKD
ROOT
HETATM    1  C   UNL     1      -5.769   8.083  73.386  1.00  0.00    -0.057 C  
HETATM    2  N   UNL     1      -6.084   6.963  72.542  1.00  0.00    -0.042 N  
HETATM    3  C   UNL     1      -6.490   5.757  73.072  1.00  0.00    -0.064 C  
HETATM    4  H   UNL     1      -6.006   7.062  71.529  1.00  0.00     0.000 HD 
HETATM    5  O   UNL     1      -6.437   5.491  74.269  1.00  0.00    -0.068 OA 
ENDROOT
BRANCH   3   6
HETATM    6  C   UNL     1      -6.949   4.728  72.088  1.00  0.00    -0.061 A  
HETATM    7  C   UNL     1      -8.292   4.585  71.659  1.00  0.00    -0.103 A  
HETATM    8  C   UNL     1      -8.574   3.629  70.671  1.00  0.00    -0.112 A  
HETATM    9  C   UNL     1      -6.262   2.905  70.640  1.00  0.00    -0.023 A  
HETATM   10  C   UNL     1      -7.564   2.803  70.159  1.00  0.00    -0.043 A  
HETATM   11  C   UNL     1      -5.954   3.868  71.597  1.00  0.00    -0.013 A  
BRANCH   7  12
HETATM   12  S   UNL     1      -9.618   5.405  72.538  1.00  0.00    -0.149 SA 
BRANCH  12  13
HETATM   13  C   UNL     1     -10.082   6.868  71.644  1.00  0.00    -0.190 A  
HETATM   14  C   UNL     1      -9.293   7.207  70.542  1.00  0.00    -0.158 A  
HETATM   15  C   UNL     1      -9.682   8.203  69.638  1.00  0.00    -0.170 A  
HETATM   16  C   UNL     1     -10.904   8.871  69.838  1.00  0.00    -0.219 A  
HETATM   17  C   UNL     1     -11.679   8.512  70.939  1.00  0.00    -0.245 A  
HETATM   18  C   UNL     1     -11.294   7.534  71.873  1.00  0.00    -0.298 A  
HETATM   19  N   UNL     1     -12.815   9.267  70.829  1.00  0.00    -0.516 NA 
HETATM   20  N   UNL     1     -12.839  10.083  69.766  1.00  0.00     0.321 NA 
HETATM   21  H   UNL     1     -13.581   9.213  71.500  1.00  0.00     0.000 HD 
HETATM   22  C   UNL     1     -11.659   9.883  69.164  1.00  0.00     0.122 A  
BRANCH  22  23
HETATM   23  C   UNL     1     -11.285  10.626  67.995  1.00  0.00    -0.373 C  
HETATM   24  C   UNL     1     -11.143  10.131  66.752  1.00  0.00     0.077 C  
BRANCH  24  25
HETATM   25  C   UNL     1     -10.656  10.901  65.600  1.00  0.00    -0.164 A  
HETATM   26  C   UNL     1     -10.595  12.291  65.671  1.00  0.00    -0.295 A  
HETATM   27  C   UNL     1     -10.204  13.007  64.542  1.00  0.00    -0.331 A  
HETATM   28  C   UNL     1      -9.882  12.321  63.380  1.00  0.00    -0.066 A  
HETATM   29  C   UNL     1      -9.953  10.939  63.399  1.00  0.00    -0.361 A  
HETATM   30  N   UNL     1     -10.327  10.217  64.479  1.00  0.00    -0.125 NA 
ENDBRANCH  24  25
ENDBRANCH  22  23
ENDBRANCH  12  13
ENDBRANCH   7  12
ENDBRANCH   3   6
TORSDOF 5
ENDMDL
MODEL      186
REMARK 921   NORMALIZED FREE ENERGY PREDICTED BY IDOCK:   -2.88 KCAL/MOL
REMARK 922        TOTAL FREE ENERGY PREDICTED BY IDOCK:   -4.74 KCAL/MOL
REMARK 923 INTER-LIGAND FREE ENERGY PREDICTED BY IDOCK:   -4.36 KCAL/MOL
REMARK 924 INTRA-LIGAND FREE ENERGY PREDICTED BY IDOCK:   -0.39 KCAL/MOL
REMARK 927      BINDING AFFINITY PREDICTED BY RF-SCORE:    0.00 PKD
ROOT
HETATM    1  C   UNL     1     -10.162  20.217  69.812  1.00  0.00     0.300 C  
HETATM    2  N   UNL     1      -9.310  19.845  68.716  1.00  0.00    -0.205 N  
HETATM    3  C   UNL     1      -8.038  19.360  68.929  1.00  0.00    -0.309 C  
HETATM    4  H   UNL     1      -9.654  19.941  67.760  1.00  0.00     0.000 HD 
HETATM    5  O   UNL     1      -7.479  19.381  70.021  1.00  0.00     0.157 OA 
ENDROOT
BRANCH   3   6
HETATM    6  C   UNL     1      -7.317  18.850  67.720  1.00  0.00    -0.254 A  
HETATM    7  C   UNL     1      -7.914  18.034  66.728  1.00  0.00    -0.237 A  
HETATM    8  C   UNL     1      -7.147  17.690  65.604  1.00  0.00     0.035 A  
HETATM    9  C   UNL     1      -5.217  18.844  66.505  1.00  0.00    -0.150 A  
HETATM   10  C   UNL     1      -5.812  18.102  65.490  1.00  0.00    -0.226 A  
HETATM   11  C   UNL     1      -5.968  19.222  67.615  1.00  0.00    -0.211 A  
BRANCH   7  12
HETATM   12  S   UNL     1      -9.494  17.248  67.027  1.00  0.00    -0.270 SA 
BRANCH  12  13
HETATM   13  C   UNL     1      -9.268  15.486  67.027  1.00  0.00    -0.225 A  
HETATM   14  C   UNL     1      -9.082  14.877  68.270  1.00  0.00    -0.179 A  
HETATM   15  C   UNL     1      -9.111  13.485  68.419  1.00  0.00    -0.155 A  
HETATM   16  C   UNL     1      -9.348  12.680  67.290  1.00  0.00    -0.195 A  
HETATM   17  C   UNL     1      -9.538  13.308  66.061  1.00  0.00    -0.160 A  
HETATM   18  C   UNL     1      -9.486  14.702  65.885  1.00  0.00    -0.238 A  
HETATM   19  N   UNL     1      -9.811  12.292  65.186  1.00  0.00    -0.406 NA 
HETATM   20  N   UNL     1      -9.804  11.069  65.736  1.00  0.00    -0.223 NA 
HETATM   21  H   UNL     1     -10.004  12.451  64.198  1.00  0.00     0.000 HD 
HETATM   22  C   UNL     1      -9.486  11.281  67.020  1.00  0.00    -0.171 A  
BRANCH  22  23
HETATM   23  C   UNL     1      -9.328  10.190  67.937  1.00  0.00    -0.151 C  
HETATM   24  C   UNL     1      -8.361  10.067  68.865  1.00  0.00    -0.130 C  
BRANCH  24  25
HETATM   25  C   UNL     1      -8.171   8.885  69.717  1.00  0.00    -0.119 A  
HETATM   26  C   UNL     1      -8.241   9.011  71.103  1.00  0.00    -0.198 A  
HETATM   27  C   UNL     1      -7.982   7.896  71.895  1.00  0.00    -0.125 A  
HETATM   28  C   UNL     1      -7.665   6.689  71.286  1.00  0.00    -0.094 A  
HETATM   29  C   UNL     1      -7.633   6.646  69.903  1.00  0.00    -0.100 A  
HETATM   30  N   UNL     1      -7.882   7.711  69.110  1.00  0.00    -0.116 NA 
ENDBRANCH  24  25
ENDBRANCH  22  23
ENDBRANCH  12  13
ENDBRANCH   7  12
ENDBRANCH   3   6
TORSDOF 5
ENDMDL
MODEL      187
REMARK 921   NORMALIZED FREE ENERGY PREDICTED BY IDOCK:   -2.40 KCAL/MOL
REMARK 922        TOTAL FREE ENERGY PREDICTED BY IDOCK:   -4.13 KCAL/MOL
REMARK 923 INTER-LIGAND FREE ENERGY PREDICTED BY IDOCK:   -3.61 KCAL/MOL
REMARK 924 INTRA-LIGAND FREE ENERGY PREDICTED BY IDOCK:   -0.51 KCAL/MOL
REMARK 927      BINDING AFFINITY PREDICTED BY RF-SCORE:    0.00 PKD
ROOT
HETATM    1  C   UNL     1     -11.770  11.796  66.972  1.00  0.00    -0.167 C  
HETATM    2  N   UNL     1     -11.474  13.199  66.873  1.00  0.00    -0.324 N  
HETATM    3  C   UNL     1     -11.106  13.935  67.979  1.00  0.00    -0.259 C  
HETATM    4  H   UNL     1     -11.537  13.661  65.965  1.00  0.00     0.000 HD 
HETATM    5  O   UNL     1     -11.180  13.511  69.129  1.00  0.00    -0.260 OA 
ENDROOT
BRANCH   3   6
HETATM    6  C   UNL     1     -10.662  15.339  67.717  1.00  0.00    -0.286 A  
HETATM    7  C   UNL     1      -9.648  15.689  66.792  1.00  0.00    -0.240 A  
HETATM    8  C   UNL     1      -9.382  17.051  66.585  1.00  0.00    -0.274 A  
HETATM    9  C   UNL     1     -11.010  17.677  68.267  1.00  0.00    -0.053 A  
HETATM   10  C   UNL     1     -10.066  18.037  67.310  1.00  0.00    -0.346 A  
HETATM   11  C   UNL     1     -11.311  16.332  68.466  1.00  0.00    -0.330 A  
BRANCH   7  12
HETATM   12  S   UNL     1      -8.562  14.437  66.116  1.00  0.00     0.874 SA 
BRANCH  12  13
HETATM   13  C   UNL     1      -8.052  13.350  67.426  1.00  0.00    -0.172 A  
HETATM   14  C   UNL     1      -8.051  11.982  67.142  1.00  0.00    -0.177 A  
HETATM   15  C   UNL     1      -7.468  11.052  68.010  1.00  0.00    -0.090 A  
HETATM   16  C   UNL     1      -6.857  11.507  69.193  1.00  0.00    -0.112 A  
HETATM   17  C   UNL     1      -6.863  12.875  69.453  1.00  0.00     0.040 A  
HETATM   18  C   UNL     1      -7.466  13.824  68.608  1.00  0.00    -0.116 A  
HETATM   19  N   UNL     1      -6.148  13.015  70.611  1.00  0.00    -0.457 NA 
HETATM   20  N   UNL     1      -5.692  11.864  71.125  1.00  0.00    -0.375 NA 
HETATM   21  H   UNL     1      -5.976  13.920  71.049  1.00  0.00     0.000 HD 
HETATM   22  C   UNL     1      -6.147  10.921  70.289  1.00  0.00    -0.142 A  
BRANCH  22  23
HETATM   23  C   UNL     1      -5.903   9.529  70.534  1.00  0.00    -0.056 C  
HETATM   24  C   UNL     1      -6.815   8.541  70.471  1.00  0.00    -0.039 C  
BRANCH  24  25
HETATM   25  C   UNL     1      -6.551   7.141  70.830  1.00  0.00    -0.048 A  
HETATM   26  C   UNL     1      -5.689   6.375  70.050  1.00  0.00    -0.014 A  
HETATM   27  C   UNL     1      -5.512   5.030  70.361  1.00  0.00    -0.008 A  
HETATM   28  C   UNL     1      -6.194   4.488  71.443  1.00  0.00    -0.018 A  
HETATM   29  C   UNL     1      -7.019   5.322  72.176  1.00  0.00    -0.082 A  
HETATM   30  N   UNL     1      -7.208   6.632  71.898  1.00  0.00    -0.083 NA 
ENDBRANCH  24  25
ENDBRANCH  22  23
ENDBRANCH  12  13
ENDBRANCH   7  12
ENDBRANCH   3   6
TORSDOF 5
ENDMDL
MODEL      188
REMARK 921   NORMALIZED FREE ENERGY PREDICTED BY IDOCK:   -2.20 KCAL/MOL
REMARK 922        TOTAL FREE ENERGY PREDICTED BY IDOCK:   -3.87 KCAL/MOL
REMARK 923 INTER-LIGAND FREE ENERGY PREDICTED BY IDOCK:   -3.68 KCAL/MOL
REMARK 924 INTRA-LIGAND FREE ENERGY PREDICTED BY IDOCK:   -0.19 KCAL/MOL
REMARK 927      BINDING AFFINITY PREDICTED BY RF-SCORE:    0.00 PKD
ROOT
HETATM    1  C   UNL     1      -8.504  17.869  68.913  1.00  0.00    -0.120 C  
HETATM    2  N   UNL     1      -9.203  16.616  68.823  1.00  0.00    -0.247 N  
HETATM    3  C   UNL     1      -9.889  16.258  67.682  1.00  0.00    -0.238 C  
HETATM    4  H   UNL     1      -9.191  15.979  69.619  1.00  0.00     0.000 HD 
HETATM    5  O   UNL     1     -10.109  17.030  66.754  1.00  0.00    -0.280 OA 
ENDROOT
BRANCH   3   6
HETATM    6  C   UNL     1     -10.430  14.863  67.651  1.00  0.00    -0.249 A  
HETATM    7  C   UNL     1      -9.739  13.735  68.157  1.00  0.00    -0.227 A  
HETATM    8  C   UNL     1     -10.394  12.493  68.137  1.00  0.00    -0.236 A  
HETATM    9  C   UNL     1     -12.316  13.468  67.028  1.00  0.00    -0.260 A  
HETATM   10  C   UNL     1     -11.676  12.365  67.586  1.00  0.00    -0.412 A  
HETATM   11  C   UNL     1     -11.697  14.715  67.066  1.00  0.00    -0.379 A  
BRANCH   7  12
HETATM   12  S   UNL     1      -7.997  13.838  68.555  1.00  0.00    -0.103 SA 
BRANCH  12  13
HETATM   13  C   UNL     1      -7.189  12.360  67.991  1.00  0.00    -0.105 A  
HETATM   14  C   UNL     1      -7.435  11.194  68.719  1.00  0.00    -0.118 A  
HETATM   15  C   UNL     1      -7.035   9.937  68.249  1.00  0.00    -0.072 A  
HETATM   16  C   UNL     1      -6.380   9.845  67.007  1.00  0.00    -0.065 A  
HETATM   17  C   UNL     1      -6.152  11.020  66.294  1.00  0.00    -0.136 A  
HETATM   18  C   UNL     1      -6.522  12.295  66.760  1.00  0.00     0.230 A  
HETATM   19  N   UNL     1      -5.577  10.612  65.122  1.00  0.00    -0.211 NA 
HETATM   20  N   UNL     1      -5.405   9.287  65.019  1.00  0.00    -0.044 NA 
HETATM   21  H   UNL     1      -5.301  11.263  64.387  1.00  0.00     0.000 HD 
HETATM   22  C   UNL     1      -5.858   8.799  66.181  1.00  0.00    -0.047 A  
BRANCH  22  23
HETATM   23  C   UNL     1      -5.795   7.397  66.475  1.00  0.00    -0.035 C  
HETATM   24  C   UNL     1      -6.796   6.643  66.967  1.00  0.00    -0.066 C  
BRANCH  24  25
HETATM   25  C   UNL     1      -6.663   5.233  67.354  1.00  0.00    -0.055 A  
HETATM   26  C   UNL     1      -7.632   4.312  66.961  1.00  0.00    -0.081 A  
HETATM   27  C   UNL     1      -7.529   2.995  67.402  1.00  0.00    -0.062 A  
HETATM   28  C   UNL     1      -6.464   2.633  68.216  1.00  0.00    -0.029 A  
HETATM   29  C   UNL     1      -5.537   3.606  68.547  1.00  0.00    -0.017 A  
HETATM   30  N   UNL     1      -5.611   4.890  68.132  1.00  0.00    -0.015 NA 
ENDBRANCH  24  25
ENDBRANCH  22  23
ENDBRANCH  12  13
ENDBRANCH   7  12
ENDBRANCH   3   6
TORSDOF 5
ENDMDL
MODEL      189
REMARK 921   NORMALIZED FREE ENERGY PREDICTED BY IDOCK:   -2.10 KCAL/MOL
REMARK 922        TOTAL FREE ENERGY PREDICTED BY IDOCK:   -3.73 KCAL/MOL
REMARK 923 INTER-LIGAND FREE ENERGY PREDICTED BY IDOCK:   -2.81 KCAL/MOL
REMARK 924 INTRA-LIGAND FREE ENERGY PREDICTED BY IDOCK:   -0.92 KCAL/MOL
REMARK 927      BINDING AFFINITY PREDICTED BY RF-SCORE:    0.00 PKD
ROOT
HETATM    1  C   UNL     1     -10.761   5.556  66.687  1.00  0.00    -0.261 C  
HETATM    2  N   UNL     1      -9.720   4.741  67.253  1.00  0.00    -0.169 N  
HETATM    3  C   UNL     1      -9.119   3.737  66.524  1.00  0.00    -0.155 C  
HETATM    4  H   UNL     1      -9.419   4.909  68.213  1.00  0.00     0.000 HD 
HETATM    5  O   UNL     1      -9.535   3.347  65.437  1.00  0.00    -0.158 OA 
ENDROOT
BRANCH   3   6
HETATM    6  C   UNL     1      -7.939   3.076  67.164  1.00  0.00    -0.078 A  
HETATM    7  C   UNL     1      -6.593   3.366  66.832  1.00  0.00    -0.037 A  
HETATM    8  C   UNL     1      -5.578   2.731  67.565  1.00  0.00    -0.018 A  
HETATM    9  C   UNL     1      -7.214   1.469  68.832  1.00  0.00    -0.039 A  
HETATM   10  C   UNL     1      -5.888   1.797  68.564  1.00  0.00    -0.023 A  
HETATM   11  C   UNL     1      -8.236   2.111  68.138  1.00  0.00    -0.072 A  
BRANCH   7  12
HETATM   12  S   UNL     1      -6.201   4.299  65.356  1.00  0.00    -0.028 SA 
BRANCH  12  13
HETATM   13  C   UNL     1      -6.636   6.001  65.619  1.00  0.00    -0.047 A  
HETATM   14  C   UNL     1      -6.093   6.620  66.748  1.00  0.00    -0.033 A  
HETATM   15  C   UNL     1      -6.185   8.003  66.942  1.00  0.00    -0.054 A  
HETATM   16  C   UNL     1      -6.827   8.792  65.970  1.00  0.00    -0.073 A  
HETATM   17  C   UNL     1      -7.354   8.155  64.849  1.00  0.00    -0.087 A  
HETATM   18  C   UNL     1      -7.297   6.765  64.647  1.00  0.00    -0.089 A  
HETATM   19  N   UNL     1      -7.841   9.168  64.068  1.00  0.00    -0.122 NA 
HETATM   20  N   UNL     1      -7.686  10.394  64.587  1.00  0.00    -0.110 NA 
HETATM   21  H   UNL     1      -8.287   9.003  63.165  1.00  0.00     0.000 HD 
HETATM   22  C   UNL     1      -7.098  10.183  65.772  1.00  0.00    -0.127 A  
BRANCH  22  23
HETATM   23  C   UNL     1      -6.808  11.270  66.662  1.00  0.00    -0.130 C  
HETATM   24  C   UNL     1      -7.696  12.159  67.145  1.00  0.00    -0.151 C  
BRANCH  24  25
HETATM   25  C   UNL     1      -7.344  13.321  67.971  1.00  0.00    -0.127 A  
HETATM   26  C   UNL     1      -8.328  13.961  68.722  1.00  0.00    -0.019 A  
HETATM   27  C   UNL     1      -7.991  15.107  69.438  1.00  0.00    -0.205 A  
HETATM   28  C   UNL     1      -6.686  15.579  69.389  1.00  0.00    -0.169 A  
HETATM   29  C   UNL     1      -5.767  14.875  68.632  1.00  0.00    -0.091 A  
HETATM   30  N   UNL     1      -6.065  13.759  67.929  1.00  0.00    -0.143 NA 
ENDBRANCH  24  25
ENDBRANCH  22  23
ENDBRANCH  12  13
ENDBRANCH   7  12
ENDBRANCH   3   6
TORSDOF 5
ENDMDL
MODEL      190
REMARK 921   NORMALIZED FREE ENERGY PREDICTED BY IDOCK:   -2.04 KCAL/MOL
REMARK 922        TOTAL FREE ENERGY PREDICTED BY IDOCK:   -3.66 KCAL/MOL
REMARK 923 INTER-LIGAND FREE ENERGY PREDICTED BY IDOCK:   -3.13 KCAL/MOL
REMARK 924 INTRA-LIGAND FREE ENERGY PREDICTED BY IDOCK:   -0.53 KCAL/MOL
REMARK 927      BINDING AFFINITY PREDICTED BY RF-SCORE:    0.00 PKD
ROOT
HETATM    1  C   UNL     1     -11.077   6.080  66.696  1.00  0.00    -0.039 C  
HETATM    2  N   UNL     1     -10.054   5.252  67.274  1.00  0.00    -0.180 N  
HETATM    3  C   UNL     1      -9.469   4.230  66.558  1.00  0.00    -0.185 C  
HETATM    4  H   UNL     1      -9.754   5.424  68.234  1.00  0.00     0.000 HD 
HETATM    5  O   UNL     1      -9.888   3.837  65.474  1.00  0.00    -0.172 OA 
ENDROOT
BRANCH   3   6
HETATM    6  C   UNL     1      -8.304   3.554  67.210  1.00  0.00    -0.093 A  
HETATM    7  C   UNL     1      -6.952   3.802  66.868  1.00  0.00    -0.058 A  
HETATM    8  C   UNL     1      -5.951   3.157  67.612  1.00  0.00    -0.027 A  
HETATM    9  C   UNL     1      -7.614   1.967  68.912  1.00  0.00    -0.043 A  
HETATM   10  C   UNL     1      -6.282   2.255  68.632  1.00  0.00    -0.025 A  
HETATM   11  C   UNL     1      -8.623   2.619  68.206  1.00  0.00    -0.109 A  
BRANCH   7  12
HETATM   12  S   UNL     1      -6.541   4.690  65.369  1.00  0.00    -0.045 SA 
BRANCH  12  13
HETATM   13  C   UNL     1      -6.919   6.411  65.600  1.00  0.00    -0.057 A  
HETATM   14  C   UNL     1      -8.128   6.865  65.067  1.00  0.00    -0.117 A  
HETATM   15  C   UNL     1      -8.633   8.135  65.370  1.00  0.00    -0.154 A  
HETATM   16  C   UNL     1      -7.911   8.971  66.242  1.00  0.00    -0.103 A  
HETATM   17  C   UNL     1      -6.712   8.495  66.767  1.00  0.00    -0.061 A  
HETATM   18  C   UNL     1      -6.173   7.234  66.456  1.00  0.00    -0.040 A  
HETATM   19  N   UNL     1      -6.287   9.480  67.617  1.00  0.00    -0.057 NA 
HETATM   20  N   UNL     1      -7.095  10.547  67.679  1.00  0.00    -0.083 NA 
HETATM   21  H   UNL     1      -5.425   9.408  68.158  1.00  0.00     0.000 HD 
HETATM   22  C   UNL     1      -8.081  10.271  66.815  1.00  0.00    -0.121 A  
BRANCH  22  23
HETATM   23  C   UNL     1      -9.133  11.212  66.561  1.00  0.00    -0.193 C  
HETATM   24  C   UNL     1      -8.978  12.480  66.136  1.00  0.00     0.069 C  
BRANCH  24  25
HETATM   25  C   UNL     1     -10.073  13.447  65.987  1.00  0.00    -0.304 A  
HETATM   26  C   UNL     1      -9.891  14.587  65.207  1.00  0.00    -0.221 A  
HETATM   27  C   UNL     1     -10.913  15.530  65.140  1.00  0.00    -0.422 A  
HETATM   28  C   UNL     1     -12.088  15.309  65.848  1.00  0.00     0.425 A  
HETATM   29  C   UNL     1     -12.194  14.143  66.586  1.00  0.00    -0.418 A  
HETATM   30  N   UNL     1     -11.219  13.210  66.667  1.00  0.00    -0.296 NA 
ENDBRANCH  24  25
ENDBRANCH  22  23
ENDBRANCH  12  13
ENDBRANCH   7  12
ENDBRANCH   3   6
TORSDOF 5
ENDMDL
MODEL      191
REMARK 921   NORMALIZED FREE ENERGY PREDICTED BY IDOCK:   -1.97 KCAL/MOL
REMARK 922        TOTAL FREE ENERGY PREDICTED BY IDOCK:   -3.57 KCAL/MOL
REMARK 923 INTER-LIGAND FREE ENERGY PREDICTED BY IDOCK:   -5.43 KCAL/MOL
REMARK 924 INTRA-LIGAND FREE ENERGY PREDICTED BY IDOCK:    1.85 KCAL/MOL
REMARK 927      BINDING AFFINITY PREDICTED BY RF-SCORE:    0.00 PKD
ROOT
HETATM    1  C   UNL     1      -8.441   6.641  66.295  1.00  0.00    -0.130 C  
HETATM    2  N   UNL     1      -8.275   5.651  67.325  1.00  0.00    -0.102 N  
HETATM    3  C   UNL     1      -9.356   4.991  67.867  1.00  0.00    -0.124 C  
HETATM    4  H   UNL     1      -7.337   5.433  67.662  1.00  0.00     0.000 HD 
HETATM    5  O   UNL     1     -10.521   5.314  67.657  1.00  0.00    -0.176 OA 
ENDROOT
BRANCH   3   6
HETATM    6  C   UNL     1      -9.039   3.869  68.804  1.00  0.00    -0.195 A  
HETATM    7  C   UNL     1      -9.528   3.783  70.131  1.00  0.00    -0.189 A  
HETATM    8  C   UNL     1      -9.217   2.636  70.879  1.00  0.00    -0.201 A  
HETATM    9  C   UNL     1      -7.872   1.757  69.065  1.00  0.00    -0.051 A  
HETATM   10  C   UNL     1      -8.404   1.627  70.344  1.00  0.00    -0.064 A  
HETATM   11  C   UNL     1      -8.193   2.872  68.295  1.00  0.00    -0.078 A  
BRANCH   7  12
HETATM   12  S   UNL     1     -10.284   5.203  70.915  1.00  0.00    -0.213 SA 
BRANCH  12  13
HETATM   13  C   UNL     1      -9.787   6.671  70.047  1.00  0.00    -0.165 A  
HETATM   14  C   UNL     1     -10.778   7.339  69.324  1.00  0.00    -0.212 A  
HETATM   15  C   UNL     1     -10.562   8.612  68.784  1.00  0.00    -0.169 A  
HETATM   16  C   UNL     1      -9.320   9.241  68.985  1.00  0.00    -0.151 A  
HETATM   17  C   UNL     1      -8.348   8.561  69.715  1.00  0.00    -0.124 A  
HETATM   18  C   UNL     1      -8.535   7.270  70.244  1.00  0.00    -0.137 A  
HETATM   19  N   UNL     1      -7.299   9.435  69.802  1.00  0.00    -0.073 NA 
HETATM   20  N   UNL     1      -7.502  10.609  69.188  1.00  0.00    -0.112 NA 
HETATM   21  H   UNL     1      -6.433   9.212  70.293  1.00  0.00     0.000 HD 
HETATM   22  C   UNL     1      -8.723  10.497  68.649  1.00  0.00    -0.143 A  
BRANCH  22  23
HETATM   23  C   UNL     1      -9.285  11.552  67.855  1.00  0.00    -0.168 C  
HETATM   24  C   UNL     1     -10.570  11.656  67.469  1.00  0.00    -0.245 C  
BRANCH  24  25
HETATM   25  C   UNL     1     -11.087  12.695  66.569  1.00  0.00    -0.280 A  
HETATM   26  C   UNL     1     -10.600  13.997  66.660  1.00  0.00    -0.274 A  
HETATM   27  C   UNL     1     -11.157  14.984  65.851  1.00  0.00    -0.334 A  
HETATM   28  C   UNL     1     -12.178  14.646  64.973  1.00  0.00    -0.323 A  
HETATM   29  C   UNL     1     -12.592  13.326  64.933  1.00  0.00    -0.384 A  
HETATM   30  N   UNL     1     -12.069  12.348  65.705  1.00  0.00    -0.610 NA 
ENDBRANCH  24  25
ENDBRANCH  22  23
ENDBRANCH  12  13
ENDBRANCH   7  12
ENDBRANCH   3   6
TORSDOF 5
ENDMDL
MODEL      192
REMARK 921   NORMALIZED FREE ENERGY PREDICTED BY IDOCK:   -1.59 KCAL/MOL
REMARK 922        TOTAL FREE ENERGY PREDICTED BY IDOCK:   -3.08 KCAL/MOL
REMARK 923 INTER-LIGAND FREE ENERGY PREDICTED BY IDOCK:   -3.17 KCAL/MOL
REMARK 924 INTRA-LIGAND FREE ENERGY PREDICTED BY IDOCK:    0.09 KCAL/MOL
REMARK 927      BINDING AFFINITY PREDICTED BY RF-SCORE:    0.00 PKD
ROOT
HETATM    1  C   UNL     1     -10.536  17.362  66.135  1.00  0.00    -0.284 C  
HETATM    2  N   UNL     1      -9.691  16.578  66.994  1.00  0.00    -0.244 N  
HETATM    3  C   UNL     1      -9.249  15.327  66.620  1.00  0.00    -0.274 C  
HETATM    4  H   UNL     1      -9.412  16.955  67.900  1.00  0.00     0.000 HD 
HETATM    5  O   UNL     1      -9.677  14.724  65.640  1.00  0.00    -0.332 OA 
ENDROOT
BRANCH   3   6
HETATM    6  C   UNL     1      -8.243  14.687  67.523  1.00  0.00    -0.203 A  
HETATM    7  C   UNL     1      -7.724  13.383  67.333  1.00  0.00    -0.137 A  
HETATM    8  C   UNL     1      -6.725  12.933  68.210  1.00  0.00    -0.093 A  
HETATM    9  C   UNL     1      -6.857  14.984  69.493  1.00  0.00    -0.174 A  
HETATM   10  C   UNL     1      -6.289  13.733  69.276  1.00  0.00    -0.110 A  
HETATM   11  C   UNL     1      -7.828  15.462  68.617  1.00  0.00    -0.142 A  
BRANCH   7  12
HETATM   12  S   UNL     1      -8.504  12.252  66.185  1.00  0.00     0.459 SA 
BRANCH  12  13
HETATM   13  C   UNL     1      -8.280  10.591  66.773  1.00  0.00    -0.126 A  
HETATM   14  C   UNL     1      -8.731  10.317  68.067  1.00  0.00    -0.122 A  
HETATM   15  C   UNL     1      -8.809   9.008  68.556  1.00  0.00    -0.134 A  
HETATM   16  C   UNL     1      -8.435   7.940  67.719  1.00  0.00    -0.125 A  
HETATM   17  C   UNL     1      -7.996   8.235  66.431  1.00  0.00    -0.096 A  
HETATM   18  C   UNL     1      -7.885   9.544  65.929  1.00  0.00    -0.100 A  
HETATM   19  N   UNL     1      -7.778   7.017  65.847  1.00  0.00    -0.096 NA 
HETATM   20  N   UNL     1      -8.027   5.967  66.643  1.00  0.00    -0.101 NA 
HETATM   21  H   UNL     1      -7.453   6.915  64.886  1.00  0.00     0.000 HD 
HETATM   22  C   UNL     1      -8.397   6.512  67.809  1.00  0.00    -0.119 A  
BRANCH  22  23
HETATM   23  C   UNL     1      -8.703   5.695  68.948  1.00  0.00    -0.107 C  
HETATM   24  C   UNL     1      -7.825   4.962  69.657  1.00  0.00    -0.067 C  
BRANCH  24  25
HETATM   25  C   UNL     1      -8.192   4.056  70.754  1.00  0.00    -0.066 A  
HETATM   26  C   UNL     1      -8.346   4.556  72.044  1.00  0.00    -0.112 A  
HETATM   27  C   UNL     1      -8.618   3.669  73.083  1.00  0.00    -0.090 A  
HETATM   28  C   UNL     1      -8.732   2.313  72.807  1.00  0.00    -0.071 A  
HETATM   29  C   UNL     1      -8.580   1.902  71.494  1.00  0.00    -0.058 A  
HETATM   30  N   UNL     1      -8.318   2.740  70.466  1.00  0.00    -0.048 NA 
ENDBRANCH  24  25
ENDBRANCH  22  23
ENDBRANCH  12  13
ENDBRANCH   7  12
ENDBRANCH   3   6
TORSDOF 5
ENDMDL
MODEL      193
REMARK 921   NORMALIZED FREE ENERGY PREDICTED BY IDOCK:   -1.52 KCAL/MOL
REMARK 922        TOTAL FREE ENERGY PREDICTED BY IDOCK:   -2.99 KCAL/MOL
REMARK 923 INTER-LIGAND FREE ENERGY PREDICTED BY IDOCK:   -2.53 KCAL/MOL
REMARK 924 INTRA-LIGAND FREE ENERGY PREDICTED BY IDOCK:   -0.45 KCAL/MOL
REMARK 927      BINDING AFFINITY PREDICTED BY RF-SCORE:    0.00 PKD
ROOT
HETATM    1  C   UNL     1     -10.744   8.470  66.165  1.00  0.00     1.201 C  
HETATM    2  N   UNL     1      -9.849   7.393  66.489  1.00  0.00    -0.382 N  
HETATM    3  C   UNL     1      -8.481   7.552  66.424  1.00  0.00    -0.131 C  
HETATM    4  H   UNL     1     -10.234   6.492  66.773  1.00  0.00     0.000 HD 
HETATM    5  O   UNL     1      -7.937   8.531  65.924  1.00  0.00    -0.098 OA 
ENDROOT
BRANCH   3   6
HETATM    6  C   UNL     1      -7.662   6.414  66.947  1.00  0.00    -0.100 A  
HETATM    7  C   UNL     1      -7.604   6.041  68.312  1.00  0.00    -0.091 A  
HETATM    8  C   UNL     1      -6.857   4.904  68.657  1.00  0.00    -0.051 A  
HETATM    9  C   UNL     1      -6.155   4.605  66.357  1.00  0.00    -0.031 A  
HETATM   10  C   UNL     1      -6.147   4.187  67.684  1.00  0.00    -0.032 A  
HETATM   11  C   UNL     1      -6.914   5.712  65.988  1.00  0.00    -0.063 A  
BRANCH   7  12
HETATM   12  S   UNL     1      -8.236   7.134  69.581  1.00  0.00    -0.132 SA 
BRANCH  12  13
HETATM   13  C   UNL     1      -7.861   8.812  69.133  1.00  0.00    -0.098 A  
HETATM   14  C   UNL     1      -8.925   9.717  69.142  1.00  0.00    -0.154 A  
HETATM   15  C   UNL     1      -8.718  11.096  69.022  1.00  0.00    -0.027 A  
HETATM   16  C   UNL     1      -7.403  11.584  68.903  1.00  0.00    -0.116 A  
HETATM   17  C   UNL     1      -6.357  10.665  68.904  1.00  0.00    -0.045 A  
HETATM   18  C   UNL     1      -6.544   9.274  68.997  1.00  0.00    -0.047 A  
HETATM   19  N   UNL     1      -5.221  11.427  68.848  1.00  0.00    -0.040 NA 
HETATM   20  N   UNL     1      -5.441  12.749  68.801  1.00  0.00    -0.065 NA 
HETATM   21  H   UNL     1      -4.285  11.023  68.842  1.00  0.00     0.000 HD 
HETATM   22  C   UNL     1      -6.775  12.866  68.796  1.00  0.00    -0.093 A  
BRANCH  22  23
HETATM   23  C   UNL     1      -7.409  14.149  68.700  1.00  0.00    -0.126 C  
HETATM   24  C   UNL     1      -7.845  14.737  67.570  1.00  0.00    -0.208 C  
BRANCH  24  25
HETATM   25  C   UNL     1      -8.394  16.097  67.498  1.00  0.00    -0.159 A  
HETATM   26  C   UNL     1      -8.136  16.890  66.383  1.00  0.00    -0.350 A  
HETATM   27  C   UNL     1      -8.601  18.203  66.366  1.00  0.00    -0.251 A  
HETATM   28  C   UNL     1      -9.312  18.685  67.458  1.00  0.00    -0.301 A  
HETATM   29  C   UNL     1      -9.538  17.826  68.518  1.00  0.00    -0.322 A  
HETATM   30  N   UNL     1      -9.101  16.547  68.560  1.00  0.00    -0.222 NA 
ENDBRANCH  24  25
ENDBRANCH  22  23
ENDBRANCH  12  13
ENDBRANCH   7  12
ENDBRANCH   3   6
TORSDOF 5
ENDMDL
MODEL      194
REMARK 921   NORMALIZED FREE ENERGY PREDICTED BY IDOCK:   -1.46 KCAL/MOL
REMARK 922        TOTAL FREE ENERGY PREDICTED BY IDOCK:   -2.91 KCAL/MOL
REMARK 923 INTER-LIGAND FREE ENERGY PREDICTED BY IDOCK:   -2.98 KCAL/MOL
REMARK 924 INTRA-LIGAND FREE ENERGY PREDICTED BY IDOCK:    0.07 KCAL/MOL
REMARK 927      BINDING AFFINITY PREDICTED BY RF-SCORE:    0.00 PKD
ROOT
HETATM    1  C   UNL     1     -11.127   6.772  66.703  1.00  0.00     0.134 C  
HETATM    2  N   UNL     1     -10.496   6.070  67.787  1.00  0.00    -0.211 N  
HETATM    3  C   UNL     1      -9.658   5.000  67.558  1.00  0.00    -0.145 C  
HETATM    4  H   UNL     1     -10.672   6.370  68.746  1.00  0.00     0.000 HD 
HETATM    5  O   UNL     1      -9.533   4.460  66.463  1.00  0.00    -0.149 OA 
ENDROOT
BRANCH   3   6
HETATM    6  C   UNL     1      -8.934   4.464  68.753  1.00  0.00    -0.152 A  
HETATM    7  C   UNL     1      -7.581   4.756  69.056  1.00  0.00    -0.067 A  
HETATM    8  C   UNL     1      -7.046   4.251  70.251  1.00  0.00    -0.041 A  
HETATM    9  C   UNL     1      -9.120   3.103  70.754  1.00  0.00    -0.186 A  
HETATM   10  C   UNL     1      -7.815   3.440  71.097  1.00  0.00    -0.054 A  
HETATM   11  C   UNL     1      -9.680   3.618  69.588  1.00  0.00    -0.140 A  
BRANCH   7  12
HETATM   12  S   UNL     1      -6.518   5.510  67.830  1.00  0.00    -0.049 SA 
BRANCH  12  13
HETATM   13  C   UNL     1      -7.407   6.820  67.025  1.00  0.00    -0.082 A  
HETATM   14  C   UNL     1      -7.757   7.918  67.814  1.00  0.00    -0.121 A  
HETATM   15  C   UNL     1      -8.261   9.097  67.251  1.00  0.00    -0.114 A  
HETATM   16  C   UNL     1      -8.407   9.182  65.854  1.00  0.00    -0.127 A  
HETATM   17  C   UNL     1      -8.046   8.078  65.086  1.00  0.00    -0.143 A  
HETATM   18  C   UNL     1      -7.562   6.876  65.633  1.00  0.00    -0.089 A  
HETATM   19  N   UNL     1      -8.228   8.478  63.790  1.00  0.00    -0.262 NA 
HETATM   20  N   UNL     1      -8.682   9.733  63.654  1.00  0.00    -0.204 NA 
HETATM   21  H   UNL     1      -8.034   7.873  62.993  1.00  0.00     0.000 HD 
HETATM   22  C   UNL     1      -8.834  10.171  64.911  1.00  0.00    -0.190 A  
BRANCH  22  23
HETATM   23  C   UNL     1      -9.358  11.477  65.185  1.00  0.00    -0.129 C  
HETATM   24  C   UNL     1     -10.653  11.787  65.381  1.00  0.00    -0.325 C  
BRANCH  24  25
HETATM   25  C   UNL     1     -11.165  13.153  65.556  1.00  0.00    -0.281 A  
HETATM   26  C   UNL     1     -12.474  13.353  65.989  1.00  0.00    -0.431 A  
HETATM   27  C   UNL     1     -12.964  14.654  66.074  1.00  0.00     0.483 A  
HETATM   28  C   UNL     1     -12.138  15.715  65.731  1.00  0.00     0.875 A  
HETATM   29  C   UNL     1     -10.846  15.430  65.326  1.00  0.00    -0.409 A  
HETATM   30  N   UNL     1     -10.343  14.179  65.236  1.00  0.00    -0.367 NA 
ENDBRANCH  24  25
ENDBRANCH  22  23
ENDBRANCH  12  13
ENDBRANCH   7  12
ENDBRANCH   3   6
TORSDOF 5
ENDMDL
MODEL      195
REMARK 921   NORMALIZED FREE ENERGY PREDICTED BY IDOCK:   -0.24 KCAL/MOL
REMARK 922        TOTAL FREE ENERGY PREDICTED BY IDOCK:   -1.33 KCAL/MOL
REMARK 923 INTER-LIGAND FREE ENERGY PREDICTED BY IDOCK:   -0.89 KCAL/MOL
REMARK 924 INTRA-LIGAND FREE ENERGY PREDICTED BY IDOCK:   -0.45 KCAL/MOL
REMARK 927      BINDING AFFINITY PREDICTED BY RF-SCORE:    0.00 PKD
ROOT
HETATM    1  C   UNL     1      -6.476  19.952  69.706  1.00  0.00    -0.356 C  
HETATM    2  N   UNL     1      -7.141  18.952  68.916  1.00  0.00    -0.314 N  
HETATM    3  C   UNL     1      -8.362  18.434  69.293  1.00  0.00     0.235 C  
HETATM    4  H   UNL     1      -6.701  18.618  68.058  1.00  0.00     0.000 HD 
HETATM    5  O   UNL     1      -8.874  18.639  70.389  1.00  0.00     2.164 OA 
ENDROOT
BRANCH   3   6
HETATM    6  C   UNL     1      -9.026  17.530  68.304  1.00  0.00    -0.267 A  
HETATM    7  C   UNL     1      -8.696  16.163  68.134  1.00  0.00    -0.175 A  
HETATM    8  C   UNL     1      -9.451  15.407  67.224  1.00  0.00    -0.215 A  
HETATM    9  C   UNL     1     -10.739  17.360  66.593  1.00  0.00    -0.084 A  
HETATM   10  C   UNL     1     -10.472  16.000  66.468  1.00  0.00    -0.303 A  
HETATM   11  C   UNL     1     -10.023  18.121  67.512  1.00  0.00    -0.338 A  
BRANCH   7  12
HETATM   12  S   UNL     1      -7.198  15.494  68.850  1.00  0.00    -0.155 SA 
BRANCH  12  13
HETATM   13  C   UNL     1      -7.087  13.768  68.443  1.00  0.00    -0.105 A  
HETATM   14  C   UNL     1      -7.484  12.864  69.430  1.00  0.00     0.442 A  
HETATM   15  C   UNL     1      -7.647  11.501  69.155  1.00  0.00    -0.003 A  
HETATM   16  C   UNL     1      -7.418  11.032  67.848  1.00  0.00    -0.093 A  
HETATM   17  C   UNL     1      -7.030  11.953  66.877  1.00  0.00    -0.072 A  
HETATM   18  C   UNL     1      -6.835  13.321  67.138  1.00  0.00     0.230 A  
HETATM   19  N   UNL     1      -6.954  11.229  65.719  1.00  0.00    -0.359 NA 
HETATM   20  N   UNL     1      -7.248   9.928  65.856  1.00  0.00    -0.103 NA 
HETATM   21  H   UNL     1      -6.696  11.645  64.824  1.00  0.00     0.000 HD 
HETATM   22  C   UNL     1      -7.500   9.779  67.163  1.00  0.00    -0.088 A  
BRANCH  22  23
HETATM   23  C   UNL     1      -7.809   8.493  67.719  1.00  0.00    -0.103 C  
HETATM   24  C   UNL     1      -8.020   8.221  69.020  1.00  0.00    -0.112 C  
BRANCH  24  25
HETATM   25  C   UNL     1      -8.231   6.873  69.565  1.00  0.00    -0.131 A  
HETATM   26  C   UNL     1      -7.137   6.102  69.951  1.00  0.00    -0.072 A  
HETATM   27  C   UNL     1      -7.352   4.799  70.392  1.00  0.00    -0.050 A  
HETATM   28  C   UNL     1      -8.649   4.304  70.441  1.00  0.00    -0.105 A  
HETATM   29  C   UNL     1      -9.680   5.141  70.055  1.00  0.00    -0.205 A  
HETATM   30  N   UNL     1      -9.501   6.410  69.624  1.00  0.00    -0.147 NA 
ENDBRANCH  24  25
ENDBRANCH  22  23
ENDBRANCH  12  13
ENDBRANCH   7  12
ENDBRANCH   3   6
TORSDOF 5
ENDMDL
MODEL      196
REMARK 921   NORMALIZED FREE ENERGY PREDICTED BY IDOCK:    0.20 KCAL/MOL
REMARK 922        TOTAL FREE ENERGY PREDICTED BY IDOCK:   -0.77 KCAL/MOL
REMARK 923 INTER-LIGAND FREE ENERGY PREDICTED BY IDOCK:   -1.52 KCAL/MOL
REMARK 924 INTRA-LIGAND FREE ENERGY PREDICTED BY IDOCK:    0.75 KCAL/MOL
REMARK 927      BINDING AFFINITY PREDICTED BY RF-SCORE:    0.00 PKD
ROOT
HETATM    1  C   UNL     1     -12.147  10.080  67.718  1.00  0.00     2.695 C  
HETATM    2  N   UNL     1     -12.006  11.509  67.788  1.00  0.00    -0.139 N  
HETATM    3  C   UNL     1     -11.857  12.157  68.995  1.00  0.00    -0.306 C  
HETATM    4  H   UNL     1     -12.015  12.055  66.926  1.00  0.00     0.000 HD 
HETATM    5  O   UNL     1     -12.015  11.609  70.082  1.00  0.00    -0.327 OA 
ENDROOT
BRANCH   3   6
HETATM    6  C   UNL     1     -11.550  13.620  68.923  1.00  0.00    -0.362 A  
HETATM    7  C   UNL     1     -10.754  14.213  67.912  1.00  0.00    -0.240 A  
HETATM    8  C   UNL     1     -10.609  15.609  67.917  1.00  0.00    -0.278 A  
HETATM    9  C   UNL     1     -11.916  15.788  69.949  1.00  0.00    -0.346 A  
HETATM   10  C   UNL     1     -11.195  16.390  68.923  1.00  0.00    -0.304 A  
HETATM   11  C   UNL     1     -12.098  14.408  69.947  1.00  0.00    -0.398 A  
BRANCH   7  12
HETATM   12  S   UNL     1      -9.750  13.197  66.833  1.00  0.00    -0.249 SA 
BRANCH  12  13
HETATM   13  C   UNL     1      -8.980  11.920  67.798  1.00  0.00    -0.173 A  
HETATM   14  C   UNL     1      -9.017  10.627  67.270  1.00  0.00    -0.141 A  
HETATM   15  C   UNL     1      -8.263   9.585  67.825  1.00  0.00    -0.114 A  
HETATM   16  C   UNL     1      -7.437   9.851  68.933  1.00  0.00    -0.081 A  
HETATM   17  C   UNL     1      -7.410  11.149  69.438  1.00  0.00    -0.062 A  
HETATM   18  C   UNL     1      -8.179  12.203  68.913  1.00  0.00     0.161 A  
HETATM   19  N   UNL     1      -6.484  11.113  70.444  1.00  0.00    -0.453 NA 
HETATM   20  N   UNL     1      -5.921   9.912  70.640  1.00  0.00    -0.078 NA 
HETATM   21  H   UNL     1      -6.241  11.933  71.001  1.00  0.00     0.000 HD 
HETATM   22  C   UNL     1      -6.519   9.114  69.746  1.00  0.00    -0.039 A  
BRANCH  22  23
HETATM   23  C   UNL     1      -6.214   7.714  69.678  1.00  0.00    -0.031 C  
HETATM   24  C   UNL     1      -7.105   6.712  69.558  1.00  0.00    -0.076 C  
BRANCH  24  25
HETATM   25  C   UNL     1      -6.763   5.285  69.597  1.00  0.00    -0.051 A  
HETATM   26  C   UNL     1      -7.773   4.328  69.530  1.00  0.00    -0.054 A  
HETATM   27  C   UNL     1      -7.436   2.981  69.646  1.00  0.00    -0.044 A  
HETATM   28  C   UNL     1      -6.104   2.628  69.821  1.00  0.00    -0.024 A  
HETATM   29  C   UNL     1      -5.162   3.640  69.862  1.00  0.00    -0.008 A  
HETATM   30  N   UNL     1      -5.460   4.954  69.750  1.00  0.00    -0.007 NA 
ENDBRANCH  24  25
ENDBRANCH  22  23
ENDBRANCH  12  13
ENDBRANCH   7  12
ENDBRANCH   3   6
TORSDOF 5
ENDMDL
MODEL      197
REMARK 921   NORMALIZED FREE ENERGY PREDICTED BY IDOCK:    0.50 KCAL/MOL
REMARK 922        TOTAL FREE ENERGY PREDICTED BY IDOCK:   -0.38 KCAL/MOL
REMARK 923 INTER-LIGAND FREE ENERGY PREDICTED BY IDOCK:   -0.27 KCAL/MOL
REMARK 924 INTRA-LIGAND FREE ENERGY PREDICTED BY IDOCK:   -0.11 KCAL/MOL
REMARK 927      BINDING AFFINITY PREDICTED BY RF-SCORE:    0.00 PKD
ROOT
HETATM    1  C   UNL     1      -6.061   4.213  71.930  1.00  0.00    -0.017 C  
HETATM    2  N   UNL     1      -5.985   4.448  70.514  1.00  0.00    -0.014 N  
HETATM    3  C   UNL     1      -7.076   4.252  69.695  1.00  0.00    -0.049 C  
HETATM    4  H   UNL     1      -5.106   4.768  70.107  1.00  0.00     0.000 HD 
HETATM    5  O   UNL     1      -8.109   3.701  70.063  1.00  0.00    -0.049 OA 
ENDROOT
BRANCH   3   6
HETATM    6  C   UNL     1      -6.918   4.692  68.274  1.00  0.00    -0.056 A  
HETATM    7  C   UNL     1      -7.850   5.511  67.590  1.00  0.00    -0.097 A  
HETATM    8  C   UNL     1      -7.542   5.916  66.282  1.00  0.00    -0.094 A  
HETATM    9  C   UNL     1      -5.495   4.619  66.309  1.00  0.00    -0.013 A  
HETATM   10  C   UNL     1      -6.368   5.481  65.652  1.00  0.00    -0.039 A  
HETATM   11  C   UNL     1      -5.767   4.230  67.618  1.00  0.00    -0.022 A  
BRANCH   7  12
HETATM   12  S   UNL     1      -9.481   5.795  68.270  1.00  0.00    -0.121 SA 
BRANCH  12  13
HETATM   13  C   UNL     1      -9.841   7.533  68.196  1.00  0.00    -0.159 A  
HETATM   14  C   UNL     1     -10.595   8.063  69.246  1.00  0.00    -0.193 A  
HETATM   15  C   UNL     1     -10.756   9.444  69.411  1.00  0.00    -0.234 A  
HETATM   16  C   UNL     1     -10.131  10.320  68.505  1.00  0.00    -0.181 A  
HETATM   17  C   UNL     1      -9.378   9.771  67.471  1.00  0.00    -0.133 A  
HETATM   18  C   UNL     1      -9.225   8.387  67.271  1.00  0.00    -0.165 A  
HETATM   19  N   UNL     1      -8.848  10.848  66.813  1.00  0.00    -0.142 NA 
HETATM   20  N   UNL     1      -9.198  12.037  67.322  1.00  0.00    -0.177 NA 
HETATM   21  H   UNL     1      -8.237  10.754  66.002  1.00  0.00     0.000 HD 
HETATM   22  C   UNL     1     -10.016  11.737  68.340  1.00  0.00    -0.202 A  
BRANCH  22  23
HETATM   23  C   UNL     1     -10.647  12.766  69.115  1.00  0.00     0.013 C  
HETATM   24  C   UNL     1     -10.281  14.060  69.164  1.00  0.00    -0.025 C  
BRANCH  24  25
HETATM   25  C   UNL     1     -10.887  15.064  70.050  1.00  0.00    -0.219 A  
HETATM   26  C   UNL     1     -10.217  16.258  70.304  1.00  0.00     0.304 A  
HETATM   27  C   UNL     1     -10.771  17.163  71.207  1.00  0.00     1.727 A  
HETATM   28  C   UNL     1     -11.975  16.854  71.825  1.00  0.00     0.827 A  
HETATM   29  C   UNL     1     -12.583  15.653  71.504  1.00  0.00    -0.447 A  
HETATM   30  N   UNL     1     -12.069  14.758  70.631  1.00  0.00    -0.288 NA 
ENDBRANCH  24  25
ENDBRANCH  22  23
ENDBRANCH  12  13
ENDBRANCH   7  12
ENDBRANCH   3   6
TORSDOF 5
ENDMDL
MODEL      198
REMARK 921   NORMALIZED FREE ENERGY PREDICTED BY IDOCK:    0.51 KCAL/MOL
REMARK 922        TOTAL FREE ENERGY PREDICTED BY IDOCK:   -0.36 KCAL/MOL
REMARK 923 INTER-LIGAND FREE ENERGY PREDICTED BY IDOCK:   -2.17 KCAL/MOL
REMARK 924 INTRA-LIGAND FREE ENERGY PREDICTED BY IDOCK:    1.80 KCAL/MOL
REMARK 927      BINDING AFFINITY PREDICTED BY RF-SCORE:    0.00 PKD
ROOT
HETATM    1  C   UNL     1      -6.786   7.527  73.010  1.00  0.00    -0.066 C  
HETATM    2  N   UNL     1      -6.543   6.431  72.110  1.00  0.00    -0.061 N  
HETATM    3  C   UNL     1      -7.513   5.996  71.233  1.00  0.00    -0.089 C  
HETATM    4  H   UNL     1      -5.635   5.967  72.121  1.00  0.00     0.000 HD 
HETATM    5  O   UNL     1      -8.681   6.369  71.275  1.00  0.00    -0.134 OA 
ENDROOT
BRANCH   3   6
HETATM    6  C   UNL     1      -7.083   4.966  70.237  1.00  0.00    -0.049 A  
HETATM    7  C   UNL     1      -7.929   4.430  69.235  1.00  0.00    -0.061 A  
HETATM    8  C   UNL     1      -7.377   3.527  68.314  1.00  0.00    -0.051 A  
HETATM    9  C   UNL     1      -5.235   3.606  69.444  1.00  0.00    -0.011 A  
HETATM   10  C   UNL     1      -6.037   3.127  68.413  1.00  0.00    -0.025 A  
HETATM   11  C   UNL     1      -5.755   4.527  70.350  1.00  0.00    -0.013 A  
BRANCH   7  12
HETATM   12  S   UNL     1      -9.699   4.687  69.308  1.00  0.00    -0.188 SA 
BRANCH  12  13
HETATM   13  C   UNL     1     -10.036   6.423  69.137  1.00  0.00    -0.149 A  
HETATM   14  C   UNL     1     -10.952   6.976  70.035  1.00  0.00    -0.303 A  
HETATM   15  C   UNL     1     -11.133   8.360  70.141  1.00  0.00    -0.183 A  
HETATM   16  C   UNL     1     -10.364   9.217  69.331  1.00  0.00    -0.220 A  
HETATM   17  C   UNL     1      -9.451   8.644  68.448  1.00  0.00    -0.138 A  
HETATM   18  C   UNL     1      -9.273   7.256  68.307  1.00  0.00    -0.133 A  
HETATM   19  N   UNL     1      -8.817   9.706  67.863  1.00  0.00    -0.119 NA 
HETATM   20  N   UNL     1      -9.243  10.907  68.280  1.00  0.00    -0.155 NA 
HETATM   21  H   UNL     1      -8.080   9.593  67.166  1.00  0.00     0.000 HD 
HETATM   22  C   UNL     1     -10.218  10.629  69.156  1.00  0.00    -0.220 A  
BRANCH  22  23
HETATM   23  C   UNL     1     -10.965  11.675  69.792  1.00  0.00    -0.001 C  
HETATM   24  C   UNL     1     -11.790  12.546  69.181  1.00  0.00    -0.348 C  
BRANCH  24  25
HETATM   25  C   UNL     1     -12.458  13.670  69.851  1.00  0.00    -0.167 A  
HETATM   26  C   UNL     1     -12.681  14.857  69.157  1.00  0.00     0.321 A  
HETATM   27  C   UNL     1     -13.245  15.937  69.832  1.00  0.00     1.127 A  
HETATM   28  C   UNL     1     -13.574  15.802  71.174  1.00  0.00    -0.039 A  
HETATM   29  C   UNL     1     -13.334  14.583  71.784  1.00  0.00    -0.363 A  
HETATM   30  N   UNL     1     -12.790  13.518  71.154  1.00  0.00    -0.331 NA 
ENDBRANCH  24  25
ENDBRANCH  22  23
ENDBRANCH  12  13
ENDBRANCH   7  12
ENDBRANCH   3   6
TORSDOF 5
ENDMDL
MODEL      199
REMARK 921   NORMALIZED FREE ENERGY PREDICTED BY IDOCK:    0.88 KCAL/MOL
REMARK 922        TOTAL FREE ENERGY PREDICTED BY IDOCK:    0.11 KCAL/MOL
REMARK 923 INTER-LIGAND FREE ENERGY PREDICTED BY IDOCK:   -0.41 KCAL/MOL
REMARK 924 INTRA-LIGAND FREE ENERGY PREDICTED BY IDOCK:    0.52 KCAL/MOL
REMARK 927      BINDING AFFINITY PREDICTED BY RF-SCORE:    0.00 PKD
ROOT
HETATM    1  C   UNL     1     -12.149   7.353  72.267  1.00  0.00    -0.208 C  
HETATM    2  N   UNL     1     -11.135   6.503  72.829  1.00  0.00    -0.290 N  
HETATM    3  C   UNL     1     -11.176   5.134  72.668  1.00  0.00    -0.209 C  
HETATM    4  H   UNL     1     -10.369   6.921  73.357  1.00  0.00     0.000 HD 
HETATM    5  O   UNL     1     -12.144   4.535  72.210  1.00  0.00     0.997 OA 
ENDROOT
BRANCH   3   6
HETATM    6  C   UNL     1      -9.978   4.380  73.152  1.00  0.00    -0.189 A  
HETATM    7  C   UNL     1      -9.007   4.915  74.033  1.00  0.00    -0.113 A  
HETATM    8  C   UNL     1      -7.973   4.073  74.471  1.00  0.00    -0.086 A  
HETATM    9  C   UNL     1      -8.796   2.261  73.089  1.00  0.00    -0.072 A  
HETATM   10  C   UNL     1      -7.876   2.753  74.009  1.00  0.00    -0.060 A  
HETATM   11  C   UNL     1      -9.847   3.070  72.665  1.00  0.00    -0.209 A  
BRANCH   7  12
HETATM   12  S   UNL     1      -8.948   6.674  74.360  1.00  0.00    -0.194 SA 
BRANCH  12  13
HETATM   13  C   UNL     1      -8.372   7.511  72.903  1.00  0.00    -0.120 A  
HETATM   14  C   UNL     1      -7.780   6.719  71.917  1.00  0.00    -0.096 A  
HETATM   15  C   UNL     1      -7.489   7.225  70.645  1.00  0.00    -0.079 A  
HETATM   16  C   UNL     1      -7.811   8.562  70.348  1.00  0.00    -0.089 A  
HETATM   17  C   UNL     1      -8.408   9.332  71.343  1.00  0.00     0.197 A  
HETATM   18  C   UNL     1      -8.685   8.851  72.636  1.00  0.00     0.338 A  
HETATM   19  N   UNL     1      -8.663  10.538  70.748  1.00  0.00     0.757 NA 
HETATM   20  N   UNL     1      -8.277  10.617  69.467  1.00  0.00    -0.085 NA 
HETATM   21  H   UNL     1      -9.109  11.312  71.239  1.00  0.00     0.000 HD 
HETATM   22  C   UNL     1      -7.719   9.427  69.211  1.00  0.00    -0.083 A  
BRANCH  22  23
HETATM   23  C   UNL     1      -7.131   9.139  67.934  1.00  0.00    -0.079 C  
HETATM   24  C   UNL     1      -7.650   8.338  66.985  1.00  0.00    -0.092 C  
BRANCH  24  25
HETATM   25  C   UNL     1      -6.970   7.984  65.732  1.00  0.00    -0.060 A  
HETATM   26  C   UNL     1      -6.105   6.893  65.697  1.00  0.00    -0.036 A  
HETATM   27  C   UNL     1      -5.411   6.620  64.520  1.00  0.00    -0.026 A  
HETATM   28  C   UNL     1      -5.601   7.438  63.415  1.00  0.00    -0.041 A  
HETATM   29  C   UNL     1      -6.490   8.492  63.530  1.00  0.00    -0.085 A  
HETATM   30  N   UNL     1      -7.178   8.779  64.657  1.00  0.00    -0.094 NA 
ENDBRANCH  24  25
ENDBRANCH  22  23
ENDBRANCH  12  13
ENDBRANCH   7  12
ENDBRANCH   3   6
TORSDOF 5
ENDMDL
MODEL      200
REMARK 921   NORMALIZED FREE ENERGY PREDICTED BY IDOCK:    1.73 KCAL/MOL
REMARK 922        TOTAL FREE ENERGY PREDICTED BY IDOCK:    1.21 KCAL/MOL
REMARK 923 INTER-LIGAND FREE ENERGY PREDICTED BY IDOCK:   -3.16 KCAL/MOL
REMARK 924 INTRA-LIGAND FREE ENERGY PREDICTED BY IDOCK:    4.37 KCAL/MOL
REMARK 927      BINDING AFFINITY PREDICTED BY RF-SCORE:    0.00 PKD
ROOT
HETATM    1  C   UNL     1     -11.024   7.682  67.788  1.00  0.00     0.049 C  
HETATM    2  N   UNL     1     -10.968   8.829  66.922  1.00  0.00    -0.177 N  
HETATM    3  C   UNL     1     -11.401  10.068  67.344  1.00  0.00     0.313 C  
HETATM    4  H   UNL     1     -10.601   8.723  65.977  1.00  0.00     0.000 HD 
HETATM    5  O   UNL     1     -12.020  10.250  68.388  1.00  0.00    -0.164 OA 
ENDROOT
BRANCH   3   6
HETATM    6  C   UNL     1     -11.134  11.208  66.413  1.00  0.00    -0.204 A  
HETATM    7  C   UNL     1     -10.255  11.138  65.305  1.00  0.00    -0.280 A  
HETATM    8  C   UNL     1     -10.156  12.258  64.465  1.00  0.00    -0.280 A  
HETATM    9  C   UNL     1     -11.675  13.513  65.876  1.00  0.00    -0.380 A  
HETATM   10  C   UNL     1     -10.869  13.432  64.744  1.00  0.00    -0.387 A  
HETATM   11  C   UNL     1     -11.812  12.402  66.705  1.00  0.00    -0.394 A  
BRANCH   7  12
HETATM   12  S   UNL     1      -9.112   9.770  65.137  1.00  0.00    -0.239 SA 
BRANCH  12  13
HETATM   13  C   UNL     1      -8.347   9.465  66.711  1.00  0.00    -0.123 A  
HETATM   14  C   UNL     1      -8.598   8.223  67.300  1.00  0.00    -0.124 A  
HETATM   15  C   UNL     1      -7.885   7.784  68.422  1.00  0.00    -0.121 A  
HETATM   16  C   UNL     1      -6.882   8.609  68.962  1.00  0.00    -0.056 A  
HETATM   17  C   UNL     1      -6.643   9.840  68.356  1.00  0.00    -0.056 A  
HETATM   18  C   UNL     1      -7.366  10.311  67.244  1.00  0.00    -0.090 A  
HETATM   19  N   UNL     1      -5.588  10.372  69.045  1.00  0.00    -0.041 NA 
HETATM   20  N   UNL     1      -5.132   9.603  70.044  1.00  0.00    -0.032 NA 
HETATM   21  H   UNL     1      -5.181  11.279  68.818  1.00  0.00     0.000 HD 
HETATM   22  C   UNL     1      -5.936   8.531  70.034  1.00  0.00    -0.027 A  
BRANCH  22  23
HETATM   23  C   UNL     1      -5.794   7.486  71.006  1.00  0.00    -0.035 C  
HETATM   24  C   UNL     1      -6.647   6.463  71.201  1.00  0.00    -0.051 C  
BRANCH  24  25
HETATM   25  C   UNL     1      -6.523   5.470  72.276  1.00  0.00    -0.052 A  
HETATM   26  C   UNL     1      -7.650   4.782  72.718  1.00  0.00    -0.091 A  
HETATM   27  C   UNL     1      -7.526   3.901  73.790  1.00  0.00    -0.070 A  
HETATM   28  C   UNL     1      -6.284   3.727  74.385  1.00  0.00    -0.025 A  
HETATM   29  C   UNL     1      -5.211   4.436  73.873  1.00  0.00    -0.008 A  
HETATM   30  N   UNL     1      -5.303   5.296  72.834  1.00  0.00    -0.016 NA 
ENDBRANCH  24  25
ENDBRANCH  22  23
ENDBRANCH  12  13
ENDBRANCH   7  12
ENDBRANCH   3   6
TORSDOF 5
ENDMDL
MODEL      201
REMARK 921   NORMALIZED FREE ENERGY PREDICTED BY IDOCK:    1.87 KCAL/MOL
REMARK 922        TOTAL FREE ENERGY PREDICTED BY IDOCK:    1.40 KCAL/MOL
REMARK 923 INTER-LIGAND FREE ENERGY PREDICTED BY IDOCK:    1.66 KCAL/MOL
REMARK 924 INTRA-LIGAND FREE ENERGY PREDICTED BY IDOCK:   -0.26 KCAL/MOL
REMARK 927      BINDING AFFINITY PREDICTED BY RF-SCORE:    0.00 PKD
ROOT
HETATM    1  C   UNL     1      -7.894  20.999  69.713  1.00  0.00     3.224 C  
HETATM    2  N   UNL     1      -8.809  20.003  69.224  1.00  0.00     0.206 N  
HETATM    3  C   UNL     1      -8.483  19.189  68.160  1.00  0.00    -0.320 C  
HETATM    4  H   UNL     1      -9.719  19.896  69.674  1.00  0.00     0.000 HD 
HETATM    5  O   UNL     1      -7.498  19.367  67.449  1.00  0.00    -0.227 OA 
ENDROOT
BRANCH   3   6
HETATM    6  C   UNL     1      -9.446  18.086  67.857  1.00  0.00    -0.273 A  
HETATM    7  C   UNL     1      -9.451  16.834  68.521  1.00  0.00    -0.245 A  
HETATM    8  C   UNL     1     -10.459  15.914  68.194  1.00  0.00    -0.270 A  
HETATM    9  C   UNL     1     -11.349  17.412  66.509  1.00  0.00     0.995 A  
HETATM   10  C   UNL     1     -11.407  16.207  67.203  1.00  0.00     0.166 A  
HETATM   11  C   UNL     1     -10.375  18.351  66.839  1.00  0.00    -0.417 A  
BRANCH   7  12
HETATM   12  S   UNL     1      -8.064  16.340  69.538  1.00  0.00     0.266 SA 
BRANCH  12  13
HETATM   13  C   UNL     1      -7.665  14.646  69.183  1.00  0.00    -0.113 A  
HETATM   14  C   UNL     1      -8.206  14.105  68.014  1.00  0.00    -0.152 A  
HETATM   15  C   UNL     1      -7.792  12.864  67.518  1.00  0.00    -0.177 A  
HETATM   16  C   UNL     1      -6.796  12.147  68.207  1.00  0.00    -0.069 A  
HETATM   17  C   UNL     1      -6.265  12.708  69.367  1.00  0.00    -0.113 A  
HETATM   18  C   UNL     1      -6.685  13.941  69.896  1.00  0.00     0.038 A  
HETATM   19  N   UNL     1      -5.290  11.833  69.764  1.00  0.00    -0.069 NA 
HETATM   20  N   UNL     1      -5.153  10.758  68.974  1.00  0.00    -0.042 NA 
HETATM   21  H   UNL     1      -4.716  11.985  70.593  1.00  0.00     0.000 HD 
HETATM   22  C   UNL     1      -6.092  10.913  68.032  1.00  0.00    -0.049 A  
BRANCH  22  23
HETATM   23  C   UNL     1      -6.296   9.923  67.014  1.00  0.00    -0.065 C  
HETATM   24  C   UNL     1      -6.380  10.152  65.691  1.00  0.00    -0.102 C  
BRANCH  24  25
HETATM   25  C   UNL     1      -6.693   9.126  64.687  1.00  0.00    -0.082 A  
HETATM   26  C   UNL     1      -7.837   9.249  63.903  1.00  0.00    -0.130 A  
HETATM   27  C   UNL     1      -8.158   8.229  63.012  1.00  0.00    -0.152 A  
HETATM   28  C   UNL     1      -7.328   7.119  62.924  1.00  0.00    -0.079 A  
HETATM   29  C   UNL     1      -6.202   7.083  63.727  1.00  0.00    -0.043 A  
HETATM   30  N   UNL     1      -5.865   8.059  64.599  1.00  0.00    -0.045 NA 
ENDBRANCH  24  25
ENDBRANCH  22  23
ENDBRANCH  12  13
ENDBRANCH   7  12
ENDBRANCH   3   6
TORSDOF 5
ENDMDL
MODEL      202
REMARK 921   NORMALIZED FREE ENERGY PREDICTED BY IDOCK:    1.96 KCAL/MOL
REMARK 922        TOTAL FREE ENERGY PREDICTED BY IDOCK:    1.51 KCAL/MOL
REMARK 923 INTER-LIGAND FREE ENERGY PREDICTED BY IDOCK:    1.14 KCAL/MOL
REMARK 924 INTRA-LIGAND FREE ENERGY PREDICTED BY IDOCK:    0.37 KCAL/MOL
REMARK 927      BINDING AFFINITY PREDICTED BY RF-SCORE:    0.00 PKD
ROOT
HETATM    1  C   UNL     1      -6.420  14.096  68.936  1.00  0.00    -0.094 C  
HETATM    2  N   UNL     1      -7.676  14.752  68.695  1.00  0.00    -0.122 N  
HETATM    3  C   UNL     1      -8.041  15.161  67.430  1.00  0.00    -0.186 C  
HETATM    4  H   UNL     1      -8.312  14.918  69.476  1.00  0.00     0.000 HD 
HETATM    5  O   UNL     1      -7.273  15.169  66.473  1.00  0.00     0.274 OA 
ENDROOT
BRANCH   3   6
HETATM    6  C   UNL     1      -9.439  15.675  67.283  1.00  0.00    -0.221 A  
HETATM    7  C   UNL     1     -10.377  15.734  68.343  1.00  0.00    -0.233 A  
HETATM    8  C   UNL     1     -11.630  16.312  68.087  1.00  0.00    -0.072 A  
HETATM    9  C   UNL     1     -11.057  16.645  65.756  1.00  0.00     0.168 A  
HETATM   10  C   UNL     1     -11.962  16.773  66.806  1.00  0.00     2.098 A  
HETATM   11  C   UNL     1      -9.797  16.102  65.995  1.00  0.00    -0.375 A  
BRANCH   7  12
HETATM   12  S   UNL     1     -10.073  14.860  69.875  1.00  0.00     0.156 SA 
BRANCH  12  13
HETATM   13  C   UNL     1     -10.681  13.198  69.718  1.00  0.00     0.596 A  
HETATM   14  C   UNL     1      -9.749  12.220  69.361  1.00  0.00     0.885 A  
HETATM   15  C   UNL     1     -10.057  10.855  69.420  1.00  0.00    -0.116 A  
HETATM   16  C   UNL     1     -11.333  10.458  69.861  1.00  0.00    -0.370 A  
HETATM   17  C   UNL     1     -12.244  11.449  70.219  1.00  0.00    -0.349 A  
HETATM   18  C   UNL     1     -11.964  12.826  70.143  1.00  0.00    -0.371 A  
HETATM   19  N   UNL     1     -13.345  10.769  70.664  1.00  0.00     0.021 NA 
HETATM   20  N   UNL     1     -13.230   9.434  70.616  1.00  0.00     0.110 NA 
HETATM   21  H   UNL     1     -14.184  11.239  71.003  1.00  0.00     0.000 HD 
HETATM   22  C   UNL     1     -12.016   9.222  70.092  1.00  0.00     0.203 A  
BRANCH  22  23
HETATM   23  C   UNL     1     -11.539   7.894  69.833  1.00  0.00     0.237 C  
HETATM   24  C   UNL     1     -10.327   7.566  69.349  1.00  0.00    -0.213 C  
BRANCH  24  25
HETATM   25  C   UNL     1      -9.911   6.202  68.999  1.00  0.00    -0.153 A  
HETATM   26  C   UNL     1      -9.290   5.958  67.776  1.00  0.00    -0.106 A  
HETATM   27  C   UNL     1      -8.974   4.647  67.430  1.00  0.00    -0.119 A  
HETATM   28  C   UNL     1      -9.281   3.619  68.310  1.00  0.00    -0.218 A  
HETATM   29  C   UNL     1      -9.884   3.949  69.512  1.00  0.00    -0.010 A  
HETATM   30  N   UNL     1     -10.200   5.212  69.875  1.00  0.00    -0.278 NA 
ENDBRANCH  24  25
ENDBRANCH  22  23
ENDBRANCH  12  13
ENDBRANCH   7  12
ENDBRANCH   3   6
TORSDOF 5
ENDMDL
MODEL      203
REMARK 921   NORMALIZED FREE ENERGY PREDICTED BY IDOCK:    2.36 KCAL/MOL
REMARK 922        TOTAL FREE ENERGY PREDICTED BY IDOCK:    2.03 KCAL/MOL
REMARK 923 INTER-LIGAND FREE ENERGY PREDICTED BY IDOCK:    2.49 KCAL/MOL
REMARK 924 INTRA-LIGAND FREE ENERGY PREDICTED BY IDOCK:   -0.46 KCAL/MOL
REMARK 927      BINDING AFFINITY PREDICTED BY RF-SCORE:    0.00 PKD
ROOT
HETATM    1  C   UNL     1     -11.874   4.764  68.956  1.00  0.00     7.279 C  
HETATM    2  N   UNL     1     -10.547   5.112  68.527  1.00  0.00    -0.023 N  
HETATM    3  C   UNL     1      -9.549   4.165  68.442  1.00  0.00    -0.125 C  
HETATM    4  H   UNL     1     -10.339   6.080  68.280  1.00  0.00     0.000 HD 
HETATM    5  O   UNL     1      -9.656   3.026  68.887  1.00  0.00    -0.147 OA 
ENDROOT
BRANCH   3   6
HETATM    6  C   UNL     1      -8.264   4.618  67.823  1.00  0.00    -0.099 A  
HETATM    7  C   UNL     1      -7.263   5.342  68.516  1.00  0.00    -0.063 A  
HETATM    8  C   UNL     1      -6.070   5.637  67.839  1.00  0.00    -0.025 A  
HETATM    9  C   UNL     1      -6.912   4.619  65.808  1.00  0.00    -0.063 A  
HETATM   10  C   UNL     1      -5.893   5.269  66.498  1.00  0.00    -0.018 A  
HETATM   11  C   UNL     1      -8.092   4.290  66.470  1.00  0.00    -0.102 A  
BRANCH   7  12
HETATM   12  S   UNL     1      -7.616   6.087  70.105  1.00  0.00    -0.097 SA 
BRANCH  12  13
HETATM   13  C   UNL     1      -8.680   7.489  69.859  1.00  0.00    -0.140 A  
HETATM   14  C   UNL     1      -8.844   8.350  70.946  1.00  0.00    -0.185 A  
HETATM   15  C   UNL     1      -9.476   9.592  70.810  1.00  0.00    -0.124 A  
HETATM   16  C   UNL     1      -9.946   9.988  69.544  1.00  0.00    -0.249 A  
HETATM   17  C   UNL     1      -9.765   9.117  68.472  1.00  0.00    -0.155 A  
HETATM   18  C   UNL     1      -9.157   7.854  68.592  1.00  0.00    -0.136 A  
HETATM   19  N   UNL     1     -10.249   9.792  67.385  1.00  0.00    -0.215 NA 
HETATM   20  N   UNL     1     -10.733  11.012  67.660  1.00  0.00    -0.220 NA 
HETATM   21  H   UNL     1     -10.243   9.401  66.444  1.00  0.00     0.000 HD 
HETATM   22  C   UNL     1     -10.589  11.138  68.986  1.00  0.00    -0.218 A  
BRANCH  22  23
HETATM   23  C   UNL     1     -11.046  12.310  69.675  1.00  0.00    -0.021 C  
HETATM   24  C   UNL     1     -12.193  12.426  70.369  1.00  0.00    -0.370 C  
BRANCH  24  25
HETATM   25  C   UNL     1     -12.677  13.674  70.975  1.00  0.00    -0.332 A  
HETATM   26  C   UNL     1     -12.251  14.900  70.470  1.00  0.00    -0.388 A  
HETATM   27  C   UNL     1     -12.660  16.070  71.106  1.00  0.00    -0.195 A  
HETATM   28  C   UNL     1     -13.483  15.985  72.221  1.00  0.00    -0.214 A  
HETATM   29  C   UNL     1     -13.873  14.728  72.647  1.00  0.00    -0.406 A  
HETATM   30  N   UNL     1     -13.494  13.577  72.049  1.00  0.00    -0.458 NA 
ENDBRANCH  24  25
ENDBRANCH  22  23
ENDBRANCH  12  13
ENDBRANCH   7  12
ENDBRANCH   3   6
TORSDOF 5
ENDMDL
MODEL      204
REMARK 921   NORMALIZED FREE ENERGY PREDICTED BY IDOCK:    2.85 KCAL/MOL
REMARK 922        TOTAL FREE ENERGY PREDICTED BY IDOCK:    2.67 KCAL/MOL
REMARK 923 INTER-LIGAND FREE ENERGY PREDICTED BY IDOCK:    3.11 KCAL/MOL
REMARK 924 INTRA-LIGAND FREE ENERGY PREDICTED BY IDOCK:   -0.45 KCAL/MOL
REMARK 927      BINDING AFFINITY PREDICTED BY RF-SCORE:    0.00 PKD
ROOT
HETATM    1  C   UNL     1      -7.884   3.672  70.541  1.00  0.00    -0.047 C  
HETATM    2  N   UNL     1      -8.637   4.685  69.851  1.00  0.00    -0.073 N  
HETATM    3  C   UNL     1      -8.392   4.985  68.528  1.00  0.00    -0.088 C  
HETATM    4  H   UNL     1      -9.368   5.191  70.351  1.00  0.00     0.000 HD 
HETATM    5  O   UNL     1      -7.422   4.561  67.906  1.00  0.00    -0.068 OA 
ENDROOT
BRANCH   3   6
HETATM    6  C   UNL     1      -9.351   5.932  67.880  1.00  0.00    -0.107 A  
HETATM    7  C   UNL     1      -8.972   6.930  66.949  1.00  0.00    -0.122 A  
HETATM    8  C   UNL     1      -9.984   7.702  66.356  1.00  0.00    -0.142 A  
HETATM    9  C   UNL     1     -11.679   6.589  67.682  1.00  0.00     0.961 A  
HETATM   10  C   UNL     1     -11.327   7.524  66.714  1.00  0.00     1.172 A  
HETATM   11  C   UNL     1     -10.695   5.791  68.260  1.00  0.00    -0.285 A  
BRANCH   7  12
HETATM   12  S   UNL     1      -7.250   7.372  66.740  1.00  0.00    -0.089 SA 
BRANCH  12  13
HETATM   13  C   UNL     1      -7.057   9.106  67.072  1.00  0.00    -0.086 A  
HETATM   14  C   UNL     1      -6.296   9.839  66.158  1.00  0.00    -0.071 A  
HETATM   15  C   UNL     1      -6.255  11.238  66.191  1.00  0.00    -0.014 A  
HETATM   16  C   UNL     1      -7.008  11.924  67.162  1.00  0.00    -0.142 A  
HETATM   17  C   UNL     1      -7.765  11.174  68.059  1.00  0.00    -0.107 A  
HETATM   18  C   UNL     1      -7.801   9.767  68.059  1.00  0.00    -0.086 A  
HETATM   19  N   UNL     1      -8.428  12.099  68.817  1.00  0.00    -0.358 NA 
HETATM   20  N   UNL     1      -8.160  13.374  68.498  1.00  0.00    -0.137 NA 
HETATM   21  H   UNL     1      -9.073  11.842  69.564  1.00  0.00     0.000 HD 
HETATM   22  C   UNL     1      -7.262  13.289  67.508  1.00  0.00    -0.150 A  
BRANCH  22  23
HETATM   23  C   UNL     1      -6.685  14.465  66.924  1.00  0.00     1.184 C  
HETATM   24  C   UNL     1      -6.863  15.730  67.348  1.00  0.00    -0.235 C  
BRANCH  24  25
HETATM   25  C   UNL     1      -6.340  16.919  66.662  1.00  0.00    -0.179 A  
HETATM   26  C   UNL     1      -6.083  16.873  65.294  1.00  0.00     2.654 A  
HETATM   27  C   UNL     1      -5.516  17.984  64.676  1.00  0.00     0.220 A  
HETATM   28  C   UNL     1      -5.225  19.109  65.436  1.00  0.00    -0.190 A  
HETATM   29  C   UNL     1      -5.527  19.078  66.786  1.00  0.00    -0.151 A  
HETATM   30  N   UNL     1      -6.079  18.014  67.412  1.00  0.00    -0.150 NA 
ENDBRANCH  24  25
ENDBRANCH  22  23
ENDBRANCH  12  13
ENDBRANCH   7  12
ENDBRANCH   3   6
TORSDOF 5
ENDMDL
MODEL      205
REMARK 921   NORMALIZED FREE ENERGY PREDICTED BY IDOCK:    3.59 KCAL/MOL
REMARK 922        TOTAL FREE ENERGY PREDICTED BY IDOCK:    3.61 KCAL/MOL
REMARK 923 INTER-LIGAND FREE ENERGY PREDICTED BY IDOCK:    3.64 KCAL/MOL
REMARK 924 INTRA-LIGAND FREE ENERGY PREDICTED BY IDOCK:   -0.03 KCAL/MOL
REMARK 927      BINDING AFFINITY PREDICTED BY RF-SCORE:    0.00 PKD
ROOT
HETATM    1  C   UNL     1      -6.060   4.214  71.932  1.00  0.00    -0.017 C  
HETATM    2  N   UNL     1      -5.985   4.470  70.519  1.00  0.00    -0.017 N  
HETATM    3  C   UNL     1      -7.082   4.308  69.702  1.00  0.00    -0.049 C  
HETATM    4  H   UNL     1      -5.101   4.779  70.114  1.00  0.00     0.000 HD 
HETATM    5  O   UNL     1      -8.125   3.772  70.066  1.00  0.00    -0.053 OA 
ENDROOT
BRANCH   3   6
HETATM    6  C   UNL     1      -6.922   4.768  68.287  1.00  0.00    -0.057 A  
HETATM    7  C   UNL     1      -7.824   5.642  67.631  1.00  0.00    -0.097 A  
HETATM    8  C   UNL     1      -7.513   6.057  66.327  1.00  0.00    -0.086 A  
HETATM    9  C   UNL     1      -5.527   4.669  66.303  1.00  0.00    -0.013 A  
HETATM   10  C   UNL     1      -6.368   5.582  65.674  1.00  0.00    -0.039 A  
HETATM   11  C   UNL     1      -5.800   4.268  67.608  1.00  0.00    -0.023 A  
BRANCH   7  12
HETATM   12  S   UNL     1      -9.432   5.985  68.337  1.00  0.00    -0.120 SA 
BRANCH  12  13
HETATM   13  C   UNL     1      -9.701   7.741  68.328  1.00  0.00    -0.159 A  
HETATM   14  C   UNL     1      -9.182   8.450  67.241  1.00  0.00    -0.165 A  
HETATM   15  C   UNL     1      -9.514   9.790  67.013  1.00  0.00    -0.195 A  
HETATM   16  C   UNL     1     -10.402  10.437  67.893  1.00  0.00    -0.227 A  
HETATM   17  C   UNL     1     -10.912   9.710  68.965  1.00  0.00    -0.132 A  
HETATM   18  C   UNL     1     -10.572   8.370  69.228  1.00  0.00    -0.193 A  
HETATM   19  N   UNL     1     -11.781  10.565  69.586  1.00  0.00    -0.356 NA 
HETATM   20  N   UNL     1     -11.870  11.776  69.019  1.00  0.00    -0.315 NA 
HETATM   21  H   UNL     1     -12.318  10.302  70.413  1.00  0.00     0.000 HD 
HETATM   22  C   UNL     1     -11.003  11.731  67.999  1.00  0.00    -0.225 A  
BRANCH  22  23
HETATM   23  C   UNL     1     -10.773  12.877  67.167  1.00  0.00    -0.268 C  
HETATM   24  C   UNL     1     -11.569  13.958  67.068  1.00  0.00    -0.394 C  
BRANCH  24  25
HETATM   25  C   UNL     1     -11.354  15.066  66.128  1.00  0.00    -0.270 A  
HETATM   26  C   UNL     1     -12.400  15.937  65.832  1.00  0.00     1.732 A  
HETATM   27  C   UNL     1     -12.199  16.934  64.880  1.00  0.00     2.894 A  
HETATM   28  C   UNL     1     -10.964  17.037  64.255  1.00  0.00     1.425 A  
HETATM   29  C   UNL     1      -9.973  16.142  64.619  1.00  0.00     1.418 A  
HETATM   30  N   UNL     1     -10.139  15.166  65.540  1.00  0.00    -0.357 NA 
ENDBRANCH  24  25
ENDBRANCH  22  23
ENDBRANCH  12  13
ENDBRANCH   7  12
ENDBRANCH   3   6
TORSDOF 5
ENDMDL
MODEL      206
REMARK 921   NORMALIZED FREE ENERGY PREDICTED BY IDOCK:   11.65 KCAL/MOL
REMARK 922        TOTAL FREE ENERGY PREDICTED BY IDOCK:   14.03 KCAL/MOL
REMARK 923 INTER-LIGAND FREE ENERGY PREDICTED BY IDOCK:   13.89 KCAL/MOL
REMARK 924 INTRA-LIGAND FREE ENERGY PREDICTED BY IDOCK:    0.14 KCAL/MOL
REMARK 927      BINDING AFFINITY PREDICTED BY RF-SCORE:    0.00 PKD
ROOT
HETATM    1  C   UNL     1      -8.133   2.393  66.948  1.00  0.00    -0.081 C  
HETATM    2  N   UNL     1      -8.163   3.626  66.211  1.00  0.00    -0.100 N  
HETATM    3  C   UNL     1      -7.471   4.738  66.644  1.00  0.00    -0.086 C  
HETATM    4  H   UNL     1      -8.706   3.681  65.349  1.00  0.00     0.000 HD 
HETATM    5  O   UNL     1      -6.946   4.819  67.750  1.00  0.00    -0.058 OA 
ENDROOT
BRANCH   3   6
HETATM    6  C   UNL     1      -7.444   5.902  65.705  1.00  0.00    -0.081 A  
HETATM    7  C   UNL     1      -7.613   7.249  66.108  1.00  0.00    -0.088 A  
HETATM    8  C   UNL     1      -7.486   8.253  65.136  1.00  0.00    -0.085 A  
HETATM    9  C   UNL     1      -7.155   6.597  63.397  1.00  0.00    -0.056 A  
HETATM   10  C   UNL     1      -7.249   7.928  63.793  1.00  0.00    -0.092 A  
HETATM   11  C   UNL     1      -7.247   5.587  64.351  1.00  0.00    -0.055 A  
BRANCH   7  12
HETATM   12  S   UNL     1      -8.232   7.638  67.742  1.00  0.00    -0.119 SA 
BRANCH  12  13
HETATM   13  C   UNL     1      -9.014   9.233  67.696  1.00  0.00    -0.119 A  
HETATM   14  C   UNL     1      -8.921  10.010  68.853  1.00  0.00    -0.152 A  
HETATM   15  C   UNL     1      -9.303  11.357  68.865  1.00  0.00    -0.044 A  
HETATM   16  C   UNL     1      -9.780  11.946  67.679  1.00  0.00    -0.186 A  
HETATM   17  C   UNL     1      -9.858  11.154  66.536  1.00  0.00    -0.208 A  
HETATM   18  C   UNL     1      -9.504   9.793  66.508  1.00  0.00    -0.228 A  
HETATM   19  N   UNL     1     -10.280  12.003  65.550  1.00  0.00    -0.250 NA 
HETATM   20  N   UNL     1     -10.490  13.264  65.954  1.00  0.00    -0.280 NA 
HETATM   21  H   UNL     1     -10.423  11.703  64.586  1.00  0.00     0.000 HD 
HETATM   22  C   UNL     1     -10.224  13.242  67.267  1.00  0.00    -0.240 A  
BRANCH  22  23
HETATM   23  C   UNL     1     -10.386  14.414  68.078  1.00  0.00    -0.227 C  
HETATM   24  C   UNL     1     -11.534  15.088  68.279  1.00  0.00    -0.349 C  
BRANCH  24  25
HETATM   25  C   UNL     1     -11.640  16.345  69.032  1.00  0.00    -0.143 A  
HETATM   26  C   UNL     1     -10.885  17.450  68.647  1.00  0.00    -0.146 A  
HETATM   27  C   UNL     1     -10.942  18.608  69.419  1.00  0.00     1.709 A  
HETATM   28  C   UNL     1     -11.750  18.632  70.548  1.00  0.00     7.553 A  
HETATM   29  C   UNL     1     -12.480  17.496  70.851  1.00  0.00     7.707 A  
HETATM   30  N   UNL     1     -12.446  16.360  70.119  1.00  0.00     0.396 NA 
ENDBRANCH  24  25
ENDBRANCH  22  23
ENDBRANCH  12  13
ENDBRANCH   7  12
ENDBRANCH   3   6
TORSDOF 5
ENDMDL
MODEL      207
REMARK 921   NORMALIZED FREE ENERGY PREDICTED BY IDOCK:   13.92 KCAL/MOL
REMARK 922        TOTAL FREE ENERGY PREDICTED BY IDOCK:   16.96 KCAL/MOL
REMARK 923 INTER-LIGAND FREE ENERGY PREDICTED BY IDOCK:    2.42 KCAL/MOL
REMARK 924 INTRA-LIGAND FREE ENERGY PREDICTED BY IDOCK:   14.53 KCAL/MOL
REMARK 927      BINDING AFFINITY PREDICTED BY RF-SCORE:    0.00 PKD
ROOT
HETATM    1  C   UNL     1      -6.157  10.257  67.808  1.00  0.00    -0.056 C  
HETATM    2  N   UNL     1      -6.809  11.524  67.620  1.00  0.00    -0.077 N  
HETATM    3  C   UNL     1      -7.970  11.631  66.884  1.00  0.00    -0.161 C  
HETATM    4  H   UNL     1      -6.406  12.361  68.040  1.00  0.00     0.000 HD 
HETATM    5  O   UNL     1      -8.423  10.720  66.198  1.00  0.00    -0.156 OA 
ENDROOT
BRANCH   3   6
HETATM    6  C   UNL     1      -8.640  12.968  66.905  1.00  0.00    -0.126 A  
HETATM    7  C   UNL     1      -8.892  13.710  68.085  1.00  0.00    -0.189 A  
HETATM    8  C   UNL     1      -9.458  14.988  67.956  1.00  0.00    -0.193 A  
HETATM    9  C   UNL     1      -9.623  14.728  65.553  1.00  0.00    -0.159 A  
HETATM   10  C   UNL     1      -9.811  15.495  66.698  1.00  0.00    -0.268 A  
HETATM   11  C   UNL     1      -9.035  13.470  65.655  1.00  0.00     0.859 A  
BRANCH   7  12
HETATM   12  S   UNL     1      -8.745  12.937  69.693  1.00  0.00     2.365 SA 
BRANCH  12  13
HETATM   13  C   UNL     1      -8.316  11.228  69.472  1.00  0.00     0.515 A  
HETATM   14  C   UNL     1      -7.815  10.557  70.591  1.00  0.00     1.379 A  
HETATM   15  C   UNL     1      -7.649   9.167  70.600  1.00  0.00    -0.143 A  
HETATM   16  C   UNL     1      -8.007   8.425  69.459  1.00  0.00    -0.111 A  
HETATM   17  C   UNL     1      -8.511   9.113  68.358  1.00  0.00    -0.128 A  
HETATM   18  C   UNL     1      -8.661  10.511  68.318  1.00  0.00    -0.135 A  
HETATM   19  N   UNL     1      -8.829   8.139  67.451  1.00  0.00    -0.127 NA 
HETATM   20  N   UNL     1      -8.568   6.890  67.863  1.00  0.00    -0.123 NA 
HETATM   21  H   UNL     1      -9.232   8.345  66.537  1.00  0.00     0.000 HD 
HETATM   22  C   UNL     1      -8.029   7.046  69.080  1.00  0.00    -0.116 A  
BRANCH  22  23
HETATM   23  C   UNL     1      -7.564   5.919  69.837  1.00  0.00    -0.080 C  
HETATM   24  C   UNL     1      -7.958   5.581  71.078  1.00  0.00    -0.106 C  
BRANCH  24  25
HETATM   25  C   UNL     1      -7.383   4.480  71.863  1.00  0.00    -0.073 A  
HETATM   26  C   UNL     1      -7.865   4.215  73.142  1.00  0.00    -0.085 A  
HETATM   27  C   UNL     1      -7.256   3.218  73.900  1.00  0.00    -0.047 A  
HETATM   28  C   UNL     1      -6.189   2.512  73.360  1.00  0.00    -0.012 A  
HETATM   29  C   UNL     1      -5.783   2.827  72.076  1.00  0.00    -0.008 A  
HETATM   30  N   UNL     1      -6.357   3.788  71.317  1.00  0.00    -0.015 NA 
ENDBRANCH  24  25
ENDBRANCH  22  23
ENDBRANCH  12  13
ENDBRANCH   7  12
ENDBRANCH   3   6
TORSDOF 5
ENDMDL
MODEL      208
REMARK 921   NORMALIZED FREE ENERGY PREDICTED BY IDOCK:   27.54 KCAL/MOL
REMARK 922        TOTAL FREE ENERGY PREDICTED BY IDOCK:   34.57 KCAL/MOL
REMARK 923 INTER-LIGAND FREE ENERGY PREDICTED BY IDOCK:   34.70 KCAL/MOL
REMARK 924 INTRA-LIGAND FREE ENERGY PREDICTED BY IDOCK:   -0.13 KCAL/MOL
REMARK 927      BINDING AFFINITY PREDICTED BY RF-SCORE:    0.00 PKD
ROOT
HETATM    1  C   UNL     1      -8.108   4.227  69.115  1.00  0.00    -0.067 C  
HETATM    2  N   UNL     1      -9.215   5.095  68.816  1.00  0.00    -0.114 N  
HETATM    3  C   UNL     1      -9.369   5.657  67.567  1.00  0.00    -0.109 C  
HETATM    4  H   UNL     1      -9.900   5.298  69.543  1.00  0.00     0.000 HD 
HETATM    5  O   UNL     1      -8.506   5.616  66.695  1.00  0.00    -0.112 OA 
ENDROOT
BRANCH   3   6
HETATM    6  C   UNL     1     -10.646   6.401  67.334  1.00  0.00    -0.363 A  
HETATM    7  C   UNL     1     -10.722   7.663  66.697  1.00  0.00     0.119 A  
HETATM    8  C   UNL     1     -11.992   8.216  66.471  1.00  0.00     6.247 A  
HETATM    9  C   UNL     1     -13.058   6.354  67.596  1.00  0.00    12.132 A  
HETATM   10  C   UNL     1     -13.151   7.560  66.909  1.00  0.00    14.559 A  
HETATM   11  C   UNL     1     -11.810   5.773  67.804  1.00  0.00     2.675 A  
BRANCH   7  12
HETATM   12  S   UNL     1      -9.245   8.640  66.435  1.00  0.00    -0.208 SA 
BRANCH  12  13
HETATM   13  C   UNL     1      -9.350  10.116  67.417  1.00  0.00    -0.148 A  
HETATM   14  C   UNL     1      -8.141  10.682  67.831  1.00  0.00    -0.111 A  
HETATM   15  C   UNL     1      -8.087  11.952  68.417  1.00  0.00    -0.155 A  
HETATM   16  C   UNL     1      -9.278  12.682  68.584  1.00  0.00     0.029 A  
HETATM   17  C   UNL     1     -10.471  12.102  68.158  1.00  0.00    -0.211 A  
HETATM   18  C   UNL     1     -10.551  10.817  67.590  1.00  0.00    -0.271 A  
HETATM   19  N   UNL     1     -11.425  13.058  68.380  1.00  0.00    -0.286 NA 
HETATM   20  N   UNL     1     -10.958  14.194  68.918  1.00  0.00    -0.252 NA 
HETATM   21  H   UNL     1     -12.410  12.918  68.156  1.00  0.00     0.000 HD 
HETATM   22  C   UNL     1      -9.647  13.971  69.085  1.00  0.00     0.201 A  
BRANCH  22  23
HETATM   23  C   UNL     1      -8.797  14.953  69.691  1.00  0.00     0.106 C  
HETATM   24  C   UNL     1      -7.491  15.145  69.426  1.00  0.00    -0.204 C  
BRANCH  24  25
HETATM   25  C   UNL     1      -6.627  16.092  70.143  1.00  0.00     0.194 A  
HETATM   26  C   UNL     1      -5.956  15.685  71.293  1.00  0.00     0.593 A  
HETATM   27  C   UNL     1      -5.202  16.618  72.001  1.00  0.00     0.712 A  
HETATM   28  C   UNL     1      -5.136  17.926  71.542  1.00  0.00     0.011 A  
HETATM   29  C   UNL     1      -5.820  18.244  70.381  1.00  0.00    -0.093 A  
HETATM   30  N   UNL     1      -6.556  17.359  69.673  1.00  0.00    -0.175 NA 
ENDBRANCH  24  25
ENDBRANCH  22  23
ENDBRANCH  12  13
ENDBRANCH   7  12
ENDBRANCH   3   6
TORSDOF 5
ENDMDL
