MODEL        1
REMARK 921   NORMALIZED FREE ENERGY PREDICTED BY IDOCK:   -7.19 KCAL/MOL
REMARK 922        TOTAL FREE ENERGY PREDICTED BY IDOCK:   -8.00 KCAL/MOL
REMARK 923 INTER-LIGAND FREE ENERGY PREDICTED BY IDOCK:   -8.03 KCAL/MOL
REMARK 924 INTRA-LIGAND FREE ENERGY PREDICTED BY IDOCK:    0.02 KCAL/MOL
REMARK 927      BINDING AFFINITY PREDICTED BY RF-SCORE:    0.00 PKD
ROOT
HETATM    1  N   UNL     1     -12.876  12.288  63.502  1.00  0.00    -0.796 NA 
HETATM    2  H2  UNL     1     -13.802  12.515  63.137  1.00  0.00     0.000 HD 
HETATM    3  C   UNL     1     -12.048  13.277  63.912  1.00  0.00    -0.468 C  
HETATM    4  H1  UNL     1     -12.573  11.316  63.558  1.00  0.00     0.000 HD 
HETATM    5  N   UNL     1     -12.431  14.506  63.841  1.00  0.00    -1.031 N  
HETATM    6  C   UNL     1     -11.563  15.469  64.282  1.00  0.00    -0.194 C  
HETATM    7  H   UNL     1     -13.349  14.752  63.470  1.00  0.00     0.000 HD 
HETATM    8  N   UNL     1     -10.620  15.086  65.195  1.00  0.00    -0.392 N  
HETATM    9  O   UNL     1     -11.630  16.617  63.863  1.00  0.00    -1.204 OA 
HETATM   10  N   UNL     1     -10.827  12.911  64.369  1.00  0.00    -0.356 NA 
HETATM   11  C   UNL     1     -10.175  13.816  65.006  1.00  0.00    -0.346 C  
ENDROOT
BRANCH   8  12
HETATM   12  C1* UNL     1      -9.739  16.033  65.841  1.00  0.00    -0.343 C  
HETATM   13  O4* UNL     1      -9.374  15.459  67.118  1.00  0.00    -0.205 OA 
HETATM   14  C4* UNL     1     -10.304  15.954  68.113  1.00  0.00    -0.256 C  
HETATM   15  C3* UNL     1     -10.741  17.338  67.652  1.00  0.00    -0.307 C  
HETATM   16  H2* UNL     1      -9.439  19.273  66.408  1.00  0.00     0.000 HD 
HETATM   17  C2* UNL     1     -10.230  17.453  66.213  1.00  0.00    -0.341 C  
HETATM   18  O3* UNL     1     -10.186  18.330  68.521  1.00  0.00    -0.381 OA 
HETATM   19  O2* UNL     1      -9.137  18.402  66.179  1.00  0.00    -0.469 OA 
HETATM   20  H3* UNL     1     -10.458  19.193  68.233  1.00  0.00     0.000 HD 
BRANCH  14  21
HETATM   21  C5* UNL     1     -11.511  15.010  68.245  1.00  0.00    -0.332 C  
HETATM   22  O5* UNL     1     -12.476  15.553  69.140  1.00  0.00    -0.609 OA 
HETATM   23  H5* UNL     1     -13.221  14.970  69.222  1.00  0.00     0.000 HD 
ENDBRANCH  14  21
ENDBRANCH   8  12
TORSDOF 2
ENDMDL
MODEL        2
REMARK 921   NORMALIZED FREE ENERGY PREDICTED BY IDOCK:   -6.51 KCAL/MOL
REMARK 922        TOTAL FREE ENERGY PREDICTED BY IDOCK:   -7.24 KCAL/MOL
REMARK 923 INTER-LIGAND FREE ENERGY PREDICTED BY IDOCK:   -7.24 KCAL/MOL
REMARK 924 INTRA-LIGAND FREE ENERGY PREDICTED BY IDOCK:   -0.00 KCAL/MOL
REMARK 927      BINDING AFFINITY PREDICTED BY RF-SCORE:    0.00 PKD
ROOT
HETATM    1  N   UNL     1      -9.206  19.214  68.757  1.00  0.00    -0.368 NA 
HETATM    2  H2  UNL     1      -9.872  19.862  69.180  1.00  0.00     0.000 HD 
HETATM    3  C   UNL     1      -9.542  17.914  68.585  1.00  0.00    -0.328 C  
HETATM    4  H1  UNL     1      -8.288  19.545  68.463  1.00  0.00     0.000 HD 
HETATM    5  N   UNL     1     -10.703  17.496  68.956  1.00  0.00    -0.337 N  
HETATM    6  C   UNL     1     -11.000  16.175  68.747  1.00  0.00    -0.330 C  
HETATM    7  H   UNL     1     -11.377  18.126  69.389  1.00  0.00     0.000 HD 
HETATM    8  N   UNL     1     -10.313  15.532  67.755  1.00  0.00    -0.258 N  
HETATM    9  O   UNL     1     -11.837  15.601  69.432  1.00  0.00    -0.355 OA 
HETATM   10  N   UNL     1      -8.608  17.103  68.035  1.00  0.00    -0.221 NA 
HETATM   11  C   UNL     1      -9.031  15.961  67.624  1.00  0.00    -0.190 C  
ENDROOT
BRANCH   8  12
HETATM   12  C1* UNL     1     -10.631  14.183  67.343  1.00  0.00    -0.279 C  
HETATM   13  O4* UNL     1     -10.069  14.007  66.022  1.00  0.00    -0.295 OA 
HETATM   14  C4* UNL     1     -11.097  14.329  65.052  1.00  0.00    -0.373 C  
HETATM   15  C3* UNL     1     -12.432  13.979  65.699  1.00  0.00    -0.504 C  
HETATM   16  H2* UNL     1     -13.137  12.032  67.341  1.00  0.00     0.000 HD 
HETATM   17  C2* UNL     1     -12.100  13.727  67.173  1.00  0.00    -0.378 C  
HETATM   18  O3* UNL     1     -12.993  12.835  65.050  1.00  0.00    -0.811 OA 
HETATM   19  O2* UNL     1     -12.235  12.312  67.446  1.00  0.00    -0.478 OA 
HETATM   20  H3* UNL     1     -13.826  12.618  65.454  1.00  0.00     0.000 HD 
BRANCH  14  21
HETATM   21  C5* UNL     1     -11.041  15.818  64.673  1.00  0.00    -0.361 C  
HETATM   22  O5* UNL     1     -11.989  16.112  63.653  1.00  0.00    -1.375 OA 
HETATM   23  H5* UNL     1     -11.954  17.032  63.419  1.00  0.00     0.000 HD 
ENDBRANCH  14  21
ENDBRANCH   8  12
TORSDOF 2
ENDMDL
MODEL        3
REMARK 921   NORMALIZED FREE ENERGY PREDICTED BY IDOCK:   -6.33 KCAL/MOL
REMARK 922        TOTAL FREE ENERGY PREDICTED BY IDOCK:   -7.05 KCAL/MOL
REMARK 923 INTER-LIGAND FREE ENERGY PREDICTED BY IDOCK:   -7.05 KCAL/MOL
REMARK 924 INTRA-LIGAND FREE ENERGY PREDICTED BY IDOCK:    0.00 KCAL/MOL
REMARK 927      BINDING AFFINITY PREDICTED BY RF-SCORE:    0.00 PKD
ROOT
HETATM    1  N   UNL     1     -11.939  16.119  63.854  1.00  0.00    -1.332 NA 
HETATM    2  H2  UNL     1     -11.174  16.514  63.307  1.00  0.00     0.000 HD 
HETATM    3  C   UNL     1     -11.820  14.885  64.396  1.00  0.00    -0.360 C  
HETATM    4  H1  UNL     1     -12.796  16.655  63.994  1.00  0.00     0.000 HD 
HETATM    5  N   UNL     1     -10.737  14.208  64.220  1.00  0.00    -0.558 N  
HETATM    6  C   UNL     1     -10.659  12.970  64.800  1.00  0.00    -0.362 C  
HETATM    7  H   UNL     1      -9.965  14.582  63.667  1.00  0.00     0.000 HD 
HETATM    8  N   UNL     1     -11.451  12.744  65.891  1.00  0.00    -0.338 N  
HETATM    9  O   UNL     1      -9.918  12.107  64.347  1.00  0.00    -0.269 OA 
HETATM   10  N   UNL     1     -12.878  14.412  65.095  1.00  0.00    -0.597 NA 
HETATM   11  C   UNL     1     -12.649  13.381  65.827  1.00  0.00    -0.393 C  
ENDROOT
BRANCH   8  12
HETATM   12  C1* UNL     1     -11.358  11.532  66.675  1.00  0.00    -0.214 C  
HETATM   13  O4* UNL     1     -12.112  11.763  67.889  1.00  0.00    -0.592 OA 
HETATM   14  C4* UNL     1     -11.195  12.247  68.900  1.00  0.00    -0.273 C  
HETATM   15  C3* UNL     1      -9.837  11.629  68.590  1.00  0.00    -0.165 C  
HETATM   16  H2* UNL     1      -9.157   9.262  67.629  1.00  0.00     0.000 HD 
HETATM   17  C2* UNL     1      -9.993  11.020  67.194  1.00  0.00    -0.187 C  
HETATM   18  O3* UNL     1      -9.513  10.658  69.588  1.00  0.00    -0.414 OA 
HETATM   19  O2* UNL     1      -9.995   9.577  67.311  1.00  0.00    -0.167 OA 
HETATM   20  H3* UNL     1      -8.666  10.273  69.394  1.00  0.00     0.000 HD 
BRANCH  14  21
HETATM   21  C5* UNL     1     -11.120  13.783  68.878  1.00  0.00    -0.266 C  
HETATM   22  O5* UNL     1     -12.417  14.349  69.034  1.00  0.00    -0.561 OA 
HETATM   23  H5* UNL     1     -12.371  15.298  69.020  1.00  0.00     0.000 HD 
ENDBRANCH  14  21
ENDBRANCH   8  12
TORSDOF 2
ENDMDL
MODEL        4
REMARK 921   NORMALIZED FREE ENERGY PREDICTED BY IDOCK:   -6.31 KCAL/MOL
REMARK 922        TOTAL FREE ENERGY PREDICTED BY IDOCK:   -7.02 KCAL/MOL
REMARK 923 INTER-LIGAND FREE ENERGY PREDICTED BY IDOCK:   -7.05 KCAL/MOL
REMARK 924 INTRA-LIGAND FREE ENERGY PREDICTED BY IDOCK:    0.02 KCAL/MOL
REMARK 927      BINDING AFFINITY PREDICTED BY RF-SCORE:    0.00 PKD
ROOT
HETATM    1  N   UNL     1     -12.530  16.133  69.815  1.00  0.00    -0.461 NA 
HETATM    2  H2  UNL     1     -13.391  15.908  70.314  1.00  0.00     0.000 HD 
HETATM    3  C   UNL     1     -11.965  15.220  68.991  1.00  0.00    -0.276 C  
HETATM    4  H1  UNL     1     -12.093  17.046  69.938  1.00  0.00     0.000 HD 
HETATM    5  N   UNL     1     -12.518  14.066  68.836  1.00  0.00    -0.441 N  
HETATM    6  C   UNL     1     -11.916  13.182  67.979  1.00  0.00    -0.304 C  
HETATM    7  H   UNL     1     -13.374  13.820  69.333  1.00  0.00     0.000 HD 
HETATM    8  N   UNL     1     -11.119  13.708  67.002  1.00  0.00    -0.296 N  
HETATM    9  O   UNL     1     -12.083  11.975  68.100  1.00  0.00    -0.480 OA 
HETATM   10  N   UNL     1     -10.813  15.574  68.373  1.00  0.00    -0.262 NA 
HETATM   11  C   UNL     1     -10.450  14.823  67.396  1.00  0.00    -0.256 C  
ENDROOT
BRANCH   8  12
HETATM   12  C1* UNL     1     -10.543  12.896  65.954  1.00  0.00    -0.269 C  
HETATM   13  O4* UNL     1     -10.292  13.776  64.834  1.00  0.00    -0.388 OA 
HETATM   14  C4* UNL     1     -11.446  13.727  63.959  1.00  0.00    -0.216 C  
HETATM   15  C3* UNL     1     -12.046  12.334  64.107  1.00  0.00    -0.436 C  
HETATM   16  H2* UNL     1     -10.932   9.966  64.479  1.00  0.00     0.000 HD 
HETATM   17  C2* UNL     1     -11.337  11.728  65.322  1.00  0.00    -0.222 C  
HETATM   18  O3* UNL     1     -11.829  11.589  62.906  1.00  0.00    -0.859 OA 
HETATM   19  O2* UNL     1     -10.444  10.683  64.868  1.00  0.00    -0.312 OA 
HETATM   20  H3* UNL     1     -12.204  10.721  62.999  1.00  0.00     0.000 HD 
BRANCH  14  21
HETATM   21  C5* UNL     1     -12.466  14.811  64.342  1.00  0.00    -0.252 C  
HETATM   22  O5* UNL     1     -12.099  16.066  63.779  1.00  0.00    -1.318 OA 
HETATM   23  H5* UNL     1     -12.730  16.736  64.016  1.00  0.00     0.000 HD 
ENDBRANCH  14  21
ENDBRANCH   8  12
TORSDOF 2
ENDMDL
MODEL        5
REMARK 921   NORMALIZED FREE ENERGY PREDICTED BY IDOCK:   -6.27 KCAL/MOL
REMARK 922        TOTAL FREE ENERGY PREDICTED BY IDOCK:   -6.98 KCAL/MOL
REMARK 923 INTER-LIGAND FREE ENERGY PREDICTED BY IDOCK:   -6.89 KCAL/MOL
REMARK 924 INTRA-LIGAND FREE ENERGY PREDICTED BY IDOCK:   -0.09 KCAL/MOL
REMARK 927      BINDING AFFINITY PREDICTED BY RF-SCORE:    0.00 PKD
ROOT
HETATM    1  N   UNL     1      -9.499  16.775  69.023  1.00  0.00    -0.247 NA 
HETATM    2  H2  UNL     1      -8.693  17.346  68.765  1.00  0.00     0.000 HD 
HETATM    3  C   UNL     1     -10.262  16.205  68.061  1.00  0.00    -0.252 C  
HETATM    4  H1  UNL     1      -9.730  16.633  70.006  1.00  0.00     0.000 HD 
HETATM    5  N   UNL     1      -9.969  16.384  66.819  1.00  0.00    -0.261 N  
HETATM    6  C   UNL     1     -10.763  15.775  65.884  1.00  0.00    -0.313 C  
HETATM    7  H   UNL     1      -9.174  16.960  66.542  1.00  0.00     0.000 HD 
HETATM    8  N   UNL     1     -11.453  14.664  66.283  1.00  0.00    -0.359 N  
HETATM    9  O   UNL     1     -10.853  16.220  64.747  1.00  0.00    -0.671 OA 
HETATM   10  N   UNL     1     -11.327  15.475  68.469  1.00  0.00    -0.333 NA 
HETATM   11  C   UNL     1     -11.863  14.722  67.577  1.00  0.00    -0.301 C  
ENDROOT
BRANCH   8  12
HETATM   12  C1* UNL     1     -12.212  13.853  65.358  1.00  0.00    -0.444 C  
HETATM   13  O4* UNL     1     -12.343  12.544  65.962  1.00  0.00    -0.615 OA 
HETATM   14  C4* UNL     1     -11.254  11.718  65.478  1.00  0.00    -0.258 C  
HETATM   15  C3* UNL     1     -10.915  12.218  64.080  1.00  0.00    -0.383 C  
HETATM   16  H2* UNL     1     -12.430  13.170  62.134  1.00  0.00     0.000 HD 
HETATM   17  C2* UNL     1     -11.673  13.542  63.941  1.00  0.00    -0.368 C  
HETATM   18  O3* UNL     1     -11.314  11.243  63.113  1.00  0.00    -0.837 OA 
HETATM   19  O2* UNL     1     -12.761  13.361  63.004  1.00  0.00    -0.631 OA 
HETATM   20  H3* UNL     1     -11.103  11.555  62.241  1.00  0.00     0.000 HD 
BRANCH  14  21
HETATM   21  C5* UNL     1     -10.037  11.821  66.412  1.00  0.00    -0.210 C  
HETATM   22  O5* UNL     1      -8.877  12.209  65.682  1.00  0.00    -0.404 OA 
HETATM   23  H5* UNL     1      -8.125  12.272  66.259  1.00  0.00     0.000 HD 
ENDBRANCH  14  21
ENDBRANCH   8  12
TORSDOF 2
ENDMDL
MODEL        6
REMARK 921   NORMALIZED FREE ENERGY PREDICTED BY IDOCK:   -6.20 KCAL/MOL
REMARK 922        TOTAL FREE ENERGY PREDICTED BY IDOCK:   -6.90 KCAL/MOL
REMARK 923 INTER-LIGAND FREE ENERGY PREDICTED BY IDOCK:   -6.90 KCAL/MOL
REMARK 924 INTRA-LIGAND FREE ENERGY PREDICTED BY IDOCK:    0.00 KCAL/MOL
REMARK 927      BINDING AFFINITY PREDICTED BY RF-SCORE:    0.00 PKD
ROOT
HETATM    1  N   UNL     1     -10.136   9.090  67.111  1.00  0.00    -0.221 NA 
HETATM    2  H2  UNL     1      -9.265   8.706  66.743  1.00  0.00     0.000 HD 
HETATM    3  C   UNL     1     -10.318  10.430  67.160  1.00  0.00    -0.238 C  
HETATM    4  H1  UNL     1     -10.870   8.464  67.441  1.00  0.00     0.000 HD 
HETATM    5  N   UNL     1      -9.390  11.221  66.742  1.00  0.00    -0.174 N  
HETATM    6  C   UNL     1      -9.629  12.568  66.799  1.00  0.00    -0.231 C  
HETATM    7  H   UNL     1      -8.509  10.855  66.381  1.00  0.00     0.000 HD 
HETATM    8  N   UNL     1     -10.936  12.969  66.800  1.00  0.00    -0.271 N  
HETATM    9  O   UNL     1      -8.705  13.370  66.858  1.00  0.00    -0.210 OA 
HETATM   10  N   UNL     1     -11.488  10.876  67.675  1.00  0.00    -0.518 NA 
HETATM   11  C   UNL     1     -11.760  12.113  67.457  1.00  0.00    -0.315 C  
ENDROOT
BRANCH   8  12
HETATM   12  C1* UNL     1     -11.317  14.361  66.716  1.00  0.00    -0.352 C  
HETATM   13  O4* UNL     1     -12.608  14.401  66.063  1.00  0.00    -0.382 OA 
HETATM   14  C4* UNL     1     -12.386  14.586  64.643  1.00  0.00    -0.403 C  
HETATM   15  C3* UNL     1     -11.096  15.384  64.504  1.00  0.00    -0.256 C  
HETATM   16  H2* UNL     1     -10.055  17.321  65.970  1.00  0.00     0.000 HD 
HETATM   17  C2* UNL     1     -10.473  15.372  65.903  1.00  0.00    -0.340 C  
HETATM   18  O3* UNL     1     -11.396  16.702  64.038  1.00  0.00    -1.486 OA 
HETATM   19  O2* UNL     1     -10.573  16.700  66.470  1.00  0.00    -0.286 OA 
HETATM   20  H3* UNL     1     -10.591  17.199  63.951  1.00  0.00     0.000 HD 
BRANCH  14  21
HETATM   21  C5* UNL     1     -12.276  13.229  63.929  1.00  0.00    -0.425 C  
HETATM   22  O5* UNL     1     -13.295  12.342  64.377  1.00  0.00    -0.789 OA 
HETATM   23  H5* UNL     1     -13.227  11.503  63.936  1.00  0.00     0.000 HD 
ENDBRANCH  14  21
ENDBRANCH   8  12
TORSDOF 2
ENDMDL
MODEL        7
REMARK 921   NORMALIZED FREE ENERGY PREDICTED BY IDOCK:   -6.17 KCAL/MOL
REMARK 922        TOTAL FREE ENERGY PREDICTED BY IDOCK:   -6.86 KCAL/MOL
REMARK 923 INTER-LIGAND FREE ENERGY PREDICTED BY IDOCK:   -6.88 KCAL/MOL
REMARK 924 INTRA-LIGAND FREE ENERGY PREDICTED BY IDOCK:    0.02 KCAL/MOL
REMARK 927      BINDING AFFINITY PREDICTED BY RF-SCORE:    0.00 PKD
ROOT
HETATM    1  N   UNL     1     -10.151  20.216  66.092  1.00  0.00    -0.537 NA 
HETATM    2  H2  UNL     1     -10.823  20.855  66.518  1.00  0.00     0.000 HD 
HETATM    3  C   UNL     1     -10.024  18.954  66.563  1.00  0.00    -0.384 C  
HETATM    4  H1  UNL     1      -9.575  20.527  65.310  1.00  0.00     0.000 HD 
HETATM    5  N   UNL     1     -10.752  18.560  67.551  1.00  0.00    -0.422 N  
HETATM    6  C   UNL     1     -10.596  17.269  67.982  1.00  0.00    -0.394 C  
HETATM    7  H   UNL     1     -11.422  19.188  67.995  1.00  0.00     0.000 HD 
HETATM    8  N   UNL     1     -10.100  16.369  67.081  1.00  0.00    -0.265 N  
HETATM    9  O   UNL     1     -10.881  16.949  69.129  1.00  0.00    -0.312 OA 
HETATM   10  N   UNL     1      -9.102  18.161  65.967  1.00  0.00    -0.521 NA 
HETATM   11  C   UNL     1      -9.189  16.907  66.230  1.00  0.00    -0.267 C  
ENDROOT
BRANCH   8  12
HETATM   12  C1* UNL     1     -10.021  14.953  67.367  1.00  0.00    -0.223 C  
HETATM   13  O4* UNL     1      -9.740  14.290  66.112  1.00  0.00    -0.297 OA 
HETATM   14  C4* UNL     1     -11.004  13.894  65.524  1.00  0.00    -0.302 C  
HETATM   15  C3* UNL     1     -11.959  13.628  66.680  1.00  0.00    -0.415 C  
HETATM   16  H2* UNL     1     -11.574  12.598  69.084  1.00  0.00     0.000 HD 
HETATM   17  C2* UNL     1     -11.244  14.181  67.916  1.00  0.00    -0.279 C  
HETATM   18  O3* UNL     1     -12.225  12.226  66.770  1.00  0.00    -0.558 OA 
HETATM   19  O2* UNL     1     -10.823  13.072  68.747  1.00  0.00    -0.250 OA 
HETATM   20  H3* UNL     1     -12.821  12.061  67.492  1.00  0.00     0.000 HD 
BRANCH  14  21
HETATM   21  C5* UNL     1     -11.545  14.999  64.603  1.00  0.00    -0.386 C  
HETATM   22  O5* UNL     1     -12.501  14.469  63.691  1.00  0.00    -1.072 OA 
HETATM   23  H5* UNL     1     -12.835  15.152  63.122  1.00  0.00     0.000 HD 
ENDBRANCH  14  21
ENDBRANCH   8  12
TORSDOF 2
ENDMDL
MODEL        8
REMARK 921   NORMALIZED FREE ENERGY PREDICTED BY IDOCK:   -6.06 KCAL/MOL
REMARK 922        TOTAL FREE ENERGY PREDICTED BY IDOCK:   -6.75 KCAL/MOL
REMARK 923 INTER-LIGAND FREE ENERGY PREDICTED BY IDOCK:   -6.71 KCAL/MOL
REMARK 924 INTRA-LIGAND FREE ENERGY PREDICTED BY IDOCK:   -0.04 KCAL/MOL
REMARK 927      BINDING AFFINITY PREDICTED BY RF-SCORE:    0.00 PKD
ROOT
HETATM    1  N   UNL     1     -11.954  11.711  62.955  1.00  0.00    -0.902 NA 
HETATM    2  H2  UNL     1     -11.519  10.795  62.839  1.00  0.00     0.000 HD 
HETATM    3  C   UNL     1     -12.071  12.255  64.189  1.00  0.00    -0.436 C  
HETATM    4  H1  UNL     1     -12.301  12.218  62.141  1.00  0.00     0.000 HD 
HETATM    5  N   UNL     1     -11.633  11.614  65.218  1.00  0.00    -0.122 N  
HETATM    6  C   UNL     1     -11.762  12.213  66.443  1.00  0.00    -0.324 C  
HETATM    7  H   UNL     1     -11.204  10.693  65.123  1.00  0.00     0.000 HD 
HETATM    8  N   UNL     1     -11.857  13.576  66.461  1.00  0.00    -0.377 N  
HETATM    9  O   UNL     1     -11.799  11.547  67.469  1.00  0.00    -0.605 OA 
HETATM   10  N   UNL     1     -12.674  13.464  64.277  1.00  0.00    -0.656 NA 
HETATM   11  C   UNL     1     -12.526  14.082  65.393  1.00  0.00    -0.498 C  
ENDROOT
BRANCH   8  12
HETATM   12  C1* UNL     1     -11.856  14.334  67.693  1.00  0.00    -0.385 C  
HETATM   13  O4* UNL     1     -11.405  15.669  67.360  1.00  0.00    -0.281 OA 
HETATM   14  C4* UNL     1      -9.971  15.719  67.564  1.00  0.00    -0.236 C  
HETATM   15  C3* UNL     1      -9.654  14.734  68.682  1.00  0.00    -0.218 C  
HETATM   16  H2* UNL     1     -10.983  14.061  70.866  1.00  0.00     0.000 HD 
HETATM   17  C2* UNL     1     -10.944  13.932  68.877  1.00  0.00    -0.263 C  
HETATM   18  O3* UNL     1      -9.262  15.451  69.856  1.00  0.00    -0.388 OA 
HETATM   19  O2* UNL     1     -11.543  14.308  70.140  1.00  0.00    -0.271 OA 
HETATM   20  H3* UNL     1      -9.065  14.836  70.553  1.00  0.00     0.000 HD 
BRANCH  14  21
HETATM   21  C5* UNL     1      -9.224  15.347  66.273  1.00  0.00    -0.319 C  
HETATM   22  O5* UNL     1      -8.602  14.073  66.403  1.00  0.00    -0.429 OA 
HETATM   23  H5* UNL     1      -8.141  13.844  65.605  1.00  0.00     0.000 HD 
ENDBRANCH  14  21
ENDBRANCH   8  12
TORSDOF 2
ENDMDL
MODEL        9
REMARK 921   NORMALIZED FREE ENERGY PREDICTED BY IDOCK:   -6.06 KCAL/MOL
REMARK 922        TOTAL FREE ENERGY PREDICTED BY IDOCK:   -6.74 KCAL/MOL
REMARK 923 INTER-LIGAND FREE ENERGY PREDICTED BY IDOCK:   -6.70 KCAL/MOL
REMARK 924 INTRA-LIGAND FREE ENERGY PREDICTED BY IDOCK:   -0.04 KCAL/MOL
REMARK 927      BINDING AFFINITY PREDICTED BY RF-SCORE:    0.00 PKD
ROOT
HETATM    1  N   UNL     1     -11.981  11.237  62.728  1.00  0.00    -0.440 NA 
HETATM    2  H2  UNL     1     -12.915  10.877  62.528  1.00  0.00     0.000 HD 
HETATM    3  C   UNL     1     -11.807  12.170  63.693  1.00  0.00    -0.516 C  
HETATM    4  H1  UNL     1     -11.179  10.894  62.201  1.00  0.00     0.000 HD 
HETATM    5  N   UNL     1     -12.821  12.603  64.359  1.00  0.00    -0.752 N  
HETATM    6  C   UNL     1     -12.591  13.536  65.335  1.00  0.00    -0.483 C  
HETATM    7  H   UNL     1     -13.763  12.263  64.166  1.00  0.00     0.000 HD 
HETATM    8  N   UNL     1     -11.336  13.572  65.877  1.00  0.00    -0.305 N  
HETATM    9  O   UNL     1     -13.473  14.307  65.691  1.00  0.00    -0.502 OA 
HETATM   10  N   UNL     1     -10.546  12.620  63.897  1.00  0.00    -0.426 NA 
HETATM   11  C   UNL     1     -10.356  13.279  64.983  1.00  0.00    -0.340 C  
ENDROOT
BRANCH   8  12
HETATM   12  C1* UNL     1     -11.006  14.412  67.007  1.00  0.00    -0.304 C  
HETATM   13  O4* UNL     1      -9.832  13.836  67.625  1.00  0.00    -0.225 OA 
HETATM   14  C4* UNL     1     -10.273  12.942  68.676  1.00  0.00    -0.160 C  
HETATM   15  C3* UNL     1     -11.588  13.502  69.202  1.00  0.00    -0.310 C  
HETATM   16  H2* UNL     1     -12.440  15.982  69.534  1.00  0.00     0.000 HD 
HETATM   17  C2* UNL     1     -11.989  14.579  68.190  1.00  0.00    -0.261 C  
HETATM   18  O3* UNL     1     -11.395  14.020  70.521  1.00  0.00    -0.505 OA 
HETATM   19  O2* UNL     1     -11.836  15.880  68.807  1.00  0.00    -0.393 OA 
HETATM   20  H3* UNL     1     -12.216  14.370  70.848  1.00  0.00     0.000 HD 
BRANCH  14  21
HETATM   21  C5* UNL     1     -10.458  11.515  68.135  1.00  0.00    -0.193 C  
HETATM   22  O5* UNL     1     -11.839  11.177  68.072  1.00  0.00    -0.582 OA 
HETATM   23  H5* UNL     1     -11.953  10.295  67.738  1.00  0.00     0.000 HD 
ENDBRANCH  14  21
ENDBRANCH   8  12
TORSDOF 2
ENDMDL
MODEL       10
REMARK 921   NORMALIZED FREE ENERGY PREDICTED BY IDOCK:   -6.01 KCAL/MOL
REMARK 922        TOTAL FREE ENERGY PREDICTED BY IDOCK:   -6.69 KCAL/MOL
REMARK 923 INTER-LIGAND FREE ENERGY PREDICTED BY IDOCK:   -6.67 KCAL/MOL
REMARK 924 INTRA-LIGAND FREE ENERGY PREDICTED BY IDOCK:   -0.02 KCAL/MOL
REMARK 927      BINDING AFFINITY PREDICTED BY RF-SCORE:    0.00 PKD
ROOT
HETATM    1  N   UNL     1      -7.418  14.412  69.730  1.00  0.00    -0.381 NA 
HETATM    2  H2  UNL     1      -6.435  14.392  69.454  1.00  0.00     0.000 HD 
HETATM    3  C   UNL     1      -8.358  14.845  68.857  1.00  0.00    -0.178 C  
HETATM    4  H1  UNL     1      -7.692  14.106  70.663  1.00  0.00     0.000 HD 
HETATM    5  N   UNL     1      -8.011  15.231  67.678  1.00  0.00    -0.146 N  
HETATM    6  C   UNL     1      -9.001  15.647  66.827  1.00  0.00    -0.261 C  
HETATM    7  H   UNL     1      -7.032  15.228  67.388  1.00  0.00     0.000 HD 
HETATM    8  N   UNL     1     -10.261  15.171  67.060  1.00  0.00    -0.258 N  
HETATM    9  O   UNL     1      -8.759  16.419  65.908  1.00  0.00    -0.425 OA 
HETATM   10  N   UNL     1      -9.640  14.864  69.290  1.00  0.00    -0.169 NA 
HETATM   11  C   UNL     1     -10.536  15.003  68.380  1.00  0.00    -0.238 C  
ENDROOT
BRANCH   8  12
HETATM   12  C1* UNL     1     -11.361  15.421  66.156  1.00  0.00    -0.082 C  
HETATM   13  O4* UNL     1     -12.360  14.410  66.426  1.00  0.00    -0.409 OA 
HETATM   14  C4* UNL     1     -12.132  13.302  65.520  1.00  0.00    -0.435 C  
HETATM   15  C3* UNL     1     -11.528  13.892  64.252  1.00  0.00    -0.318 C  
HETATM   16  H2* UNL     1     -11.955  16.179  62.997  1.00  0.00     0.000 HD 
HETATM   17  C2* UNL     1     -11.168  15.334  64.622  1.00  0.00    -0.356 C  
HETATM   18  O3* UNL     1     -12.478  13.812  63.186  1.00  0.00    -1.089 OA 
HETATM   19  O2* UNL     1     -12.073  16.232  63.938  1.00  0.00    -0.986 OA 
HETATM   20  H3* UNL     1     -12.101  14.180  62.395  1.00  0.00     0.000 HD 
BRANCH  14  21
HETATM   21  C5* UNL     1     -11.185  12.268  66.152  1.00  0.00    -0.328 C  
HETATM   22  O5* UNL     1     -11.835  11.577  67.213  1.00  0.00    -0.609 OA 
HETATM   23  H5* UNL     1     -11.250  10.938  67.604  1.00  0.00     0.000 HD 
ENDBRANCH  14  21
ENDBRANCH   8  12
TORSDOF 2
ENDMDL
MODEL       11
REMARK 921   NORMALIZED FREE ENERGY PREDICTED BY IDOCK:   -6.01 KCAL/MOL
REMARK 922        TOTAL FREE ENERGY PREDICTED BY IDOCK:   -6.68 KCAL/MOL
REMARK 923 INTER-LIGAND FREE ENERGY PREDICTED BY IDOCK:   -6.71 KCAL/MOL
REMARK 924 INTRA-LIGAND FREE ENERGY PREDICTED BY IDOCK:    0.02 KCAL/MOL
REMARK 927      BINDING AFFINITY PREDICTED BY RF-SCORE:    0.00 PKD
ROOT
HETATM    1  N   UNL     1      -9.804  10.547  62.369  1.00  0.00    -0.725 NA 
HETATM    2  H2  UNL     1      -8.904  10.069  62.428  1.00  0.00     0.000 HD 
HETATM    3  C   UNL     1     -10.398  11.013  63.492  1.00  0.00    -0.340 C  
HETATM    4  H1  UNL     1     -10.256  10.675  61.464  1.00  0.00     0.000 HD 
HETATM    5  N   UNL     1      -9.827  10.852  64.636  1.00  0.00    -0.267 N  
HETATM    6  C   UNL     1     -10.461  11.354  65.741  1.00  0.00    -0.262 C  
HETATM    7  H   UNL     1      -8.932  10.368  64.715  1.00  0.00     0.000 HD 
HETATM    8  N   UNL     1     -11.338  12.383  65.540  1.00  0.00    -0.332 N  
HETATM    9  O   UNL     1     -10.254  10.887  66.853  1.00  0.00    -0.211 OA 
HETATM   10  N   UNL     1     -11.599  11.621  63.349  1.00  0.00    -0.339 NA 
HETATM   11  C   UNL     1     -12.009  12.296  64.363  1.00  0.00    -0.394 C  
ENDROOT
BRANCH   8  12
HETATM   12  C1* UNL     1     -11.963  13.090  66.636  1.00  0.00    -0.387 C  
HETATM   13  O4* UNL     1     -12.597  14.261  66.069  1.00  0.00    -0.447 OA 
HETATM   14  C4* UNL     1     -11.660  15.364  66.158  1.00  0.00     0.110 C  
HETATM   15  C3* UNL     1     -10.801  15.107  67.389  1.00  0.00    -0.302 C  
HETATM   16  H2* UNL     1     -11.366  14.042  69.741  1.00  0.00     0.000 HD 
HETATM   17  C2* UNL     1     -11.120  13.667  67.798  1.00  0.00    -0.272 C  
HETATM   18  O3* UNL     1     -11.124  16.060  68.406  1.00  0.00    -0.318 OA 
HETATM   19  O2* UNL     1     -11.884  13.688  69.028  1.00  0.00    -0.310 OA 
HETATM   20  H3* UNL     1     -10.587  15.900  69.173  1.00  0.00     0.000 HD 
BRANCH  14  21
HETATM   21  C5* UNL     1     -10.796  15.447  64.889  1.00  0.00    -0.425 C  
HETATM   22  O5* UNL     1     -11.448  16.222  63.888  1.00  0.00    -1.484 OA 
HETATM   23  H5* UNL     1     -10.913  16.273  63.104  1.00  0.00     0.000 HD 
ENDBRANCH  14  21
ENDBRANCH   8  12
TORSDOF 2
ENDMDL
MODEL       12
REMARK 921   NORMALIZED FREE ENERGY PREDICTED BY IDOCK:   -5.93 KCAL/MOL
REMARK 922        TOTAL FREE ENERGY PREDICTED BY IDOCK:   -6.59 KCAL/MOL
REMARK 923 INTER-LIGAND FREE ENERGY PREDICTED BY IDOCK:   -6.66 KCAL/MOL
REMARK 924 INTRA-LIGAND FREE ENERGY PREDICTED BY IDOCK:    0.06 KCAL/MOL
REMARK 927      BINDING AFFINITY PREDICTED BY RF-SCORE:    0.00 PKD
ROOT
HETATM    1  N   UNL     1     -12.635  11.412  62.778  1.00  0.00    -0.763 NA 
HETATM    2  H2  UNL     1     -12.067  10.822  62.169  1.00  0.00     0.000 HD 
HETATM    3  C   UNL     1     -12.128  11.867  63.947  1.00  0.00    -0.401 C  
HETATM    4  H1  UNL     1     -13.586  11.660  62.506  1.00  0.00     0.000 HD 
HETATM    5  N   UNL     1     -10.926  11.554  64.291  1.00  0.00    -0.347 N  
HETATM    6  C   UNL     1     -10.453  12.051  65.476  1.00  0.00    -0.269 C  
HETATM    7  H   UNL     1     -10.347  10.957  63.700  1.00  0.00     0.000 HD 
HETATM    8  N   UNL     1     -11.036  13.194  65.948  1.00  0.00    -0.277 N  
HETATM    9  O   UNL     1      -9.555  11.483  66.084  1.00  0.00    -0.211 OA 
HETATM   10  N   UNL     1     -12.939  12.630  64.717  1.00  0.00    -0.867 NA 
HETATM   11  C   UNL     1     -12.362  13.276  65.667  1.00  0.00    -0.465 C  
ENDROOT
BRANCH   8  12
HETATM   12  C1* UNL     1     -10.536  13.894  67.110  1.00  0.00    -0.277 C  
HETATM   13  O4* UNL     1     -11.260  15.144  67.187  1.00  0.00    -0.335 OA 
HETATM   14  C4* UNL     1     -10.482  16.154  66.496  1.00  0.00    -0.297 C  
HETATM   15  C3* UNL     1      -9.019  15.757  66.648  1.00  0.00    -0.280 C  
HETATM   16  H2* UNL     1      -7.699  14.621  68.636  1.00  0.00     0.000 HD 
HETATM   17  C2* UNL     1      -9.054  14.330  67.202  1.00  0.00    -0.228 C  
HETATM   18  O3* UNL     1      -8.361  16.678  67.521  1.00  0.00    -0.172 OA 
HETATM   19  O2* UNL     1      -8.608  14.353  68.580  1.00  0.00    -0.168 OA 
HETATM   20  H3* UNL     1      -7.449  16.431  67.616  1.00  0.00     0.000 HD 
BRANCH  14  21
HETATM   21  C5* UNL     1     -10.883  16.229  65.014  1.00  0.00    -0.320 C  
HETATM   22  O5* UNL     1     -11.073  17.582  64.614  1.00  0.00    -0.978 OA 
HETATM   23  H5* UNL     1     -11.321  17.628  63.698  1.00  0.00     0.000 HD 
ENDBRANCH  14  21
ENDBRANCH   8  12
TORSDOF 2
ENDMDL
MODEL       13
REMARK 921   NORMALIZED FREE ENERGY PREDICTED BY IDOCK:   -5.90 KCAL/MOL
REMARK 922        TOTAL FREE ENERGY PREDICTED BY IDOCK:   -6.57 KCAL/MOL
REMARK 923 INTER-LIGAND FREE ENERGY PREDICTED BY IDOCK:   -6.51 KCAL/MOL
REMARK 924 INTRA-LIGAND FREE ENERGY PREDICTED BY IDOCK:   -0.06 KCAL/MOL
REMARK 927      BINDING AFFINITY PREDICTED BY RF-SCORE:    0.00 PKD
ROOT
HETATM    1  N   UNL     1      -9.614   8.169  66.253  1.00  0.00    -0.369 NA 
HETATM    2  H2  UNL     1     -10.169   8.218  65.397  1.00  0.00     0.000 HD 
HETATM    3  C   UNL     1     -10.021   8.827  67.363  1.00  0.00    -0.208 C  
HETATM    4  H1  UNL     1      -8.753   7.623  66.272  1.00  0.00     0.000 HD 
HETATM    5  N   UNL     1     -11.110   9.517  67.339  1.00  0.00    -0.362 N  
HETATM    6  C   UNL     1     -11.486  10.153  68.492  1.00  0.00    -0.029 C  
HETATM    7  H   UNL     1     -11.672   9.585  66.490  1.00  0.00     0.000 HD 
HETATM    8  N   UNL     1     -11.014   9.640  69.667  1.00  0.00    -0.239 N  
HETATM    9  O   UNL     1     -12.205  11.143  68.459  1.00  0.00    -0.600 OA 
HETATM   10  N   UNL     1      -9.232   8.737  68.459  1.00  0.00    -0.141 NA 
HETATM   11  C   UNL     1      -9.762   9.123  69.564  1.00  0.00    -0.173 C  
ENDROOT
BRANCH   8  12
HETATM   12  C1* UNL     1     -11.450  10.132  70.955  1.00  0.00    -0.354 C  
HETATM   13  O4* UNL     1     -10.928   9.218  71.949  1.00  0.00    -0.363 OA 
HETATM   14  C4* UNL     1     -11.944   8.219  72.214  1.00  0.00    -0.386 C  
HETATM   15  C3* UNL     1     -13.290   8.895  71.990  1.00  0.00    -0.421 C  
HETATM   16  H2* UNL     1     -14.123  11.360  72.456  1.00  0.00     0.000 HD 
HETATM   17  C2* UNL     1     -12.954  10.224  71.307  1.00  0.00    -0.420 C  
HETATM   18  O3* UNL     1     -13.955   9.066  73.244  1.00  0.00    -1.205 OA 
HETATM   19  O2* UNL     1     -13.199  11.304  72.240  1.00  0.00    -0.402 OA 
HETATM   20  H3* UNL     1     -14.795   9.488  73.104  1.00  0.00     0.000 HD 
BRANCH  14  21
HETATM   21  C5* UNL     1     -11.772   7.008  71.282  1.00  0.00    -0.317 C  
HETATM   22  O5* UNL     1     -12.883   6.894  70.399  1.00  0.00    -0.520 OA 
HETATM   23  H5* UNL     1     -12.777   6.145  69.824  1.00  0.00     0.000 HD 
ENDBRANCH  14  21
ENDBRANCH   8  12
TORSDOF 2
ENDMDL
MODEL       14
REMARK 921   NORMALIZED FREE ENERGY PREDICTED BY IDOCK:   -5.86 KCAL/MOL
REMARK 922        TOTAL FREE ENERGY PREDICTED BY IDOCK:   -6.53 KCAL/MOL
REMARK 923 INTER-LIGAND FREE ENERGY PREDICTED BY IDOCK:   -6.48 KCAL/MOL
REMARK 924 INTRA-LIGAND FREE ENERGY PREDICTED BY IDOCK:   -0.05 KCAL/MOL
REMARK 927      BINDING AFFINITY PREDICTED BY RF-SCORE:    0.00 PKD
ROOT
HETATM    1  N   UNL     1     -10.295  15.092  70.650  1.00  0.00    -0.471 NA 
HETATM    2  H2  UNL     1      -9.521  15.752  70.735  1.00  0.00     0.000 HD 
HETATM    3  C   UNL     1     -10.867  14.871  69.443  1.00  0.00    -0.264 C  
HETATM    4  H1  UNL     1     -10.639  14.599  71.474  1.00  0.00     0.000 HD 
HETATM    5  N   UNL     1     -10.432  15.494  68.402  1.00  0.00    -0.235 N  
HETATM    6  C   UNL     1     -11.035  15.224  67.202  1.00  0.00    -0.331 C  
HETATM    7  H   UNL     1      -9.666  16.164  68.470  1.00  0.00     0.000 HD 
HETATM    8  N   UNL     1     -11.661  14.015  67.078  1.00  0.00    -0.376 N  
HETATM    9  O   UNL     1     -11.016  16.041  66.290  1.00  0.00    -0.218 OA 
HETATM   10  N   UNL     1     -11.901  13.998  69.401  1.00  0.00    -0.311 NA 
HETATM   11  C   UNL     1     -12.241  13.591  68.231  1.00  0.00    -0.113 C  
ENDROOT
BRANCH   8  12
HETATM   12  C1* UNL     1     -12.211  13.555  65.822  1.00  0.00    -0.461 C  
HETATM   13  O4* UNL     1     -12.253  12.110  65.891  1.00  0.00    -0.604 OA 
HETATM   14  C4* UNL     1     -11.028  11.599  65.310  1.00  0.00    -0.268 C  
HETATM   15  C3* UNL     1     -10.595  12.604  64.250  1.00  0.00    -0.384 C  
HETATM   16  H2* UNL     1     -11.982  14.104  62.574  1.00  0.00     0.000 HD 
HETATM   17  C2* UNL     1     -11.482  13.830  64.484  1.00  0.00    -0.384 C  
HETATM   18  O3* UNL     1     -10.765  12.033  62.950  1.00  0.00    -0.628 OA 
HETATM   19  O2* UNL     1     -12.430  13.936  63.395  1.00  0.00    -0.833 OA 
HETATM   20  H3* UNL     1     -10.495  12.660  62.290  1.00  0.00     0.000 HD 
BRANCH  14  21
HETATM   21  C5* UNL     1      -9.943  11.431  66.387  1.00  0.00    -0.214 C  
HETATM   22  O5* UNL     1      -8.670  11.815  65.880  1.00  0.00    -0.382 OA 
HETATM   23  H5* UNL     1      -8.000  11.711  66.546  1.00  0.00     0.000 HD 
ENDBRANCH  14  21
ENDBRANCH   8  12
TORSDOF 2
ENDMDL
MODEL       15
REMARK 921   NORMALIZED FREE ENERGY PREDICTED BY IDOCK:   -5.75 KCAL/MOL
REMARK 922        TOTAL FREE ENERGY PREDICTED BY IDOCK:   -6.40 KCAL/MOL
REMARK 923 INTER-LIGAND FREE ENERGY PREDICTED BY IDOCK:   -6.44 KCAL/MOL
REMARK 924 INTRA-LIGAND FREE ENERGY PREDICTED BY IDOCK:    0.03 KCAL/MOL
REMARK 927      BINDING AFFINITY PREDICTED BY RF-SCORE:    0.00 PKD
ROOT
HETATM    1  N   UNL     1     -11.985  11.129  67.839  1.00  0.00    -0.680 NA 
HETATM    2  H2  UNL     1     -11.436  10.317  67.554  1.00  0.00     0.000 HD 
HETATM    3  C   UNL     1     -11.373  12.313  68.074  1.00  0.00    -0.293 C  
HETATM    4  H1  UNL     1     -12.996  11.049  67.946  1.00  0.00     0.000 HD 
HETATM    5  N   UNL     1     -10.095  12.413  67.938  1.00  0.00    -0.203 N  
HETATM    6  C   UNL     1      -9.524  13.636  68.174  1.00  0.00    -0.217 C  
HETATM    7  H   UNL     1      -9.529  11.610  67.664  1.00  0.00     0.000 HD 
HETATM    8  N   UNL     1     -10.327  14.734  68.036  1.00  0.00    -0.235 N  
HETATM    9  O   UNL     1      -8.349  13.730  68.504  1.00  0.00    -0.155 OA 
HETATM   10  N   UNL     1     -12.155  13.346  68.467  1.00  0.00    -0.318 NA 
HETATM   11  C   UNL     1     -11.613  14.509  68.412  1.00  0.00    -0.326 C  
ENDROOT
BRANCH   8  12
HETATM   12  C1* UNL     1      -9.813  16.082  68.120  1.00  0.00    -0.222 C  
HETATM   13  O4* UNL     1     -10.738  16.927  67.396  1.00  0.00    -0.316 OA 
HETATM   14  C4* UNL     1     -10.263  17.046  66.032  1.00  0.00    -0.325 C  
HETATM   15  C3* UNL     1      -8.745  16.931  66.088  1.00  0.00    -0.245 C  
HETATM   16  H2* UNL     1      -6.979  17.761  67.871  1.00  0.00     0.000 HD 
HETATM   17  C2* UNL     1      -8.439  16.451  67.510  1.00  0.00    -0.169 C  
HETATM   18  O3* UNL     1      -8.157  18.200  65.790  1.00  0.00    -0.520 OA 
HETATM   19  O2* UNL     1      -7.823  17.535  68.246  1.00  0.00    -0.234 OA 
HETATM   20  H3* UNL     1      -7.210  18.128  65.824  1.00  0.00     0.000 HD 
BRANCH  14  21
HETATM   21  C5* UNL     1     -10.868  15.944  65.147  1.00  0.00    -0.421 C  
HETATM   22  O5* UNL     1     -11.297  16.482  63.901  1.00  0.00    -1.557 OA 
HETATM   23  H5* UNL     1     -11.671  15.801  63.354  1.00  0.00     0.000 HD 
ENDBRANCH  14  21
ENDBRANCH   8  12
TORSDOF 2
ENDMDL
MODEL       16
REMARK 921   NORMALIZED FREE ENERGY PREDICTED BY IDOCK:   -5.67 KCAL/MOL
REMARK 922        TOTAL FREE ENERGY PREDICTED BY IDOCK:   -6.30 KCAL/MOL
REMARK 923 INTER-LIGAND FREE ENERGY PREDICTED BY IDOCK:   -6.35 KCAL/MOL
REMARK 924 INTRA-LIGAND FREE ENERGY PREDICTED BY IDOCK:    0.05 KCAL/MOL
REMARK 927      BINDING AFFINITY PREDICTED BY RF-SCORE:    0.00 PKD
ROOT
HETATM    1  N   UNL     1      -7.871  11.039  69.599  1.00  0.00    -0.364 NA 
HETATM    2  H2  UNL     1      -8.204  11.184  70.553  1.00  0.00     0.000 HD 
HETATM    3  C   UNL     1      -8.734  11.117  68.560  1.00  0.00    -0.161 C  
HETATM    4  H1  UNL     1      -6.886  10.837  69.428  1.00  0.00     0.000 HD 
HETATM    5  N   UNL     1      -9.979  11.373  68.776  1.00  0.00    -0.289 N  
HETATM    6  C   UNL     1     -10.810  11.456  67.691  1.00  0.00    -0.237 C  
HETATM    7  H   UNL     1     -10.332  11.511  69.724  1.00  0.00     0.000 HD 
HETATM    8  N   UNL     1     -10.234  11.764  66.490  1.00  0.00    -0.204 N  
HETATM    9  O   UNL     1     -12.011  11.249  67.800  1.00  0.00    -0.637 OA 
HETATM   10  N   UNL     1      -8.232  10.897  67.322  1.00  0.00    -0.121 NA 
HETATM   11  C   UNL     1      -8.987  11.248  66.343  1.00  0.00    -0.188 C  
ENDROOT
BRANCH   8  12
HETATM   12  C1* UNL     1     -11.017  12.018  65.301  1.00  0.00    -0.308 C  
HETATM   13  O4* UNL     1     -10.224  12.886  64.457  1.00  0.00    -0.345 OA 
HETATM   14  C4* UNL     1     -10.596  14.255  64.749  1.00  0.00    -0.412 C  
HETATM   15  C3* UNL     1     -12.059  14.229  65.176  1.00  0.00    -0.410 C  
HETATM   16  H2* UNL     1     -14.101  12.754  64.374  1.00  0.00     0.000 HD 
HETATM   17  C2* UNL     1     -12.381  12.746  65.383  1.00  0.00    -0.470 C  
HETATM   18  O3* UNL     1     -12.865  14.837  64.163  1.00  0.00    -0.678 OA 
HETATM   19  O2* UNL     1     -13.264  12.307  64.324  1.00  0.00    -0.785 OA 
HETATM   20  H3* UNL     1     -13.776  14.820  64.429  1.00  0.00     0.000 HD 
BRANCH  14  21
HETATM   21  C5* UNL     1      -9.708  14.836  65.861  1.00  0.00    -0.323 C  
HETATM   22  O5* UNL     1      -9.382  16.194  65.585  1.00  0.00    -0.420 OA 
HETATM   23  H5* UNL     1      -8.832  16.552  66.273  1.00  0.00     0.000 HD 
ENDBRANCH  14  21
ENDBRANCH   8  12
TORSDOF 2
ENDMDL
MODEL       17
REMARK 921   NORMALIZED FREE ENERGY PREDICTED BY IDOCK:   -5.56 KCAL/MOL
REMARK 922        TOTAL FREE ENERGY PREDICTED BY IDOCK:   -6.18 KCAL/MOL
REMARK 923 INTER-LIGAND FREE ENERGY PREDICTED BY IDOCK:   -6.20 KCAL/MOL
REMARK 924 INTRA-LIGAND FREE ENERGY PREDICTED BY IDOCK:    0.02 KCAL/MOL
REMARK 927      BINDING AFFINITY PREDICTED BY RF-SCORE:    0.00 PKD
ROOT
HETATM    1  N   UNL     1     -13.132  11.667  62.784  1.00  0.00    -0.592 NA 
HETATM    2  H2  UNL     1     -13.905  12.194  62.374  1.00  0.00     0.000 HD 
HETATM    3  C   UNL     1     -12.266  12.278  63.626  1.00  0.00    -0.567 C  
HETATM    4  H1  UNL     1     -13.012  10.680  62.560  1.00  0.00     0.000 HD 
HETATM    5  N   UNL     1     -12.419  13.526  63.909  1.00  0.00    -0.705 N  
HETATM    6  C   UNL     1     -11.525  14.095  64.777  1.00  0.00    -0.383 C  
HETATM    7  H   UNL     1     -13.179  14.071  63.502  1.00  0.00     0.000 HD 
HETATM    8  N   UNL     1     -10.882  13.258  65.646  1.00  0.00    -0.276 N  
HETATM    9  O   UNL     1     -11.309  15.300  64.759  1.00  0.00    -0.409 OA 
HETATM   10  N   UNL     1     -11.253  11.529  64.120  1.00  0.00    -0.346 NA 
HETATM   11  C   UNL     1     -10.620  12.034  65.117  1.00  0.00    -0.288 C  
ENDROOT
BRANCH   8  12
HETATM   12  C1* UNL     1     -10.024  13.749  66.701  1.00  0.00    -0.279 C  
HETATM   13  O4* UNL     1      -9.788  12.638  67.597  1.00  0.00    -0.202 OA 
HETATM   14  C4* UNL     1     -10.780  12.698  68.653  1.00  0.00    -0.242 C  
HETATM   15  C3* UNL     1     -11.124  14.169  68.845  1.00  0.00    -0.263 C  
HETATM   16  H2* UNL     1      -9.652  16.358  68.691  1.00  0.00     0.000 HD 
HETATM   17  C2* UNL     1     -10.491  14.881  67.647  1.00  0.00    -0.249 C  
HETATM   18  O3* UNL     1     -10.607  14.622  70.100  1.00  0.00    -0.461 OA 
HETATM   19  O2* UNL     1      -9.365  15.663  68.110  1.00  0.00    -0.191 OA 
HETATM   20  H3* UNL     1     -10.823  15.539  70.219  1.00  0.00     0.000 HD 
BRANCH  14  21
HETATM   21  C5* UNL     1     -12.028  11.883  68.273  1.00  0.00    -0.167 C  
HETATM   22  O5* UNL     1     -11.907  10.540  68.729  1.00  0.00    -0.579 OA 
HETATM   23  H5* UNL     1     -12.679  10.037  68.495  1.00  0.00     0.000 HD 
ENDBRANCH  14  21
ENDBRANCH   8  12
TORSDOF 2
ENDMDL
MODEL       18
REMARK 921   NORMALIZED FREE ENERGY PREDICTED BY IDOCK:   -5.54 KCAL/MOL
REMARK 922        TOTAL FREE ENERGY PREDICTED BY IDOCK:   -6.16 KCAL/MOL
REMARK 923 INTER-LIGAND FREE ENERGY PREDICTED BY IDOCK:   -6.76 KCAL/MOL
REMARK 924 INTRA-LIGAND FREE ENERGY PREDICTED BY IDOCK:    0.60 KCAL/MOL
REMARK 927      BINDING AFFINITY PREDICTED BY RF-SCORE:    0.00 PKD
ROOT
HETATM    1  N   UNL     1      -7.188  13.002  69.142  1.00  0.00    -0.295 NA 
HETATM    2  H2  UNL     1      -7.152  13.114  70.156  1.00  0.00     0.000 HD 
HETATM    3  C   UNL     1      -8.280  13.408  68.454  1.00  0.00    -0.139 C  
HETATM    4  H1  UNL     1      -6.401  12.584  68.647  1.00  0.00     0.000 HD 
HETATM    5  N   UNL     1      -9.274  13.937  69.080  1.00  0.00    -0.389 N  
HETATM    6  C   UNL     1     -10.350  14.346  68.336  1.00  0.00    -0.244 C  
HETATM    7  H   UNL     1      -9.260  14.048  70.094  1.00  0.00     0.000 HD 
HETATM    8  N   UNL     1     -10.121  14.638  67.021  1.00  0.00    -0.247 N  
HETATM    9  O   UNL     1     -11.464  14.431  68.835  1.00  0.00    -0.256 OA 
HETATM   10  N   UNL     1      -8.272  13.215  67.114  1.00  0.00    -0.157 NA 
HETATM   11  C   UNL     1      -9.172  13.849  66.452  1.00  0.00    -0.152 C  
ENDROOT
BRANCH   8  12
HETATM   12  C1* UNL     1     -11.139  15.211  66.169  1.00  0.00    -0.311 C  
HETATM   13  O4* UNL     1     -12.336  14.420  66.360  1.00  0.00    -0.409 OA 
HETATM   14  C4* UNL     1     -12.355  13.386  65.345  1.00  0.00    -0.477 C  
HETATM   15  C3* UNL     1     -11.635  13.955  64.128  1.00  0.00    -0.298 C  
HETATM   16  H2* UNL     1     -11.551  16.394  63.113  1.00  0.00     0.000 HD 
HETATM   17  C2* UNL     1     -10.969  15.239  64.631  1.00  0.00    -0.304 C  
HETATM   18  O3* UNL     1     -12.580  14.190  63.080  1.00  0.00    -1.058 OA 
HETATM   19  O2* UNL     1     -11.656  16.377  64.057  1.00  0.00    -1.071 OA 
HETATM   20  H3* UNL     1     -12.131  14.545  62.322  1.00  0.00     0.000 HD 
BRANCH  14  21
HETATM   21  C5* UNL     1     -11.658  12.112  65.852  1.00  0.00    -0.364 C  
HETATM   22  O5* UNL     1     -12.066  11.814  67.183  1.00  0.00    -0.592 OA 
HETATM   23  H5* UNL     1     -11.635  11.028  67.497  1.00  0.00     0.000 HD 
ENDBRANCH  14  21
ENDBRANCH   8  12
TORSDOF 2
ENDMDL
MODEL       19
REMARK 921   NORMALIZED FREE ENERGY PREDICTED BY IDOCK:   -5.53 KCAL/MOL
REMARK 922        TOTAL FREE ENERGY PREDICTED BY IDOCK:   -6.15 KCAL/MOL
REMARK 923 INTER-LIGAND FREE ENERGY PREDICTED BY IDOCK:   -6.68 KCAL/MOL
REMARK 924 INTRA-LIGAND FREE ENERGY PREDICTED BY IDOCK:    0.54 KCAL/MOL
REMARK 927      BINDING AFFINITY PREDICTED BY RF-SCORE:    0.00 PKD
ROOT
HETATM    1  N   UNL     1     -10.972  10.923  69.956  1.00  0.00    -0.455 NA 
HETATM    2  H2  UNL     1     -10.408  10.099  70.171  1.00  0.00     0.000 HD 
HETATM    3  C   UNL     1     -10.882  11.506  68.738  1.00  0.00    -0.216 C  
HETATM    4  H1  UNL     1     -11.602  11.308  70.659  1.00  0.00     0.000 HD 
HETATM    5  N   UNL     1     -10.086  11.019  67.850  1.00  0.00    -0.174 N  
HETATM    6  C   UNL     1     -10.042  11.636  66.627  1.00  0.00    -0.208 C  
HETATM    7  H   UNL     1      -9.508  10.202  68.050  1.00  0.00     0.000 HD 
HETATM    8  N   UNL     1     -11.143  12.355  66.254  1.00  0.00    -0.289 N  
HETATM    9  O   UNL     1      -9.052  11.549  65.913  1.00  0.00    -0.209 OA 
HETATM   10  N   UNL     1     -11.642  12.606  68.522  1.00  0.00    -0.301 NA 
HETATM   11  C   UNL     1     -11.760  12.972  67.296  1.00  0.00    -0.375 C  
ENDROOT
BRANCH   8  12
HETATM   12  C1* UNL     1     -11.277  12.934  64.936  1.00  0.00    -0.300 C  
HETATM   13  O4* UNL     1      -9.996  13.519  64.606  1.00  0.00    -0.271 OA 
HETATM   14  C4* UNL     1     -10.026  14.914  65.000  1.00  0.00    -0.170 C  
HETATM   15  C3* UNL     1     -11.473  15.372  64.871  1.00  0.00    -0.311 C  
HETATM   16  H2* UNL     1     -13.370  14.750  63.139  1.00  0.00     0.000 HD 
HETATM   17  C2* UNL     1     -12.277  14.085  64.669  1.00  0.00    -0.435 C  
HETATM   18  O3* UNL     1     -11.591  16.281  63.773  1.00  0.00    -1.539 OA 
HETATM   19  O2* UNL     1     -12.757  14.043  63.304  1.00  0.00    -0.750 OA 
HETATM   20  H3* UNL     1     -12.493  16.567  63.693  1.00  0.00     0.000 HD 
BRANCH  14  21
HETATM   21  C5* UNL     1      -9.520  15.082  66.442  1.00  0.00    -0.297 C  
HETATM   22  O5* UNL     1      -8.232  14.496  66.593  1.00  0.00    -0.383 OA 
HETATM   23  H5* UNL     1      -7.919  14.600  67.485  1.00  0.00     0.000 HD 
ENDBRANCH  14  21
ENDBRANCH   8  12
TORSDOF 2
ENDMDL
MODEL       20
REMARK 921   NORMALIZED FREE ENERGY PREDICTED BY IDOCK:   -5.52 KCAL/MOL
REMARK 922        TOTAL FREE ENERGY PREDICTED BY IDOCK:   -6.14 KCAL/MOL
REMARK 923 INTER-LIGAND FREE ENERGY PREDICTED BY IDOCK:   -6.68 KCAL/MOL
REMARK 924 INTRA-LIGAND FREE ENERGY PREDICTED BY IDOCK:    0.54 KCAL/MOL
REMARK 927      BINDING AFFINITY PREDICTED BY RF-SCORE:    0.00 PKD
ROOT
HETATM    1  N   UNL     1     -10.353  17.456  68.131  1.00  0.00    -0.347 NA 
HETATM    2  H2  UNL     1     -10.617  17.653  69.097  1.00  0.00     0.000 HD 
HETATM    3  C   UNL     1     -10.731  16.294  67.549  1.00  0.00    -0.300 C  
HETATM    4  H1  UNL     1      -9.805  18.135  67.603  1.00  0.00     0.000 HD 
HETATM    5  N   UNL     1     -11.424  15.437  68.216  1.00  0.00    -0.345 N  
HETATM    6  C   UNL     1     -11.793  14.282  67.577  1.00  0.00    -0.395 C  
HETATM    7  H   UNL     1     -11.688  15.612  69.185  1.00  0.00     0.000 HD 
HETATM    8  N   UNL     1     -11.861  14.321  66.213  1.00  0.00    -0.395 N  
HETATM    9  O   UNL     1     -12.039  13.263  68.210  1.00  0.00    -0.333 OA 
HETATM   10  N   UNL     1     -10.333  16.086  66.271  1.00  0.00    -0.308 NA 
HETATM   11  C   UNL     1     -10.925  15.129  65.651  1.00  0.00    -0.355 C  
ENDROOT
BRANCH   8  12
HETATM   12  C1* UNL     1     -12.372  13.216  65.433  1.00  0.00    -0.481 C  
HETATM   13  O4* UNL     1     -11.816  12.009  66.006  1.00  0.00    -0.522 OA 
HETATM   14  C4* UNL     1     -10.599  11.691  65.286  1.00  0.00    -0.281 C  
HETATM   15  C3* UNL     1     -10.785  12.209  63.866  1.00  0.00    -0.407 C  
HETATM   16  H2* UNL     1     -12.909  12.327  62.298  1.00  0.00     0.000 HD 
HETATM   17  C2* UNL     1     -12.042  13.082  63.927  1.00  0.00    -0.471 C  
HETATM   18  O3* UNL     1     -10.917  11.105  62.967  1.00  0.00    -0.820 OA 
HETATM   19  O2* UNL     1     -13.112  12.410  63.222  1.00  0.00    -0.630 OA 
HETATM   20  H3* UNL     1     -11.033  11.428  62.081  1.00  0.00     0.000 HD 
BRANCH  14  21
HETATM   21  C5* UNL     1      -9.382  12.348  65.958  1.00  0.00    -0.114 C  
HETATM   22  O5* UNL     1      -9.355  12.048  67.350  1.00  0.00    -0.173 OA 
HETATM   23  H5* UNL     1      -8.603  12.454  67.765  1.00  0.00     0.000 HD 
ENDBRANCH  14  21
ENDBRANCH   8  12
TORSDOF 2
ENDMDL
MODEL       21
REMARK 921   NORMALIZED FREE ENERGY PREDICTED BY IDOCK:   -5.50 KCAL/MOL
REMARK 922        TOTAL FREE ENERGY PREDICTED BY IDOCK:   -6.12 KCAL/MOL
REMARK 923 INTER-LIGAND FREE ENERGY PREDICTED BY IDOCK:   -6.03 KCAL/MOL
REMARK 924 INTRA-LIGAND FREE ENERGY PREDICTED BY IDOCK:   -0.09 KCAL/MOL
REMARK 927      BINDING AFFINITY PREDICTED BY RF-SCORE:    0.00 PKD
ROOT
HETATM    1  N   UNL     1     -12.089  15.868  63.734  1.00  0.00    -1.230 NA 
HETATM    2  H2  UNL     1     -11.721  15.993  62.790  1.00  0.00     0.000 HD 
HETATM    3  C   UNL     1     -11.991  14.664  64.346  1.00  0.00    -0.437 C  
HETATM    4  H1  UNL     1     -12.532  16.649  64.217  1.00  0.00     0.000 HD 
HETATM    5  N   UNL     1     -11.432  13.677  63.735  1.00  0.00    -0.603 N  
HETATM    6  C   UNL     1     -11.344  12.484  64.402  1.00  0.00    -0.343 C  
HETATM    7  H   UNL     1     -11.067  13.780  62.788  1.00  0.00     0.000 HD 
HETATM    8  N   UNL     1     -11.371  12.532  65.768  1.00  0.00    -0.320 N  
HETATM    9  O   UNL     1     -11.256  11.426  63.792  1.00  0.00    -0.399 OA 
HETATM   10  N   UNL     1     -12.515  14.559  65.590  1.00  0.00    -0.288 NA 
HETATM   11  C   UNL     1     -12.170  13.516  66.255  1.00  0.00    -0.416 C  
ENDROOT
BRANCH   8  12
HETATM   12  C1* UNL     1     -11.146  11.361  66.587  1.00  0.00    -0.271 C  
HETATM   13  O4* UNL     1     -10.933  11.833  67.938  1.00  0.00    -0.198 OA 
HETATM   14  C4* UNL     1      -9.507  11.996  68.136  1.00  0.00    -0.200 C  
HETATM   15  C3* UNL     1      -8.822  10.967  67.246  1.00  0.00    -0.134 C  
HETATM   16  H2* UNL     1      -9.493   8.502  66.566  1.00  0.00     0.000 HD 
HETATM   17  C2* UNL     1      -9.933  10.433  66.336  1.00  0.00    -0.221 C  
HETATM   18  O3* UNL     1      -8.231   9.949  68.058  1.00  0.00    -0.111 OA 
HETATM   19  O2* UNL     1     -10.238   9.071  66.720  1.00  0.00    -0.256 OA 
HETATM   20  H3* UNL     1      -7.804   9.307  67.502  1.00  0.00     0.000 HD 
BRANCH  14  21
HETATM   21  C5* UNL     1      -9.066  13.423  67.768  1.00  0.00    -0.202 C  
HETATM   22  O5* UNL     1      -8.060  13.393  66.762  1.00  0.00    -0.403 OA 
HETATM   23  H5* UNL     1      -7.788  14.275  66.535  1.00  0.00     0.000 HD 
ENDBRANCH  14  21
ENDBRANCH   8  12
TORSDOF 2
ENDMDL
MODEL       22
REMARK 921   NORMALIZED FREE ENERGY PREDICTED BY IDOCK:   -5.47 KCAL/MOL
REMARK 922        TOTAL FREE ENERGY PREDICTED BY IDOCK:   -6.08 KCAL/MOL
REMARK 923 INTER-LIGAND FREE ENERGY PREDICTED BY IDOCK:   -6.08 KCAL/MOL
REMARK 924 INTRA-LIGAND FREE ENERGY PREDICTED BY IDOCK:   -0.00 KCAL/MOL
REMARK 927      BINDING AFFINITY PREDICTED BY RF-SCORE:    0.00 PKD
ROOT
HETATM    1  N   UNL     1      -7.868  10.966  69.376  1.00  0.00    -0.336 NA 
HETATM    2  H2  UNL     1      -7.091  11.589  69.603  1.00  0.00     0.000 HD 
HETATM    3  C   UNL     1      -8.980  11.458  68.782  1.00  0.00    -0.080 C  
HETATM    4  H1  UNL     1      -7.806   9.973  69.597  1.00  0.00     0.000 HD 
HETATM    5  N   UNL     1      -9.056  12.714  68.502  1.00  0.00    -0.370 N  
HETATM    6  C   UNL     1     -10.196  13.160  67.887  1.00  0.00    -0.233 C  
HETATM    7  H   UNL     1      -8.294  13.353  68.730  1.00  0.00     0.000 HD 
HETATM    8  N   UNL     1     -10.919  12.244  67.176  1.00  0.00    -0.250 N  
HETATM    9  O   UNL     1     -10.549  14.328  67.987  1.00  0.00    -0.233 OA 
HETATM   10  N   UNL     1      -9.981  10.584  68.524  1.00  0.00    -0.163 NA 
HETATM   11  C   UNL     1     -10.893  10.999  67.720  1.00  0.00    -0.249 C  
ENDROOT
BRANCH   8  12
HETATM   12  C1* UNL     1     -12.060  12.617  66.370  1.00  0.00    -0.260 C  
HETATM   13  O4* UNL     1     -12.207  11.593  65.357  1.00  0.00    -0.129 OA 
HETATM   14  C4* UNL     1     -11.486  12.026  64.176  1.00  0.00    -0.383 C  
HETATM   15  C3* UNL     1     -11.535  13.548  64.169  1.00  0.00    -0.360 C  
HETATM   16  H2* UNL     1     -13.412  15.254  64.913  1.00  0.00     0.000 HD 
HETATM   17  C2* UNL     1     -12.064  13.932  65.554  1.00  0.00    -0.407 C  
HETATM   18  O3* UNL     1     -12.382  13.995  63.106  1.00  0.00    -1.133 OA 
HETATM   19  O2* UNL     1     -13.410  14.447  65.414  1.00  0.00    -0.568 OA 
HETATM   20  H3* UNL     1     -12.412  14.944  63.101  1.00  0.00     0.000 HD 
BRANCH  14  21
HETATM   21  C5* UNL     1     -10.034  11.520  64.210  1.00  0.00    -0.271 C  
HETATM   22  O5* UNL     1      -9.246  12.195  63.234  1.00  0.00    -0.653 OA 
HETATM   23  H5* UNL     1      -8.349  11.882  63.255  1.00  0.00     0.000 HD 
ENDBRANCH  14  21
ENDBRANCH   8  12
TORSDOF 2
ENDMDL
MODEL       23
REMARK 921   NORMALIZED FREE ENERGY PREDICTED BY IDOCK:   -5.46 KCAL/MOL
REMARK 922        TOTAL FREE ENERGY PREDICTED BY IDOCK:   -6.08 KCAL/MOL
REMARK 923 INTER-LIGAND FREE ENERGY PREDICTED BY IDOCK:   -6.02 KCAL/MOL
REMARK 924 INTRA-LIGAND FREE ENERGY PREDICTED BY IDOCK:   -0.05 KCAL/MOL
REMARK 927      BINDING AFFINITY PREDICTED BY RF-SCORE:    0.00 PKD
ROOT
HETATM    1  N   UNL     1     -13.260  15.188  70.257  1.00  0.00    -0.660 NA 
HETATM    2  H2  UNL     1     -14.106  14.942  69.741  1.00  0.00     0.000 HD 
HETATM    3  C   UNL     1     -12.131  15.520  69.588  1.00  0.00    -0.328 C  
HETATM    4  H1  UNL     1     -13.265  15.183  71.276  1.00  0.00     0.000 HD 
HETATM    5  N   UNL     1     -12.125  15.525  68.300  1.00  0.00    -0.438 N  
HETATM    6  C   UNL     1     -10.962  15.882  67.671  1.00  0.00    -0.298 C  
HETATM    7  H   UNL     1     -12.958  15.273  67.767  1.00  0.00     0.000 HD 
HETATM    8  N   UNL     1     -10.089  16.666  68.374  1.00  0.00    -0.255 N  
HETATM    9  O   UNL     1     -10.719  15.502  66.532  1.00  0.00    -0.306 OA 
HETATM   10  N   UNL     1     -11.039  15.817  70.331  1.00  0.00    -0.338 NA 
HETATM   11  C   UNL     1     -10.077  16.394  69.704  1.00  0.00    -0.149 C  
ENDROOT
BRANCH   8  12
HETATM   12  C1* UNL     1      -8.897  17.224  67.775  1.00  0.00    -0.234 C  
HETATM   13  O4* UNL     1      -8.509  18.352  68.594  1.00  0.00    -0.326 OA 
HETATM   14  C4* UNL     1      -9.107  19.543  68.027  1.00  0.00    -0.326 C  
HETATM   15  C3* UNL     1      -9.219  19.304  66.527  1.00  0.00    -0.350 C  
HETATM   16  H2* UNL     1      -7.651  18.028  64.825  1.00  0.00     0.000 HD 
HETATM   17  C2* UNL     1      -8.924  17.812  66.344  1.00  0.00    -0.229 C  
HETATM   18  O3* UNL     1      -8.291  20.144  65.837  1.00  0.00    -0.535 OA 
HETATM   19  O2* UNL     1      -7.634  17.667  65.703  1.00  0.00    -0.521 OA 
HETATM   20  H3* UNL     1      -8.361  19.995  64.901  1.00  0.00     0.000 HD 
BRANCH  14  21
HETATM   21  C5* UNL     1     -10.489  19.807  68.649  1.00  0.00    -0.157 C  
HETATM   22  O5* UNL     1     -10.397  19.866  70.068  1.00  0.00    -0.572 OA 
HETATM   23  H5* UNL     1     -11.250  20.029  70.452  1.00  0.00     0.000 HD 
ENDBRANCH  14  21
ENDBRANCH   8  12
TORSDOF 2
ENDMDL
MODEL       24
REMARK 921   NORMALIZED FREE ENERGY PREDICTED BY IDOCK:   -5.44 KCAL/MOL
REMARK 922        TOTAL FREE ENERGY PREDICTED BY IDOCK:   -6.05 KCAL/MOL
REMARK 923 INTER-LIGAND FREE ENERGY PREDICTED BY IDOCK:   -6.80 KCAL/MOL
REMARK 924 INTRA-LIGAND FREE ENERGY PREDICTED BY IDOCK:    0.74 KCAL/MOL
REMARK 927      BINDING AFFINITY PREDICTED BY RF-SCORE:    0.00 PKD
ROOT
HETATM    1  N   UNL     1     -12.534  13.886  62.894  1.00  0.00    -0.877 NA 
HETATM    2  H2  UNL     1     -11.982  14.247  62.115  1.00  0.00     0.000 HD 
HETATM    3  C   UNL     1     -12.071  13.996  64.161  1.00  0.00    -0.422 C  
HETATM    4  H1  UNL     1     -13.436  13.444  62.719  1.00  0.00     0.000 HD 
HETATM    5  N   UNL     1     -10.931  14.555  64.383  1.00  0.00    -0.621 N  
HETATM    6  C   UNL     1     -10.513  14.655  65.683  1.00  0.00    -0.342 C  
HETATM    7  H   UNL     1     -10.361  14.912  63.616  1.00  0.00     0.000 HD 
HETATM    8  N   UNL     1     -11.479  14.638  66.650  1.00  0.00    -0.358 N  
HETATM    9  O   UNL     1      -9.323  14.743  65.958  1.00  0.00    -0.284 OA 
HETATM   10  N   UNL     1     -12.843  13.481  65.148  1.00  0.00    -0.728 NA 
HETATM   11  C   UNL     1     -12.533  13.837  66.343  1.00  0.00    -0.355 C  
ENDROOT
BRANCH   8  12
HETATM   12  C1* UNL     1     -11.181  14.875  68.045  1.00  0.00    -0.308 C  
HETATM   13  O4* UNL     1     -10.077  14.005  68.389  1.00  0.00    -0.226 OA 
HETATM   14  C4* UNL     1     -10.627  12.776  68.925  1.00  0.00    -0.122 C  
HETATM   15  C3* UNL     1     -11.944  13.143  69.596  1.00  0.00    -0.306 C  
HETATM   16  H2* UNL     1     -12.693  15.284  70.952  1.00  0.00     0.000 HD 
HETATM   17  C2* UNL     1     -12.228  14.579  69.146  1.00  0.00    -0.199 C  
HETATM   18  O3* UNL     1     -11.810  13.020  71.014  1.00  0.00    -0.371 OA 
HETATM   19  O2* UNL     1     -12.051  15.466  70.276  1.00  0.00    -0.320 OA 
HETATM   20  H3* UNL     1     -12.631  13.249  71.433  1.00  0.00     0.000 HD 
BRANCH  14  21
HETATM   21  C5* UNL     1     -10.846  11.744  67.805  1.00  0.00    -0.213 C  
HETATM   22  O5* UNL     1     -11.932  10.881  68.125  1.00  0.00    -0.744 OA 
HETATM   23  H5* UNL     1     -12.067  10.244  67.434  1.00  0.00     0.000 HD 
ENDBRANCH  14  21
ENDBRANCH   8  12
TORSDOF 2
ENDMDL
MODEL       25
REMARK 921   NORMALIZED FREE ENERGY PREDICTED BY IDOCK:   -5.36 KCAL/MOL
REMARK 922        TOTAL FREE ENERGY PREDICTED BY IDOCK:   -5.97 KCAL/MOL
REMARK 923 INTER-LIGAND FREE ENERGY PREDICTED BY IDOCK:   -6.57 KCAL/MOL
REMARK 924 INTRA-LIGAND FREE ENERGY PREDICTED BY IDOCK:    0.61 KCAL/MOL
REMARK 927      BINDING AFFINITY PREDICTED BY RF-SCORE:    0.00 PKD
ROOT
HETATM    1  N   UNL     1     -13.033  11.832  62.967  1.00  0.00    -0.850 NA 
HETATM    2  H2  UNL     1     -12.744  10.895  62.686  1.00  0.00     0.000 HD 
HETATM    3  C   UNL     1     -12.257  12.558  63.807  1.00  0.00    -0.525 C  
HETATM    4  H1  UNL     1     -13.906  12.224  62.616  1.00  0.00     0.000 HD 
HETATM    5  N   UNL     1     -11.154  12.063  64.251  1.00  0.00    -0.328 N  
HETATM    6  C   UNL     1     -10.397  12.842  65.086  1.00  0.00    -0.295 C  
HETATM    7  H   UNL     1     -10.853  11.124  63.988  1.00  0.00     0.000 HD 
HETATM    8  N   UNL     1     -10.567  14.195  64.997  1.00  0.00    -0.395 N  
HETATM    9  O   UNL     1      -9.615  12.337  65.882  1.00  0.00    -0.240 OA 
HETATM   10  N   UNL     1     -12.706  13.786  64.156  1.00  0.00    -0.644 NA 
HETATM   11  C   UNL     1     -11.844  14.559  64.713  1.00  0.00    -0.441 C  
ENDROOT
BRANCH   8  12
HETATM   12  C1* UNL     1      -9.732  15.127  65.721  1.00  0.00    -0.344 C  
HETATM   13  O4* UNL     1      -9.577  14.597  67.058  1.00  0.00    -0.225 OA 
HETATM   14  C4* UNL     1     -10.606  15.183  67.893  1.00  0.00    -0.257 C  
HETATM   15  C3* UNL     1     -10.898  16.565  67.321  1.00  0.00    -0.173 C  
HETATM   16  H2* UNL     1      -9.332  18.371  66.194  1.00  0.00     0.000 HD 
HETATM   17  C2* UNL     1     -10.189  16.586  65.963  1.00  0.00    -0.356 C  
HETATM   18  O3* UNL     1     -10.413  17.567  68.218  1.00  0.00    -0.361 OA 
HETATM   19  O2* UNL     1      -9.051  17.476  66.045  1.00  0.00    -0.489 OA 
HETATM   20  H3* UNL     1     -10.595  18.429  67.861  1.00  0.00     0.000 HD 
BRANCH  14  21
HETATM   21  C5* UNL     1     -11.871  14.308  67.894  1.00  0.00    -0.358 C  
HETATM   22  O5* UNL     1     -11.592  13.027  68.447  1.00  0.00    -0.290 OA 
HETATM   23  H5* UNL     1     -12.374  12.486  68.447  1.00  0.00     0.000 HD 
ENDBRANCH  14  21
ENDBRANCH   8  12
TORSDOF 2
ENDMDL
MODEL       26
REMARK 921   NORMALIZED FREE ENERGY PREDICTED BY IDOCK:   -5.36 KCAL/MOL
REMARK 922        TOTAL FREE ENERGY PREDICTED BY IDOCK:   -5.96 KCAL/MOL
REMARK 923 INTER-LIGAND FREE ENERGY PREDICTED BY IDOCK:   -5.95 KCAL/MOL
REMARK 924 INTRA-LIGAND FREE ENERGY PREDICTED BY IDOCK:   -0.01 KCAL/MOL
REMARK 927      BINDING AFFINITY PREDICTED BY RF-SCORE:    0.00 PKD
ROOT
HETATM    1  N   UNL     1     -11.321  16.507  63.943  1.00  0.00    -1.559 NA 
HETATM    2  H2  UNL     1     -11.399  16.330  62.941  1.00  0.00     0.000 HD 
HETATM    3  C   UNL     1     -11.545  15.507  64.828  1.00  0.00    -0.256 C  
HETATM    4  H1  UNL     1     -11.073  17.437  64.279  1.00  0.00     0.000 HD 
HETATM    5  N   UNL     1     -11.858  14.331  64.403  1.00  0.00    -0.543 N  
HETATM    6  C   UNL     1     -12.061  13.351  65.337  1.00  0.00    -0.421 C  
HETATM    7  H   UNL     1     -11.951  14.138  63.405  1.00  0.00     0.000 HD 
HETATM    8  N   UNL     1     -11.454  13.513  66.551  1.00  0.00    -0.326 N  
HETATM    9  O   UNL     1     -12.766  12.381  65.089  1.00  0.00    -0.630 OA 
HETATM   10  N   UNL     1     -11.444  15.812  66.143  1.00  0.00     0.150 NA 
HETATM   11  C   UNL     1     -11.380  14.811  66.946  1.00  0.00    -0.355 C  
ENDROOT
BRANCH   8  12
HETATM   12  C1* UNL     1     -11.475  12.486  67.569  1.00  0.00    -0.336 C  
HETATM   13  O4* UNL     1     -10.625  12.948  68.645  1.00  0.00    -0.248 OA 
HETATM   14  C4* UNL     1      -9.295  12.418  68.423  1.00  0.00    -0.158 C  
HETATM   15  C3* UNL     1      -9.471  11.089  67.699  1.00  0.00    -0.164 C  
HETATM   16  H2* UNL     1     -11.312   9.204  67.897  1.00  0.00     0.000 HD 
HETATM   17  C2* UNL     1     -10.943  11.062  67.277  1.00  0.00    -0.297 C  
HETATM   18  O3* UNL     1      -9.123  10.015  68.577  1.00  0.00    -0.122 OA 
HETATM   19  O2* UNL     1     -11.640  10.077  68.076  1.00  0.00    -0.166 OA 
HETATM   20  H3* UNL     1      -9.232   9.187  68.124  1.00  0.00     0.000 HD 
BRANCH  14  21
HETATM   21  C5* UNL     1      -8.452  13.395  67.588  1.00  0.00    -0.187 C  
HETATM   22  O5* UNL     1      -7.738  12.699  66.572  1.00  0.00    -0.334 OA 
HETATM   23  H5* UNL     1      -7.216  13.303  66.056  1.00  0.00     0.000 HD 
ENDBRANCH  14  21
ENDBRANCH   8  12
TORSDOF 2
ENDMDL
MODEL       27
REMARK 921   NORMALIZED FREE ENERGY PREDICTED BY IDOCK:   -5.26 KCAL/MOL
REMARK 922        TOTAL FREE ENERGY PREDICTED BY IDOCK:   -5.85 KCAL/MOL
REMARK 923 INTER-LIGAND FREE ENERGY PREDICTED BY IDOCK:   -5.83 KCAL/MOL
REMARK 924 INTRA-LIGAND FREE ENERGY PREDICTED BY IDOCK:   -0.01 KCAL/MOL
REMARK 927      BINDING AFFINITY PREDICTED BY RF-SCORE:    0.00 PKD
ROOT
HETATM    1  N   UNL     1     -10.457  17.368  68.767  1.00  0.00    -0.351 NA 
HETATM    2  H2  UNL     1      -9.773  18.044  68.425  1.00  0.00     0.000 HD 
HETATM    3  C   UNL     1     -10.890  16.374  67.958  1.00  0.00    -0.342 C  
HETATM    4  H1  UNL     1     -10.815  17.442  69.719  1.00  0.00     0.000 HD 
HETATM    5  N   UNL     1     -10.438  16.281  66.755  1.00  0.00    -0.298 N  
HETATM    6  C   UNL     1     -10.896  15.249  65.980  1.00  0.00    -0.330 C  
HETATM    7  H   UNL     1      -9.761  16.954  66.392  1.00  0.00     0.000 HD 
HETATM    8  N   UNL     1     -11.368  14.144  66.632  1.00  0.00    -0.332 N  
HETATM    9  O   UNL     1     -10.889  15.327  64.758  1.00  0.00    -0.411 OA 
HETATM   10  N   UNL     1     -11.811  15.521  68.465  1.00  0.00    -0.324 NA 
HETATM   11  C   UNL     1     -11.997  14.438  67.800  1.00  0.00    -0.333 C  
ENDROOT
BRANCH   8  12
HETATM   12  C1* UNL     1     -11.748  12.937  65.932  1.00  0.00    -0.399 C  
HETATM   13  O4* UNL     1     -11.926  11.912  66.937  1.00  0.00    -0.614 OA 
HETATM   14  C4* UNL     1     -10.673  11.197  67.073  1.00  0.00    -0.268 C  
HETATM   15  C3* UNL     1      -9.991  11.249  65.712  1.00  0.00    -0.237 C  
HETATM   16  H2* UNL     1     -10.957  11.175  63.253  1.00  0.00     0.000 HD 
HETATM   17  C2* UNL     1     -10.794  12.275  64.908  1.00  0.00    -0.302 C  
HETATM   18  O3* UNL     1     -10.000   9.947  65.121  1.00  0.00    -0.318 OA 
HETATM   19  O2* UNL     1     -11.543  11.582  63.881  1.00  0.00    -0.356 OA 
HETATM   20  H3* UNL     1      -9.575   9.980  64.272  1.00  0.00     0.000 HD 
BRANCH  14  21
HETATM   21  C5* UNL     1      -9.793  11.842  68.157  1.00  0.00    -0.192 C  
HETATM   22  O5* UNL     1     -10.328  11.591  69.452  1.00  0.00    -0.426 OA 
HETATM   23  H5* UNL     1      -9.784  11.990  70.121  1.00  0.00     0.000 HD 
ENDBRANCH  14  21
ENDBRANCH   8  12
TORSDOF 2
ENDMDL
MODEL       28
REMARK 921   NORMALIZED FREE ENERGY PREDICTED BY IDOCK:   -5.22 KCAL/MOL
REMARK 922        TOTAL FREE ENERGY PREDICTED BY IDOCK:   -5.81 KCAL/MOL
REMARK 923 INTER-LIGAND FREE ENERGY PREDICTED BY IDOCK:   -5.80 KCAL/MOL
REMARK 924 INTRA-LIGAND FREE ENERGY PREDICTED BY IDOCK:   -0.01 KCAL/MOL
REMARK 927      BINDING AFFINITY PREDICTED BY RF-SCORE:    0.00 PKD
ROOT
HETATM    1  N   UNL     1     -12.149  10.760  68.341  1.00  0.00    -0.827 NA 
HETATM    2  H2  UNL     1     -13.103  10.571  68.032  1.00  0.00     0.000 HD 
HETATM    3  C   UNL     1     -11.486  11.844  67.873  1.00  0.00    -0.316 C  
HETATM    4  H1  UNL     1     -11.693  10.133  69.003  1.00  0.00     0.000 HD 
HETATM    5  N   UNL     1     -12.063  12.637  67.036  1.00  0.00    -0.248 N  
HETATM    6  C   UNL     1     -11.356  13.728  66.603  1.00  0.00    -0.328 C  
HETATM    7  H   UNL     1     -13.012  12.459  66.708  1.00  0.00     0.000 HD 
HETATM    8  N   UNL     1     -10.354  14.181  67.414  1.00  0.00    -0.255 N  
HETATM    9  O   UNL     1     -11.611  14.258  65.530  1.00  0.00    -0.324 OA 
HETATM   10  N   UNL     1     -10.217  12.028  68.307  1.00  0.00    -0.202 NA 
HETATM   11  C   UNL     1      -9.712  13.188  68.083  1.00  0.00    -0.228 C  
ENDROOT
BRANCH   8  12
HETATM   12  C1* UNL     1      -9.630  15.402  67.139  1.00  0.00    -0.212 C  
HETATM   13  O4* UNL     1      -9.118  15.878  68.406  1.00  0.00    -0.181 OA 
HETATM   14  C4* UNL     1     -10.081  16.811  68.956  1.00  0.00    -0.283 C  
HETATM   15  C3* UNL     1     -10.774  17.471  67.771  1.00  0.00    -0.332 C  
HETATM   16  H2* UNL     1      -9.886  18.191  65.388  1.00  0.00     0.000 HD 
HETATM   17  C2* UNL     1     -10.350  16.642  66.555  1.00  0.00    -0.299 C  
HETATM   18  O3* UNL     1     -10.369  18.840  67.681  1.00  0.00    -0.374 OA 
HETATM   19  O2* UNL     1      -9.444  17.429  65.746  1.00  0.00    -0.523 OA 
HETATM   20  H3* UNL     1     -10.802  19.251  66.941  1.00  0.00     0.000 HD 
BRANCH  14  21
HETATM   21  C5* UNL     1     -11.095  16.082  69.853  1.00  0.00    -0.352 C  
HETATM   22  O5* UNL     1     -10.431  15.170  70.721  1.00  0.00    -0.513 OA 
HETATM   23  H5* UNL     1     -11.058  14.719  71.275  1.00  0.00     0.000 HD 
ENDBRANCH  14  21
ENDBRANCH   8  12
TORSDOF 2
ENDMDL
MODEL       29
REMARK 921   NORMALIZED FREE ENERGY PREDICTED BY IDOCK:   -5.18 KCAL/MOL
REMARK 922        TOTAL FREE ENERGY PREDICTED BY IDOCK:   -5.76 KCAL/MOL
REMARK 923 INTER-LIGAND FREE ENERGY PREDICTED BY IDOCK:   -6.30 KCAL/MOL
REMARK 924 INTRA-LIGAND FREE ENERGY PREDICTED BY IDOCK:    0.54 KCAL/MOL
REMARK 927      BINDING AFFINITY PREDICTED BY RF-SCORE:    0.00 PKD
ROOT
HETATM    1  N   UNL     1     -11.709  16.080  71.810  1.00  0.00    -0.487 NA 
HETATM    2  H2  UNL     1     -12.000  15.631  72.680  1.00  0.00     0.000 HD 
HETATM    3  C   UNL     1     -11.643  15.361  70.665  1.00  0.00    -0.332 C  
HETATM    4  H1  UNL     1     -11.469  17.071  71.803  1.00  0.00     0.000 HD 
HETATM    5  N   UNL     1     -11.947  14.109  70.675  1.00  0.00    -0.382 N  
HETATM    6  C   UNL     1     -11.878  13.428  69.488  1.00  0.00    -0.332 C  
HETATM    7  H   UNL     1     -12.231  13.641  71.536  1.00  0.00     0.000 HD 
HETATM    8  N   UNL     1     -11.994  14.164  68.342  1.00  0.00    -0.349 N  
HETATM    9  O   UNL     1     -11.708  12.216  69.466  1.00  0.00    -0.300 OA 
HETATM   10  N   UNL     1     -11.232  16.011  69.551  1.00  0.00    -0.328 NA 
HETATM   11  C   UNL     1     -11.443  15.401  68.439  1.00  0.00    -0.355 C  
ENDROOT
BRANCH   8  12
HETATM   12  C1* UNL     1     -12.078  13.550  67.035  1.00  0.00    -0.354 C  
HETATM   13  O4* UNL     1     -11.117  12.468  67.020  1.00  0.00    -0.257 OA 
HETATM   14  C4* UNL     1      -9.875  12.980  66.477  1.00  0.00    -0.263 C  
HETATM   15  C3* UNL     1     -10.250  14.087  65.499  1.00  0.00    -0.343 C  
HETATM   16  H2* UNL     1     -12.289  14.354  63.839  1.00  0.00     0.000 HD 
HETATM   17  C2* UNL     1     -11.737  14.350  65.755  1.00  0.00    -0.362 C  
HETATM   18  O3* UNL     1      -9.982  13.655  64.162  1.00  0.00    -0.746 OA 
HETATM   19  O2* UNL     1     -12.498  13.863  64.624  1.00  0.00    -0.560 OA 
HETATM   20  H3* UNL     1     -10.216  14.346  63.553  1.00  0.00     0.000 HD 
BRANCH  14  21
HETATM   21  C5* UNL     1      -8.971  13.518  67.599  1.00  0.00    -0.200 C  
HETATM   22  O5* UNL     1      -8.757  12.520  68.591  1.00  0.00    -0.349 OA 
HETATM   23  H5* UNL     1      -8.198  12.853  69.285  1.00  0.00     0.000 HD 
ENDBRANCH  14  21
ENDBRANCH   8  12
TORSDOF 2
ENDMDL
MODEL       30
REMARK 921   NORMALIZED FREE ENERGY PREDICTED BY IDOCK:   -5.18 KCAL/MOL
REMARK 922        TOTAL FREE ENERGY PREDICTED BY IDOCK:   -5.76 KCAL/MOL
REMARK 923 INTER-LIGAND FREE ENERGY PREDICTED BY IDOCK:   -6.31 KCAL/MOL
REMARK 924 INTRA-LIGAND FREE ENERGY PREDICTED BY IDOCK:    0.55 KCAL/MOL
REMARK 927      BINDING AFFINITY PREDICTED BY RF-SCORE:    0.00 PKD
ROOT
HETATM    1  N   UNL     1      -7.925  11.111  68.727  1.00  0.00    -0.143 NA 
HETATM    2  H2  UNL     1      -8.180  10.584  69.563  1.00  0.00     0.000 HD 
HETATM    3  C   UNL     1      -8.767  12.049  68.235  1.00  0.00    -0.178 C  
HETATM    4  H1  UNL     1      -7.036  10.931  68.261  1.00  0.00     0.000 HD 
HETATM    5  N   UNL     1      -9.890  12.277  68.823  1.00  0.00    -0.414 N  
HETATM    6  C   UNL     1     -10.701  13.247  68.295  1.00  0.00    -0.252 C  
HETATM    7  H   UNL     1     -10.166  11.753  69.654  1.00  0.00     0.000 HD 
HETATM    8  N   UNL     1     -10.100  14.218  67.544  1.00  0.00    -0.235 N  
HETATM    9  O   UNL     1     -11.910  13.229  68.484  1.00  0.00    -0.323 OA 
HETATM   10  N   UNL     1      -8.378  12.700  67.113  1.00  0.00    -0.185 NA 
HETATM   11  C   UNL     1      -9.040  13.763  66.826  1.00  0.00    -0.221 C  
ENDROOT
BRANCH   8  12
HETATM   12  C1* UNL     1     -10.821  15.370  67.050  1.00  0.00    -0.320 C  
HETATM   13  O4* UNL     1     -12.116  14.895  66.614  1.00  0.00    -0.196 OA 
HETATM   14  C4* UNL     1     -12.030  14.596  65.199  1.00  0.00    -0.334 C  
HETATM   15  C3* UNL     1     -10.990  15.544  64.616  1.00  0.00    -0.322 C  
HETATM   16  H2* UNL     1     -10.383  18.055  65.177  1.00  0.00     0.000 HD 
HETATM   17  C2* UNL     1     -10.304  16.173  65.832  1.00  0.00    -0.367 C  
HETATM   18  O3* UNL     1     -11.636  16.508  63.780  1.00  0.00    -1.617 OA 
HETATM   19  O2* UNL     1     -10.700  17.562  65.925  1.00  0.00    -0.286 OA 
HETATM   20  H3* UNL     1     -10.987  17.099  63.416  1.00  0.00     0.000 HD 
BRANCH  14  21
HETATM   21  C5* UNL     1     -11.625  13.129  64.977  1.00  0.00    -0.325 C  
HETATM   22  O5* UNL     1     -12.518  12.254  65.659  1.00  0.00    -0.591 OA 
HETATM   23  H5* UNL     1     -12.268  11.348  65.521  1.00  0.00     0.000 HD 
ENDBRANCH  14  21
ENDBRANCH   8  12
TORSDOF 2
ENDMDL
MODEL       31
REMARK 921   NORMALIZED FREE ENERGY PREDICTED BY IDOCK:   -5.13 KCAL/MOL
REMARK 922        TOTAL FREE ENERGY PREDICTED BY IDOCK:   -5.71 KCAL/MOL
REMARK 923 INTER-LIGAND FREE ENERGY PREDICTED BY IDOCK:   -5.69 KCAL/MOL
REMARK 924 INTRA-LIGAND FREE ENERGY PREDICTED BY IDOCK:   -0.01 KCAL/MOL
REMARK 927      BINDING AFFINITY PREDICTED BY RF-SCORE:    0.00 PKD
ROOT
HETATM    1  N   UNL     1     -10.512  11.279  69.424  1.00  0.00    -0.425 NA 
HETATM    2  H2  UNL     1     -11.389  11.061  69.898  1.00  0.00     0.000 HD 
HETATM    3  C   UNL     1     -10.511  12.086  68.337  1.00  0.00    -0.219 C  
HETATM    4  H1  UNL     1      -9.635  10.890  69.770  1.00  0.00     0.000 HD 
HETATM    5  N   UNL     1     -11.620  12.578  67.901  1.00  0.00    -0.328 N  
HETATM    6  C   UNL     1     -11.564  13.399  66.807  1.00  0.00    -0.365 C  
HETATM    7  H   UNL     1     -12.507  12.363  68.356  1.00  0.00     0.000 HD 
HETATM    8  N   UNL     1     -10.379  14.036  66.566  1.00  0.00    -0.280 N  
HETATM    9  O   UNL     1     -12.536  13.542  66.076  1.00  0.00    -0.420 OA 
HETATM   10  N   UNL     1      -9.317  12.321  67.744  1.00  0.00    -0.187 NA 
HETATM   11  C   UNL     1      -9.292  13.293  66.904  1.00  0.00    -0.244 C  
ENDROOT
BRANCH   8  12
HETATM   12  C1* UNL     1     -10.233  15.033  65.530  1.00  0.00    -0.378 C  
HETATM   13  O4* UNL     1      -8.940  15.652  65.725  1.00  0.00    -0.268 OA 
HETATM   14  C4* UNL     1      -9.127  16.829  66.550  1.00  0.00    -0.273 C  
HETATM   15  C3* UNL     1     -10.526  17.353  66.250  1.00  0.00    -0.276 C  
HETATM   16  H2* UNL     1     -11.941  17.422  64.019  1.00  0.00     0.000 HD 
HETATM   17  C2* UNL     1     -11.199  16.240  65.442  1.00  0.00     0.037 C  
HETATM   18  O3* UNL     1     -10.432  18.585  65.530  1.00  0.00    -0.597 OA 
HETATM   19  O2* UNL     1     -11.348  16.682  64.072  1.00  0.00    -1.120 OA 
HETATM   20  H3* UNL     1     -11.304  18.912  65.343  1.00  0.00     0.000 HD 
BRANCH  14  21
HETATM   21  C5* UNL     1      -8.976  16.479  68.040  1.00  0.00    -0.204 C  
HETATM   22  O5* UNL     1      -7.635  16.101  68.332  1.00  0.00    -0.147 OA 
HETATM   23  H5* UNL     1      -7.542  15.885  69.253  1.00  0.00     0.000 HD 
ENDBRANCH  14  21
ENDBRANCH   8  12
TORSDOF 2
ENDMDL
MODEL       32
REMARK 921   NORMALIZED FREE ENERGY PREDICTED BY IDOCK:   -5.13 KCAL/MOL
REMARK 922        TOTAL FREE ENERGY PREDICTED BY IDOCK:   -5.71 KCAL/MOL
REMARK 923 INTER-LIGAND FREE ENERGY PREDICTED BY IDOCK:   -5.69 KCAL/MOL
REMARK 924 INTRA-LIGAND FREE ENERGY PREDICTED BY IDOCK:   -0.02 KCAL/MOL
REMARK 927      BINDING AFFINITY PREDICTED BY RF-SCORE:    0.00 PKD
ROOT
HETATM    1  N   UNL     1     -11.395  15.304  72.408  1.00  0.00    -0.401 NA 
HETATM    2  H2  UNL     1     -10.767  16.030  72.757  1.00  0.00     0.000 HD 
HETATM    3  C   UNL     1     -11.586  15.156  71.077  1.00  0.00    -0.347 C  
HETATM    4  H1  UNL     1     -11.878  14.690  73.063  1.00  0.00     0.000 HD 
HETATM    5  N   UNL     1     -10.975  15.932  70.249  1.00  0.00    -0.342 N  
HETATM    6  C   UNL     1     -11.191  15.733  68.911  1.00  0.00    -0.332 C  
HETATM    7  H   UNL     1     -10.351  16.669  70.580  1.00  0.00     0.000 HD 
HETATM    8  N   UNL     1     -11.594  14.485  68.526  1.00  0.00    -0.297 N  
HETATM    9  O   UNL     1     -11.037  16.642  68.106  1.00  0.00    -0.361 OA 
HETATM   10  N   UNL     1     -12.445  14.188  70.680  1.00  0.00    -0.341 NA 
HETATM   11  C   UNL     1     -12.401  13.877  69.434  1.00  0.00    -0.197 C  
ENDROOT
BRANCH   8  12
HETATM   12  C1* UNL     1     -11.720  14.109  67.136  1.00  0.00    -0.403 C  
HETATM   13  O4* UNL     1     -12.034  12.696  67.113  1.00  0.00    -0.437 OA 
HETATM   14  C4* UNL     1     -10.790  11.963  66.990  1.00  0.00    -0.259 C  
HETATM   15  C3* UNL     1      -9.834  12.855  66.209  1.00  0.00    -0.273 C  
HETATM   16  H2* UNL     1     -10.232  14.550  64.220  1.00  0.00     0.000 HD 
HETATM   17  C2* UNL     1     -10.518  14.224  66.166  1.00  0.00    -0.292 C  
HETATM   18  O3* UNL     1      -9.616  12.301  64.908  1.00  0.00    -0.452 OA 
HETATM   19  O2* UNL     1     -10.970  14.480  64.815  1.00  0.00    -0.390 OA 
HETATM   20  H3* UNL     1      -9.019  12.858  64.422  1.00  0.00     0.000 HD 
BRANCH  14  21
HETATM   21  C5* UNL     1     -10.220  11.623  68.376  1.00  0.00    -0.207 C  
HETATM   22  O5* UNL     1      -8.979  12.289  68.585  1.00  0.00    -0.355 OA 
HETATM   23  H5* UNL     1      -8.627  12.078  69.442  1.00  0.00     0.000 HD 
ENDBRANCH  14  21
ENDBRANCH   8  12
TORSDOF 2
ENDMDL
MODEL       33
REMARK 921   NORMALIZED FREE ENERGY PREDICTED BY IDOCK:   -5.13 KCAL/MOL
REMARK 922        TOTAL FREE ENERGY PREDICTED BY IDOCK:   -5.70 KCAL/MOL
REMARK 923 INTER-LIGAND FREE ENERGY PREDICTED BY IDOCK:   -6.33 KCAL/MOL
REMARK 924 INTRA-LIGAND FREE ENERGY PREDICTED BY IDOCK:    0.63 KCAL/MOL
REMARK 927      BINDING AFFINITY PREDICTED BY RF-SCORE:    0.00 PKD
ROOT
HETATM    1  N   UNL     1     -11.861  16.225  63.723  1.00  0.00    -1.413 NA 
HETATM    2  H2  UNL     1     -11.298  17.036  63.465  1.00  0.00     0.000 HD 
HETATM    3  C   UNL     1     -11.418  15.365  64.670  1.00  0.00    -0.337 C  
HETATM    4  H1  UNL     1     -12.758  16.061  63.267  1.00  0.00     0.000 HD 
HETATM    5  N   UNL     1     -10.284  15.573  65.246  1.00  0.00    -0.362 N  
HETATM    6  C   UNL     1      -9.887  14.682  66.208  1.00  0.00    -0.300 C  
HETATM    7  H   UNL     1      -9.703  16.373  64.994  1.00  0.00     0.000 HD 
HETATM    8  N   UNL     1     -10.868  13.970  66.840  1.00  0.00    -0.288 N  
HETATM    9  O   UNL     1      -8.702  14.531  66.475  1.00  0.00    -0.187 OA 
HETATM   10  N   UNL     1     -12.203  14.299  64.952  1.00  0.00    -0.425 NA 
HETATM   11  C   UNL     1     -11.914  13.662  66.030  1.00  0.00    -0.413 C  
ENDROOT
BRANCH   8  12
HETATM   12  C1* UNL     1     -10.592  13.106  67.965  1.00  0.00    -0.236 C  
HETATM   13  O4* UNL     1      -9.494  12.249  67.574  1.00  0.00    -0.175 OA 
HETATM   14  C4* UNL     1     -10.051  11.027  67.030  1.00  0.00    -0.196 C  
HETATM   15  C3* UNL     1     -11.380  10.800  67.741  1.00  0.00    -0.279 C  
HETATM   16  H2* UNL     1     -12.151  11.270  70.225  1.00  0.00     0.000 HD 
HETATM   17  C2* UNL     1     -11.656  12.110  68.485  1.00  0.00    -0.315 C  
HETATM   18  O3* UNL     1     -11.268   9.675  68.617  1.00  0.00    -0.464 OA 
HETATM   19  O2* UNL     1     -11.498  11.882  69.906  1.00  0.00    -0.265 OA 
HETATM   20  H3* UNL     1     -12.097   9.533  69.060  1.00  0.00     0.000 HD 
BRANCH  14  21
HETATM   21  C5* UNL     1     -10.252  11.149  65.511  1.00  0.00    -0.263 C  
HETATM   22  O5* UNL     1      -9.097  11.710  64.896  1.00  0.00    -0.417 OA 
HETATM   23  H5* UNL     1      -9.222  11.785  63.957  1.00  0.00     0.000 HD 
ENDBRANCH  14  21
ENDBRANCH   8  12
TORSDOF 2
ENDMDL
MODEL       34
REMARK 921   NORMALIZED FREE ENERGY PREDICTED BY IDOCK:   -5.12 KCAL/MOL
REMARK 922        TOTAL FREE ENERGY PREDICTED BY IDOCK:   -5.70 KCAL/MOL
REMARK 923 INTER-LIGAND FREE ENERGY PREDICTED BY IDOCK:   -5.83 KCAL/MOL
REMARK 924 INTRA-LIGAND FREE ENERGY PREDICTED BY IDOCK:    0.13 KCAL/MOL
REMARK 927      BINDING AFFINITY PREDICTED BY RF-SCORE:    0.00 PKD
ROOT
HETATM    1  N   UNL     1     -11.849  11.543  67.681  1.00  0.00    -0.629 NA 
HETATM    2  H2  UNL     1     -11.882  11.220  68.649  1.00  0.00     0.000 HD 
HETATM    3  C   UNL     1     -11.742  12.864  67.410  1.00  0.00    -0.372 C  
HETATM    4  H1  UNL     1     -11.895  10.869  66.917  1.00  0.00     0.000 HD 
HETATM    5  N   UNL     1     -11.684  13.716  68.376  1.00  0.00    -0.338 N  
HETATM    6  C   UNL     1     -11.562  15.040  68.050  1.00  0.00    -0.338 C  
HETATM    7  H   UNL     1     -11.726  13.413  69.349  1.00  0.00     0.000 HD 
HETATM    8  N   UNL     1     -11.018  15.333  66.831  1.00  0.00    -0.322 N  
HETATM    9  O   UNL     1     -11.938  15.916  68.819  1.00  0.00    -0.368 OA 
HETATM   10  N   UNL     1     -11.721  13.228  66.106  1.00  0.00    -0.356 NA 
HETATM   11  C   UNL     1     -11.341  14.432  65.867  1.00  0.00    -0.332 C  
ENDROOT
BRANCH   8  12
HETATM   12  C1* UNL     1     -10.708  16.687  66.428  1.00  0.00    -0.123 C  
HETATM   13  O4* UNL     1      -9.511  16.617  65.617  1.00  0.00    -0.511 OA 
HETATM   14  C4* UNL     1      -8.370  16.828  66.485  1.00  0.00    -0.285 C  
HETATM   15  C3* UNL     1      -8.842  17.737  67.612  1.00  0.00    -0.248 C  
HETATM   16  H2* UNL     1     -10.555  19.750  67.653  1.00  0.00     0.000 HD 
HETATM   17  C2* UNL     1     -10.367  17.773  67.477  1.00  0.00    -0.369 C  
HETATM   18  O3* UNL     1      -8.240  19.027  67.471  1.00  0.00    -0.271 OA 
HETATM   19  O2* UNL     1     -10.764  19.084  67.009  1.00  0.00    -0.441 OA 
HETATM   20  H3* UNL     1      -8.534  19.594  68.175  1.00  0.00     0.000 HD 
BRANCH  14  21
HETATM   21  C5* UNL     1      -7.849  15.490  67.035  1.00  0.00    -0.225 C  
HETATM   22  O5* UNL     1      -6.428  15.495  67.102  1.00  0.00    -0.302 OA 
HETATM   23  H5* UNL     1      -6.106  14.668  67.443  1.00  0.00     0.000 HD 
ENDBRANCH  14  21
ENDBRANCH   8  12
TORSDOF 2
ENDMDL
MODEL       35
REMARK 921   NORMALIZED FREE ENERGY PREDICTED BY IDOCK:   -5.12 KCAL/MOL
REMARK 922        TOTAL FREE ENERGY PREDICTED BY IDOCK:   -5.69 KCAL/MOL
REMARK 923 INTER-LIGAND FREE ENERGY PREDICTED BY IDOCK:   -5.97 KCAL/MOL
REMARK 924 INTRA-LIGAND FREE ENERGY PREDICTED BY IDOCK:    0.28 KCAL/MOL
REMARK 927      BINDING AFFINITY PREDICTED BY RF-SCORE:    0.00 PKD
ROOT
HETATM    1  N   UNL     1      -7.371  11.079  62.355  1.00  0.00    -0.392 NA 
HETATM    2  H2  UNL     1      -6.394  10.938  62.612  1.00  0.00     0.000 HD 
HETATM    3  C   UNL     1      -8.341  10.969  63.293  1.00  0.00     0.143 C  
HETATM    4  H1  UNL     1      -7.619  11.305  61.392  1.00  0.00     0.000 HD 
HETATM    5  N   UNL     1      -8.028  10.684  64.510  1.00  0.00    -0.356 N  
HETATM    6  C   UNL     1      -9.044  10.597  65.425  1.00  0.00    -0.189 C  
HETATM    7  H   UNL     1      -7.058  10.529  64.783  1.00  0.00     0.000 HD 
HETATM    8  N   UNL     1     -10.194  11.281  65.144  1.00  0.00    -0.274 N  
HETATM    9  O   UNL     1      -8.922   9.924  66.440  1.00  0.00    -0.143 OA 
HETATM   10  N   UNL     1      -9.619  11.150  62.884  1.00  0.00    -0.349 NA 
HETATM   11  C   UNL     1     -10.485  11.320  63.818  1.00  0.00    -0.399 C  
ENDROOT
BRANCH   8  12
HETATM   12  C1* UNL     1     -11.283  11.384  66.090  1.00  0.00    -0.137 C  
HETATM   13  O4* UNL     1     -12.374  12.036  65.399  1.00  0.00    -0.457 OA 
HETATM   14  C4* UNL     1     -12.282  13.459  65.659  1.00  0.00    -0.463 C  
HETATM   15  C3* UNL     1     -11.649  13.610  67.037  1.00  0.00    -0.359 C  
HETATM   16  H2* UNL     1     -11.868  12.172  69.244  1.00  0.00     0.000 HD 
HETATM   17  C2* UNL     1     -11.135  12.212  67.389  1.00  0.00    -0.276 C  
HETATM   18  O3* UNL     1     -12.627  14.094  67.962  1.00  0.00    -0.442 OA 
HETATM   19  O2* UNL     1     -11.958  11.663  68.446  1.00  0.00    -0.483 OA 
HETATM   20  H3* UNL     1     -12.232  14.188  68.821  1.00  0.00     0.000 HD 
BRANCH  14  21
HETATM   21  C5* UNL     1     -11.433  14.155  64.583  1.00  0.00    -0.387 C  
HETATM   22  O5* UNL     1     -12.237  14.511  63.463  1.00  0.00    -1.007 OA 
HETATM   23  H5* UNL     1     -11.712  14.941  62.798  1.00  0.00     0.000 HD 
ENDBRANCH  14  21
ENDBRANCH   8  12
TORSDOF 2
ENDMDL
MODEL       36
REMARK 921   NORMALIZED FREE ENERGY PREDICTED BY IDOCK:   -5.09 KCAL/MOL
REMARK 922        TOTAL FREE ENERGY PREDICTED BY IDOCK:   -5.67 KCAL/MOL
REMARK 923 INTER-LIGAND FREE ENERGY PREDICTED BY IDOCK:   -5.74 KCAL/MOL
REMARK 924 INTRA-LIGAND FREE ENERGY PREDICTED BY IDOCK:    0.07 KCAL/MOL
REMARK 927      BINDING AFFINITY PREDICTED BY RF-SCORE:    0.00 PKD
ROOT
HETATM    1  N   UNL     1     -14.378   8.748  72.729  1.00  0.00    -1.038 NA 
HETATM    2  H2  UNL     1     -15.152   8.087  72.651  1.00  0.00     0.000 HD 
HETATM    3  C   UNL     1     -13.232   8.535  72.041  1.00  0.00    -0.369 C  
HETATM    4  H1  UNL     1     -14.468   9.570  73.325  1.00  0.00     0.000 HD 
HETATM    5  N   UNL     1     -13.119   7.496  71.287  1.00  0.00    -0.530 N  
HETATM    6  C   UNL     1     -11.945   7.332  70.600  1.00  0.00    -0.220 C  
HETATM    7  H   UNL     1     -13.878   6.819  71.204  1.00  0.00     0.000 HD 
HETATM    8  N   UNL     1     -11.210   8.457  70.349  1.00  0.00    -0.244 N  
HETATM    9  O   UNL     1     -11.574   6.222  70.241  1.00  0.00    -0.395 OA 
HETATM   10  N   UNL     1     -12.238   9.440  72.202  1.00  0.00    -0.314 NA 
HETATM   11  C   UNL     1     -11.284   9.380  71.343  1.00  0.00    -0.381 C  
ENDROOT
BRANCH   8  12
HETATM   12  C1* UNL     1     -10.029   8.438  69.516  1.00  0.00    -0.190 C  
HETATM   13  O4* UNL     1      -9.607   9.813  69.359  1.00  0.00    -0.182 OA 
HETATM   14  C4* UNL     1     -10.208  10.329  68.145  1.00  0.00    -0.164 C  
HETATM   15  C3* UNL     1     -10.362   9.147  67.198  1.00  0.00    -0.267 C  
HETATM   16  H2* UNL     1      -8.852   7.019  66.776  1.00  0.00     0.000 HD 
HETATM   17  C2* UNL     1     -10.087   7.912  68.061  1.00  0.00    -0.192 C  
HETATM   18  O3* UNL     1      -9.443   9.281  66.110  1.00  0.00    -0.195 OA 
HETATM   19  O2* UNL     1      -8.816   7.341  67.669  1.00  0.00    -0.124 OA 
HETATM   20  H3* UNL     1      -9.540   8.544  65.519  1.00  0.00     0.000 HD 
BRANCH  14  21
HETATM   21  C5* UNL     1     -11.569  10.978  68.445  1.00  0.00    -0.302 C  
HETATM   22  O5* UNL     1     -12.035  11.710  67.317  1.00  0.00    -0.627 OA 
HETATM   23  H5* UNL     1     -12.876  12.111  67.503  1.00  0.00     0.000 HD 
ENDBRANCH  14  21
ENDBRANCH   8  12
TORSDOF 2
ENDMDL
MODEL       37
REMARK 921   NORMALIZED FREE ENERGY PREDICTED BY IDOCK:   -5.08 KCAL/MOL
REMARK 922        TOTAL FREE ENERGY PREDICTED BY IDOCK:   -5.65 KCAL/MOL
REMARK 923 INTER-LIGAND FREE ENERGY PREDICTED BY IDOCK:   -5.70 KCAL/MOL
REMARK 924 INTRA-LIGAND FREE ENERGY PREDICTED BY IDOCK:    0.06 KCAL/MOL
REMARK 927      BINDING AFFINITY PREDICTED BY RF-SCORE:    0.00 PKD
ROOT
HETATM    1  N   UNL     1     -11.116   9.797  70.273  1.00  0.00    -0.271 NA 
HETATM    2  H2  UNL     1     -11.554   8.879  70.355  1.00  0.00     0.000 HD 
HETATM    3  C   UNL     1     -10.688  10.240  69.068  1.00  0.00    -0.227 C  
HETATM    4  H1  UNL     1     -10.999  10.383  71.100  1.00  0.00     0.000 HD 
HETATM    5  N   UNL     1     -10.836   9.500  68.023  1.00  0.00    -0.439 N  
HETATM    6  C   UNL     1     -10.400   9.999  66.823  1.00  0.00    -0.217 C  
HETATM    7  H   UNL     1     -11.262   8.576  68.087  1.00  0.00     0.000 HD 
HETATM    8  N   UNL     1     -10.320  11.359  66.708  1.00  0.00    -0.225 N  
HETATM    9  O   UNL     1     -10.088   9.251  65.906  1.00  0.00    -0.293 OA 
HETATM   10  N   UNL     1     -10.099  11.459  69.030  1.00  0.00    -0.145 NA 
HETATM   11  C   UNL     1      -9.959  11.976  67.862  1.00  0.00    -0.197 C  
ENDROOT
BRANCH   8  12
HETATM   12  C1* UNL     1     -10.011  12.011  65.455  1.00  0.00    -0.253 C  
HETATM   13  O4* UNL     1     -10.113  13.435  65.690  1.00  0.00    -0.289 OA 
HETATM   14  C4* UNL     1     -11.457  13.850  65.341  1.00  0.00    -0.312 C  
HETATM   15  C3* UNL     1     -11.930  12.916  64.235  1.00  0.00    -0.399 C  
HETATM   16  H2* UNL     1     -10.648  11.778  62.222  1.00  0.00     0.000 HD 
HETATM   17  C2* UNL     1     -10.892  11.790  64.202  1.00  0.00    -0.360 C  
HETATM   18  O3* UNL     1     -12.011  13.635  63.002  1.00  0.00    -0.784 OA 
HETATM   19  O2* UNL     1     -10.107  11.914  62.992  1.00  0.00    -0.379 OA 
HETATM   20  H3* UNL     1     -12.306  13.052  62.312  1.00  0.00     0.000 HD 
BRANCH  14  21
HETATM   21  C5* UNL     1     -12.385  13.772  66.565  1.00  0.00    -0.386 C  
HETATM   22  O5* UNL     1     -12.111  14.835  67.471  1.00  0.00    -0.528 OA 
HETATM   23  H5* UNL     1     -12.685  14.786  68.227  1.00  0.00     0.000 HD 
ENDBRANCH  14  21
ENDBRANCH   8  12
TORSDOF 2
ENDMDL
MODEL       38
REMARK 921   NORMALIZED FREE ENERGY PREDICTED BY IDOCK:   -5.07 KCAL/MOL
REMARK 922        TOTAL FREE ENERGY PREDICTED BY IDOCK:   -5.64 KCAL/MOL
REMARK 923 INTER-LIGAND FREE ENERGY PREDICTED BY IDOCK:   -5.59 KCAL/MOL
REMARK 924 INTRA-LIGAND FREE ENERGY PREDICTED BY IDOCK:   -0.05 KCAL/MOL
REMARK 927      BINDING AFFINITY PREDICTED BY RF-SCORE:    0.00 PKD
ROOT
HETATM    1  N   UNL     1      -6.789  14.401  70.408  1.00  0.00    -0.390 NA 
HETATM    2  H2  UNL     1      -7.361  14.088  71.194  1.00  0.00     0.000 HD 
HETATM    3  C   UNL     1      -7.380  14.836  69.271  1.00  0.00    -0.168 C  
HETATM    4  H1  UNL     1      -5.772  14.387  70.480  1.00  0.00     0.000 HD 
HETATM    5  N   UNL     1      -8.665  14.854  69.180  1.00  0.00    -0.326 N  
HETATM    6  C   UNL     1      -9.215  15.316  68.014  1.00  0.00    -0.188 C  
HETATM    7  H   UNL     1      -9.253  14.535  69.951  1.00  0.00     0.000 HD 
HETATM    8  N   UNL     1      -8.453  16.165  67.261  1.00  0.00    -0.172 N  
HETATM    9  O   UNL     1     -10.336  14.969  67.664  1.00  0.00    -0.240 OA 
HETATM   10  N   UNL     1      -6.565  15.220  68.260  1.00  0.00    -0.104 NA 
HETATM   11  C   UNL     1      -7.125  15.884  67.313  1.00  0.00    -0.207 C  
ENDROOT
BRANCH   8  12
HETATM   12  C1* UNL     1      -8.969  16.830  66.086  1.00  0.00    -0.260 C  
HETATM   13  O4* UNL     1      -8.119  17.978  65.849  1.00  0.00    -0.519 OA 
HETATM   14  C4* UNL     1      -8.717  19.120  66.510  1.00  0.00    -0.337 C  
HETATM   15  C3* UNL     1     -10.223  18.889  66.504  1.00  0.00    -0.414 C  
HETATM   16  H2* UNL     1     -11.827  17.772  64.725  1.00  0.00     0.000 HD 
HETATM   17  C2* UNL     1     -10.395  17.431  66.070  1.00  0.00    -0.304 C  
HETATM   18  O3* UNL     1     -10.846  19.814  65.609  1.00  0.00    -0.462 OA 
HETATM   19  O2* UNL     1     -10.951  17.403  64.734  1.00  0.00    -0.964 OA 
HETATM   20  H3* UNL     1     -11.785  19.670  65.605  1.00  0.00     0.000 HD 
BRANCH  14  21
HETATM   21  C5* UNL     1      -8.186  19.258  67.946  1.00  0.00    -0.305 C  
HETATM   22  O5* UNL     1      -6.771  19.417  67.944  1.00  0.00    -0.230 OA 
HETATM   23  H5* UNL     1      -6.443  19.502  68.832  1.00  0.00     0.000 HD 
ENDBRANCH  14  21
ENDBRANCH   8  12
TORSDOF 2
ENDMDL
MODEL       39
REMARK 921   NORMALIZED FREE ENERGY PREDICTED BY IDOCK:   -5.07 KCAL/MOL
REMARK 922        TOTAL FREE ENERGY PREDICTED BY IDOCK:   -5.64 KCAL/MOL
REMARK 923 INTER-LIGAND FREE ENERGY PREDICTED BY IDOCK:   -5.80 KCAL/MOL
REMARK 924 INTRA-LIGAND FREE ENERGY PREDICTED BY IDOCK:    0.17 KCAL/MOL
REMARK 927      BINDING AFFINITY PREDICTED BY RF-SCORE:    0.00 PKD
ROOT
HETATM    1  N   UNL     1     -11.619  16.274  63.863  1.00  0.00    -1.573 NA 
HETATM    2  H2  UNL     1     -12.555  16.309  63.457  1.00  0.00     0.000 HD 
HETATM    3  C   UNL     1     -11.258  15.229  64.644  1.00  0.00    -0.356 C  
HETATM    4  H1  UNL     1     -10.956  17.026  63.680  1.00  0.00     0.000 HD 
HETATM    5  N   UNL     1     -12.097  14.278  64.874  1.00  0.00    -0.415 N  
HETATM    6  C   UNL     1     -11.678  13.236  65.659  1.00  0.00    -0.356 C  
HETATM    7  H   UNL     1     -13.039  14.301  64.485  1.00  0.00     0.000 HD 
HETATM    8  N   UNL     1     -10.332  13.006  65.720  1.00  0.00    -0.282 N  
HETATM    9  O   UNL     1     -12.481  12.554  66.282  1.00  0.00    -0.475 OA 
HETATM   10  N   UNL     1     -10.009  15.252  65.166  1.00  0.00    -0.285 NA 
HETATM   11  C   UNL     1      -9.589  14.142  65.660  1.00  0.00    -0.081 C  
ENDROOT
BRANCH   8  12
HETATM   12  C1* UNL     1      -9.775  11.857  66.398  1.00  0.00    -0.221 C  
HETATM   13  O4* UNL     1      -8.726  11.338  65.545  1.00  0.00    -0.148 OA 
HETATM   14  C4* UNL     1      -9.303  10.310  64.703  1.00  0.00    -0.266 C  
HETATM   15  C3* UNL     1     -10.439   9.680  65.499  1.00  0.00     0.470 C  
HETATM   16  H2* UNL     1     -10.712   9.173  68.079  1.00  0.00     0.000 HD 
HETATM   17  C2* UNL     1     -10.642  10.611  66.699  1.00  0.00    -0.214 C  
HETATM   18  O3* UNL     1     -10.077   8.350  65.881  1.00  0.00    -0.432 OA 
HETATM   19  O2* UNL     1     -10.180   9.939  67.895  1.00  0.00    -0.171 OA 
HETATM   20  H3* UNL     1     -10.785   7.958  66.378  1.00  0.00     0.000 HD 
BRANCH  14  21
HETATM   21  C5* UNL     1      -9.820  10.911  63.385  1.00  0.00    -0.362 C  
HETATM   22  O5* UNL     1      -8.777  11.602  62.707  1.00  0.00    -0.634 OA 
HETATM   23  H5* UNL     1      -9.097  11.974  61.893  1.00  0.00     0.000 HD 
ENDBRANCH  14  21
ENDBRANCH   8  12
TORSDOF 2
ENDMDL
MODEL       40
REMARK 921   NORMALIZED FREE ENERGY PREDICTED BY IDOCK:   -5.06 KCAL/MOL
REMARK 922        TOTAL FREE ENERGY PREDICTED BY IDOCK:   -5.62 KCAL/MOL
REMARK 923 INTER-LIGAND FREE ENERGY PREDICTED BY IDOCK:   -5.56 KCAL/MOL
REMARK 924 INTRA-LIGAND FREE ENERGY PREDICTED BY IDOCK:   -0.06 KCAL/MOL
REMARK 927      BINDING AFFINITY PREDICTED BY RF-SCORE:    0.00 PKD
ROOT
HETATM    1  N   UNL     1      -5.559  20.879  70.991  1.00  0.00    -0.543 NA 
HETATM    2  H2  UNL     1      -5.552  20.451  71.918  1.00  0.00     0.000 HD 
HETATM    3  C   UNL     1      -5.933  20.153  69.912  1.00  0.00    -0.351 C  
HETATM    4  H1  UNL     1      -5.285  21.855  70.878  1.00  0.00     0.000 HD 
HETATM    5  N   UNL     1      -6.279  18.920  70.056  1.00  0.00    -0.187 N  
HETATM    6  C   UNL     1      -6.662  18.232  68.935  1.00  0.00    -0.252 C  
HETATM    7  H   UNL     1      -6.269  18.473  70.972  1.00  0.00     0.000 HD 
HETATM    8  N   UNL     1      -7.132  18.969  67.883  1.00  0.00    -0.228 N  
HETATM    9  O   UNL     1      -6.574  17.012  68.883  1.00  0.00    -0.174 OA 
HETATM   10  N   UNL     1      -5.903  20.774  68.709  1.00  0.00    -0.346 NA 
HETATM   11  C   UNL     1      -6.518  20.174  67.755  1.00  0.00    -0.240 C  
ENDROOT
BRANCH   8  12
HETATM   12  C1* UNL     1      -7.697  18.356  66.702  1.00  0.00    -0.235 C  
HETATM   13  O4* UNL     1      -8.275  19.424  65.914  1.00  0.00    -0.425 OA 
HETATM   14  C4* UNL     1      -9.673  19.540  66.276  1.00  0.00    -0.402 C  
HETATM   15  C3* UNL     1     -10.135  18.147  66.686  1.00  0.00    -0.373 C  
HETATM   16  H2* UNL     1      -9.498  15.745  65.785  1.00  0.00     0.000 HD 
HETATM   17  C2* UNL     1      -8.847  17.327  66.810  1.00  0.00    -0.247 C  
HETATM   18  O3* UNL     1     -11.032  17.630  65.699  1.00  0.00    -0.190 OA 
HETATM   19  O2* UNL     1      -8.792  16.376  65.719  1.00  0.00    -0.446 OA 
HETATM   20  H3* UNL     1     -11.319  16.761  65.955  1.00  0.00     0.000 HD 
BRANCH  14  21
HETATM   21  C5* UNL     1      -9.856  20.542  67.427  1.00  0.00    -0.434 C  
HETATM   22  O5* UNL     1     -10.438  19.905  68.559  1.00  0.00    -0.489 OA 
HETATM   23  H5* UNL     1     -10.552  20.525  69.270  1.00  0.00     0.000 HD 
ENDBRANCH  14  21
ENDBRANCH   8  12
TORSDOF 2
ENDMDL
MODEL       41
REMARK 921   NORMALIZED FREE ENERGY PREDICTED BY IDOCK:   -5.05 KCAL/MOL
REMARK 922        TOTAL FREE ENERGY PREDICTED BY IDOCK:   -5.62 KCAL/MOL
REMARK 923 INTER-LIGAND FREE ENERGY PREDICTED BY IDOCK:   -5.54 KCAL/MOL
REMARK 924 INTRA-LIGAND FREE ENERGY PREDICTED BY IDOCK:   -0.08 KCAL/MOL
REMARK 927      BINDING AFFINITY PREDICTED BY RF-SCORE:    0.00 PKD
ROOT
HETATM    1  N   UNL     1     -12.107  10.048  70.159  1.00  0.00    -0.467 NA 
HETATM    2  H2  UNL     1     -12.128   9.947  71.175  1.00  0.00     0.000 HD 
HETATM    3  C   UNL     1     -12.056  11.280  69.602  1.00  0.00    -0.322 C  
HETATM    4  H1  UNL     1     -12.125   9.221  69.564  1.00  0.00     0.000 HD 
HETATM    5  N   UNL     1     -12.033  12.326  70.355  1.00  0.00    -0.502 N  
HETATM    6  C   UNL     1     -11.966  13.549  69.743  1.00  0.00    -0.340 C  
HETATM    7  H   UNL     1     -12.063  12.244  71.372  1.00  0.00     0.000 HD 
HETATM    8  N   UNL     1     -11.434  13.587  68.485  1.00  0.00    -0.286 N  
HETATM    9  O   UNL     1     -12.378  14.557  70.303  1.00  0.00    -0.316 OA 
HETATM   10  N   UNL     1     -12.049  11.347  68.250  1.00  0.00    -0.608 NA 
HETATM   11  C   UNL     1     -11.719  12.483  67.747  1.00  0.00    -0.359 C  
ENDROOT
BRANCH   8  12
HETATM   12  C1* UNL     1     -11.180  14.830  67.790  1.00  0.00    -0.313 C  
HETATM   13  O4* UNL     1     -10.331  14.511  66.662  1.00  0.00    -0.267 OA 
HETATM   14  C4* UNL     1      -8.954  14.694  67.074  1.00  0.00    -0.240 C  
HETATM   15  C3* UNL     1      -8.956  15.792  68.130  1.00  0.00    -0.180 C  
HETATM   16  H2* UNL     1     -10.409  17.985  68.387  1.00  0.00     0.000 HD 
HETATM   17  C2* UNL     1     -10.432  15.993  68.484  1.00  0.00    -0.258 C  
HETATM   18  O3* UNL     1      -8.346  16.970  67.597  1.00  0.00    -0.187 OA 
HETATM   19  O2* UNL     1     -10.869  17.271  67.961  1.00  0.00    -0.381 OA 
HETATM   20  H3* UNL     1      -8.347  17.655  68.256  1.00  0.00     0.000 HD 
BRANCH  14  21
HETATM   21  C5* UNL     1      -8.376  13.386  67.639  1.00  0.00    -0.179 C  
HETATM   22  O5* UNL     1      -8.083  13.525  69.025  1.00  0.00    -0.337 OA 
HETATM   23  H5* UNL     1      -7.726  12.717  69.374  1.00  0.00     0.000 HD 
ENDBRANCH  14  21
ENDBRANCH   8  12
TORSDOF 2
ENDMDL
MODEL       42
REMARK 921   NORMALIZED FREE ENERGY PREDICTED BY IDOCK:   -5.05 KCAL/MOL
REMARK 922        TOTAL FREE ENERGY PREDICTED BY IDOCK:   -5.62 KCAL/MOL
REMARK 923 INTER-LIGAND FREE ENERGY PREDICTED BY IDOCK:   -5.54 KCAL/MOL
REMARK 924 INTRA-LIGAND FREE ENERGY PREDICTED BY IDOCK:   -0.07 KCAL/MOL
REMARK 927      BINDING AFFINITY PREDICTED BY RF-SCORE:    0.00 PKD
ROOT
HETATM    1  N   UNL     1      -7.829  10.128  68.439  1.00  0.00    -0.092 NA 
HETATM    2  H2  UNL     1      -8.038  10.524  67.522  1.00  0.00     0.000 HD 
HETATM    3  C   UNL     1      -8.800  10.047  69.380  1.00  0.00    -0.190 C  
HETATM    4  H1  UNL     1      -6.889   9.792  68.648  1.00  0.00     0.000 HD 
HETATM    5  N   UNL     1      -9.987  10.471  69.115  1.00  0.00    -0.214 N  
HETATM    6  C   UNL     1     -10.938  10.354  70.095  1.00  0.00    -0.300 C  
HETATM    7  H   UNL     1     -10.212  10.879  68.208  1.00  0.00     0.000 HD 
HETATM    8  N   UNL     1     -10.738   9.389  71.043  1.00  0.00    -0.311 N  
HETATM    9  O   UNL     1     -11.913  11.094  70.119  1.00  0.00    -0.303 OA 
HETATM   10  N   UNL     1      -8.453   9.529  70.582  1.00  0.00    -0.235 NA 
HETATM   11  C   UNL     1      -9.429   9.202  71.351  1.00  0.00    -0.209 C  
ENDROOT
BRANCH   8  12
HETATM   12  C1* UNL     1     -11.732   9.072  72.044  1.00  0.00    -0.347 C  
HETATM   13  O4* UNL     1     -11.290   7.861  72.701  1.00  0.00    -0.361 OA 
HETATM   14  C4* UNL     1     -11.905   6.736  72.026  1.00  0.00    -0.314 C  
HETATM   15  C3* UNL     1     -13.241   7.229  71.485  1.00  0.00    -0.379 C  
HETATM   16  H2* UNL     1     -15.007   8.943  72.449  1.00  0.00     0.000 HD 
HETATM   17  C2* UNL     1     -13.193   8.751  71.645  1.00  0.00    -0.357 C  
HETATM   18  O3* UNL     1     -14.308   6.625  72.222  1.00  0.00    -0.614 OA 
HETATM   19  O2* UNL     1     -14.111   9.141  72.694  1.00  0.00    -0.512 OA 
HETATM   20  H3* UNL     1     -15.141   6.933  71.884  1.00  0.00     0.000 HD 
BRANCH  14  21
HETATM   21  C5* UNL     1     -11.004   6.225  70.890  1.00  0.00    -0.286 C  
HETATM   22  O5* UNL     1     -11.682   6.302  69.640  1.00  0.00    -0.522 OA 
HETATM   23  H5* UNL     1     -11.125   5.986  68.938  1.00  0.00     0.000 HD 
ENDBRANCH  14  21
ENDBRANCH   8  12
TORSDOF 2
ENDMDL
MODEL       43
REMARK 921   NORMALIZED FREE ENERGY PREDICTED BY IDOCK:   -5.03 KCAL/MOL
REMARK 922        TOTAL FREE ENERGY PREDICTED BY IDOCK:   -5.59 KCAL/MOL
REMARK 923 INTER-LIGAND FREE ENERGY PREDICTED BY IDOCK:   -5.64 KCAL/MOL
REMARK 924 INTRA-LIGAND FREE ENERGY PREDICTED BY IDOCK:    0.05 KCAL/MOL
REMARK 927      BINDING AFFINITY PREDICTED BY RF-SCORE:    0.00 PKD
ROOT
HETATM    1  N   UNL     1     -10.136  10.495  67.915  1.00  0.00    -0.171 NA 
HETATM    2  H2  UNL     1      -9.709   9.666  68.331  1.00  0.00     0.000 HD 
HETATM    3  C   UNL     1     -10.997  11.249  68.637  1.00  0.00    -0.218 C  
HETATM    4  H1  UNL     1      -9.914  10.755  66.954  1.00  0.00     0.000 HD 
HETATM    5  N   UNL     1     -11.277  10.920  69.851  1.00  0.00    -0.339 N  
HETATM    6  C   UNL     1     -12.142  11.724  70.545  1.00  0.00    -0.347 C  
HETATM    7  H   UNL     1     -10.867  10.090  70.281  1.00  0.00     0.000 HD 
HETATM    8  N   UNL     1     -12.248  13.023  70.135  1.00  0.00    -0.305 N  
HETATM    9  O   UNL     1     -12.795  11.285  71.483  1.00  0.00    -0.416 OA 
HETATM   10  N   UNL     1     -11.543  12.325  68.021  1.00  0.00    -0.329 NA 
HETATM   11  C   UNL     1     -12.123  13.174  68.791  1.00  0.00    -0.191 C  
ENDROOT
BRANCH   8  12
HETATM   12  C1* UNL     1     -13.017  14.005  70.868  1.00  0.00    -0.277 C  
HETATM   13  O4* UNL     1     -12.804  15.276  70.211  1.00  0.00    -0.341 OA 
HETATM   14  C4* UNL     1     -11.701  15.942  70.874  1.00  0.00    -0.420 C  
HETATM   15  C3* UNL     1     -11.724  15.483  72.326  1.00  0.00    -0.482 C  
HETATM   16  H2* UNL     1     -13.720  14.915  73.964  1.00  0.00     0.000 HD 
HETATM   17  C2* UNL     1     -12.710  14.312  72.353  1.00  0.00    -0.292 C  
HETATM   18  O3* UNL     1     -12.125  16.569  73.166  1.00  0.00    -0.513 OA 
HETATM   19  O2* UNL     1     -13.908  14.726  73.052  1.00  0.00    -0.508 OA 
HETATM   20  H3* UNL     1     -12.139  16.282  74.072  1.00  0.00     0.000 HD 
BRANCH  14  21
HETATM   21  C5* UNL     1     -10.365  15.584  70.202  1.00  0.00    -0.262 C  
HETATM   22  O5* UNL     1     -10.252  16.226  68.937  1.00  0.00    -0.228 OA 
HETATM   23  H5* UNL     1      -9.427  16.004  68.522  1.00  0.00     0.000 HD 
ENDBRANCH  14  21
ENDBRANCH   8  12
TORSDOF 2
ENDMDL
MODEL       44
REMARK 921   NORMALIZED FREE ENERGY PREDICTED BY IDOCK:   -5.00 KCAL/MOL
REMARK 922        TOTAL FREE ENERGY PREDICTED BY IDOCK:   -5.56 KCAL/MOL
REMARK 923 INTER-LIGAND FREE ENERGY PREDICTED BY IDOCK:   -5.49 KCAL/MOL
REMARK 924 INTRA-LIGAND FREE ENERGY PREDICTED BY IDOCK:   -0.07 KCAL/MOL
REMARK 927      BINDING AFFINITY PREDICTED BY RF-SCORE:    0.00 PKD
ROOT
HETATM    1  N   UNL     1     -12.578  13.801  62.853  1.00  0.00    -0.787 NA 
HETATM    2  H2  UNL     1     -12.091  13.736  61.959  1.00  0.00     0.000 HD 
HETATM    3  C   UNL     1     -12.029  13.259  63.965  1.00  0.00    -0.465 C  
HETATM    4  H1  UNL     1     -13.480  14.274  62.910  1.00  0.00     0.000 HD 
HETATM    5  N   UNL     1     -10.890  12.661  63.893  1.00  0.00    -0.408 N  
HETATM    6  C   UNL     1     -10.370  12.141  65.049  1.00  0.00    -0.287 C  
HETATM    7  H   UNL     1     -10.393  12.578  63.006  1.00  0.00     0.000 HD 
HETATM    8  N   UNL     1     -10.791  12.697  66.225  1.00  0.00    -0.268 N  
HETATM    9  O   UNL     1      -9.572  11.213  65.020  1.00  0.00    -0.222 OA 
HETATM   10  N   UNL     1     -12.735  13.362  65.116  1.00  0.00    -0.675 NA 
HETATM   11  C   UNL     1     -12.087  13.101  66.194  1.00  0.00    -0.417 C  
ENDROOT
BRANCH   8  12
HETATM   12  C1* UNL     1     -10.214  12.335  67.501  1.00  0.00    -0.204 C  
HETATM   13  O4* UNL     1     -10.696  13.300  68.465  1.00  0.00    -0.250 OA 
HETATM   14  C4* UNL     1      -9.720  14.367  68.555  1.00  0.00    -0.225 C  
HETATM   15  C3* UNL     1      -8.362  13.743  68.258  1.00  0.00    -0.161 C  
HETATM   16  H2* UNL     1      -7.351  11.370  68.834  1.00  0.00     0.000 HD 
HETATM   17  C2* UNL     1      -8.682  12.347  67.716  1.00  0.00    -0.176 C  
HETATM   18  O3* UNL     1      -7.578  13.710  69.454  1.00  0.00    -0.327 OA 
HETATM   19  O2* UNL     1      -8.292  11.362  68.702  1.00  0.00    -0.153 OA 
HETATM   20  H3* UNL     1      -6.732  13.320  69.268  1.00  0.00     0.000 HD 
BRANCH  14  21
HETATM   21  C5* UNL     1     -10.043  15.487  67.552  1.00  0.00    -0.241 C  
HETATM   22  O5* UNL     1      -8.904  15.789  66.753  1.00  0.00    -0.220 OA 
HETATM   23  H5* UNL     1      -9.104  16.481  66.134  1.00  0.00     0.000 HD 
ENDBRANCH  14  21
ENDBRANCH   8  12
TORSDOF 2
ENDMDL
MODEL       45
REMARK 921   NORMALIZED FREE ENERGY PREDICTED BY IDOCK:   -5.00 KCAL/MOL
REMARK 922        TOTAL FREE ENERGY PREDICTED BY IDOCK:   -5.56 KCAL/MOL
REMARK 923 INTER-LIGAND FREE ENERGY PREDICTED BY IDOCK:   -5.51 KCAL/MOL
REMARK 924 INTRA-LIGAND FREE ENERGY PREDICTED BY IDOCK:   -0.04 KCAL/MOL
REMARK 927      BINDING AFFINITY PREDICTED BY RF-SCORE:    0.00 PKD
ROOT
HETATM    1  N   UNL     1     -11.994  11.611  67.739  1.00  0.00    -0.623 NA 
HETATM    2  H2  UNL     1     -12.985  11.773  67.559  1.00  0.00     0.000 HD 
HETATM    3  C   UNL     1     -11.605  10.981  68.873  1.00  0.00    -0.314 C  
HETATM    4  H1  UNL     1     -11.295  11.922  67.065  1.00  0.00     0.000 HD 
HETATM    5  N   UNL     1     -12.488  10.588  69.724  1.00  0.00    -0.547 N  
HETATM    6  C   UNL     1     -12.045   9.943  70.849  1.00  0.00    -0.341 C  
HETATM    7  H   UNL     1     -13.483  10.750  69.566  1.00  0.00     0.000 HD 
HETATM    8  N   UNL     1     -10.829   9.324  70.772  1.00  0.00    -0.258 N  
HETATM    9  O   UNL     1     -12.712   9.936  71.876  1.00  0.00    -0.394 OA 
HETATM   10  N   UNL     1     -10.275  10.813  69.061  1.00  0.00    -0.206 NA 
HETATM   11  C   UNL     1      -9.941   9.981  69.981  1.00  0.00    -0.222 C  
ENDROOT
BRANCH   8  12
HETATM   12  C1* UNL     1     -10.315   8.495  71.840  1.00  0.00    -0.308 C  
HETATM   13  O4* UNL     1      -9.355   7.593  71.241  1.00  0.00    -0.148 OA 
HETATM   14  C4* UNL     1     -10.048   6.368  70.896  1.00  0.00    -0.187 C  
HETATM   15  C3* UNL     1     -11.178   6.206  71.904  1.00  0.00    -0.284 C  
HETATM   16  H2* UNL     1     -11.340   6.791  74.477  1.00  0.00     0.000 HD 
HETATM   17  C2* UNL     1     -11.248   7.550  72.635  1.00  0.00    -0.348 C  
HETATM   18  O3* UNL     1     -10.887   5.111  72.778  1.00  0.00    -0.228 OA 
HETATM   19  O2* UNL     1     -10.767   7.372  73.989  1.00  0.00    -0.254 OA 
HETATM   20  H3* UNL     1     -11.592   5.011  73.407  1.00  0.00     0.000 HD 
BRANCH  14  21
HETATM   21  C5* UNL     1     -10.595   6.438  69.460  1.00  0.00    -0.253 C  
HETATM   22  O5* UNL     1     -12.015   6.536  69.470  1.00  0.00    -0.601 OA 
HETATM   23  H5* UNL     1     -12.353   6.579  68.583  1.00  0.00     0.000 HD 
ENDBRANCH  14  21
ENDBRANCH   8  12
TORSDOF 2
ENDMDL
MODEL       46
REMARK 921   NORMALIZED FREE ENERGY PREDICTED BY IDOCK:   -5.00 KCAL/MOL
REMARK 922        TOTAL FREE ENERGY PREDICTED BY IDOCK:   -5.56 KCAL/MOL
REMARK 923 INTER-LIGAND FREE ENERGY PREDICTED BY IDOCK:   -5.52 KCAL/MOL
REMARK 924 INTRA-LIGAND FREE ENERGY PREDICTED BY IDOCK:   -0.04 KCAL/MOL
REMARK 927      BINDING AFFINITY PREDICTED BY RF-SCORE:    0.00 PKD
ROOT
HETATM    1  N   UNL     1     -12.471  13.997  63.152  1.00  0.00    -1.070 NA 
HETATM    2  H2  UNL     1     -12.151  14.217  62.208  1.00  0.00     0.000 HD 
HETATM    3  C   UNL     1     -11.890  12.992  63.848  1.00  0.00    -0.477 C  
HETATM    4  H1  UNL     1     -13.228  14.535  63.572  1.00  0.00     0.000 HD 
HETATM    5  N   UNL     1     -10.933  12.312  63.316  1.00  0.00    -0.655 N  
HETATM    6  C   UNL     1     -10.368  11.315  64.066  1.00  0.00    -0.371 C  
HETATM    7  H   UNL     1     -10.607  12.511  62.370  1.00  0.00     0.000 HD 
HETATM    8  N   UNL     1     -10.473  11.423  65.425  1.00  0.00    -0.272 N  
HETATM    9  O   UNL     1      -9.805  10.367  63.533  1.00  0.00    -0.309 OA 
HETATM   10  N   UNL     1     -12.372  12.740  65.087  1.00  0.00    -0.484 NA 
HETATM   11  C   UNL     1     -11.640  11.989  65.830  1.00  0.00    -0.290 C  
ENDROOT
BRANCH   8  12
HETATM   12  C1* UNL     1      -9.802  10.514  66.326  1.00  0.00    -0.217 C  
HETATM   13  O4* UNL     1      -9.999  11.031  67.663  1.00  0.00    -0.170 OA 
HETATM   14  C4* UNL     1      -8.864  11.872  67.989  1.00  0.00    -0.177 C  
HETATM   15  C3* UNL     1      -7.670  11.307  67.229  1.00  0.00    -0.138 C  
HETATM   16  H2* UNL     1      -6.977   8.828  66.628  1.00  0.00     0.000 HD 
HETATM   17  C2* UNL     1      -8.271  10.297  66.247  1.00  0.00    -0.131 C  
HETATM   18  O3* UNL     1      -6.754  10.711  68.151  1.00  0.00    -0.063 OA 
HETATM   19  O2* UNL     1      -7.917   8.961  66.676  1.00  0.00    -0.102 OA 
HETATM   20  H3* UNL     1      -6.010  10.359  67.677  1.00  0.00     0.000 HD 
BRANCH  14  21
HETATM   21  C5* UNL     1      -9.134  13.331  67.586  1.00  0.00    -0.204 C  
HETATM   22  O5* UNL     1      -8.074  13.833  66.780  1.00  0.00    -0.387 OA 
HETATM   23  H5* UNL     1      -8.241  14.735  66.532  1.00  0.00     0.000 HD 
ENDBRANCH  14  21
ENDBRANCH   8  12
TORSDOF 2
ENDMDL
MODEL       47
REMARK 921   NORMALIZED FREE ENERGY PREDICTED BY IDOCK:   -4.99 KCAL/MOL
REMARK 922        TOTAL FREE ENERGY PREDICTED BY IDOCK:   -5.55 KCAL/MOL
REMARK 923 INTER-LIGAND FREE ENERGY PREDICTED BY IDOCK:   -5.78 KCAL/MOL
REMARK 924 INTRA-LIGAND FREE ENERGY PREDICTED BY IDOCK:    0.23 KCAL/MOL
REMARK 927      BINDING AFFINITY PREDICTED BY RF-SCORE:    0.00 PKD
ROOT
HETATM    1  N   UNL     1     -11.330  15.092  71.628  1.00  0.00    -0.555 NA 
HETATM    2  H2  UNL     1     -12.188  14.801  72.099  1.00  0.00     0.000 HD 
HETATM    3  C   UNL     1     -11.108  14.733  70.342  1.00  0.00    -0.118 C  
HETATM    4  H1  UNL     1     -10.639  15.652  72.126  1.00  0.00     0.000 HD 
HETATM    5  N   UNL     1     -11.981  14.025  69.712  1.00  0.00    -0.315 N  
HETATM    6  C   UNL     1     -11.717  13.700  68.408  1.00  0.00    -0.358 C  
HETATM    7  H   UNL     1     -12.840  13.717  70.170  1.00  0.00     0.000 HD 
HETATM    8  N   UNL     1     -10.862  14.519  67.725  1.00  0.00    -0.259 N  
HETATM    9  O   UNL     1     -12.220  12.712  67.890  1.00  0.00    -0.311 OA 
HETATM   10  N   UNL     1      -9.943  15.135  69.781  1.00  0.00    -0.185 NA 
HETATM   11  C   UNL     1      -9.874  15.034  68.502  1.00  0.00    -0.217 C  
ENDROOT
BRANCH   8  12
HETATM   12  C1* UNL     1     -10.613  14.366  66.309  1.00  0.00    -0.292 C  
HETATM   13  O4* UNL     1      -9.611  15.348  65.954  1.00  0.00    -0.319 OA 
HETATM   14  C4* UNL     1     -10.296  16.542  65.499  1.00  0.00    -0.284 C  
HETATM   15  C3* UNL     1     -11.606  16.081  64.872  1.00  0.00    -0.009 C  
HETATM   16  H2* UNL     1     -12.223  13.935  63.458  1.00  0.00     0.000 HD 
HETATM   17  C2* UNL     1     -11.735  14.607  65.270  1.00  0.00    -0.346 C  
HETATM   18  O3* UNL     1     -11.553  16.273  63.456  1.00  0.00    -1.238 OA 
HETATM   19  O2* UNL     1     -11.534  13.787  64.095  1.00  0.00    -0.364 OA 
HETATM   20  H3* UNL     1     -12.370  15.985  63.066  1.00  0.00     0.000 HD 
BRANCH  14  21
HETATM   21  C5* UNL     1     -10.553  17.502  66.671  1.00  0.00    -0.198 C  
HETATM   22  O5* UNL     1     -10.479  18.856  66.236  1.00  0.00    -0.417 OA 
HETATM   23  H5* UNL     1     -10.637  19.449  66.961  1.00  0.00     0.000 HD 
ENDBRANCH  14  21
ENDBRANCH   8  12
TORSDOF 2
ENDMDL
MODEL       48
REMARK 921   NORMALIZED FREE ENERGY PREDICTED BY IDOCK:   -4.97 KCAL/MOL
REMARK 922        TOTAL FREE ENERGY PREDICTED BY IDOCK:   -5.53 KCAL/MOL
REMARK 923 INTER-LIGAND FREE ENERGY PREDICTED BY IDOCK:   -5.59 KCAL/MOL
REMARK 924 INTRA-LIGAND FREE ENERGY PREDICTED BY IDOCK:    0.06 KCAL/MOL
REMARK 927      BINDING AFFINITY PREDICTED BY RF-SCORE:    0.00 PKD
ROOT
HETATM    1  N   UNL     1      -8.809  11.531  65.733  1.00  0.00    -0.370 NA 
HETATM    2  H2  UNL     1      -8.485  10.603  66.008  1.00  0.00     0.000 HD 
HETATM    3  C   UNL     1      -9.801  12.136  66.428  1.00  0.00    -0.227 C  
HETATM    4  H1  UNL     1      -8.385  12.004  64.936  1.00  0.00     0.000 HD 
HETATM    5  N   UNL     1     -10.336  11.538  67.436  1.00  0.00    -0.202 N  
HETATM    6  C   UNL     1     -11.327  12.198  68.115  1.00  0.00    -0.293 C  
HETATM    7  H   UNL     1     -10.032  10.607  67.719  1.00  0.00     0.000 HD 
HETATM    8  N   UNL     1     -11.337  13.562  68.029  1.00  0.00    -0.269 N  
HETATM    9  O   UNL     1     -12.168  11.583  68.757  1.00  0.00    -0.457 OA 
HETATM   10  N   UNL     1     -10.197  13.358  66.001  1.00  0.00    -0.295 NA 
HETATM   11  C   UNL     1     -10.926  14.028  66.821  1.00  0.00    -0.297 C  
ENDROOT
BRANCH   8  12
HETATM   12  C1* UNL     1     -12.240  14.379  68.808  1.00  0.00    -0.165 C  
HETATM   13  O4* UNL     1     -11.965  15.756  68.458  1.00  0.00    -0.314 OA 
HETATM   14  C4* UNL     1     -11.001  16.274  69.407  1.00  0.00    -0.337 C  
HETATM   15  C3* UNL     1     -11.237  15.534  70.718  1.00  0.00    -0.354 C  
HETATM   16  H2* UNL     1     -13.447  14.654  71.870  1.00  0.00     0.000 HD 
HETATM   17  C2* UNL     1     -12.180  14.383  70.355  1.00  0.00    -0.338 C  
HETATM   18  O3* UNL     1     -11.798  16.431  71.680  1.00  0.00    -0.640 OA 
HETATM   19  O2* UNL     1     -13.485  14.651  70.921  1.00  0.00    -0.361 OA 
HETATM   20  H3* UNL     1     -11.945  15.969  72.497  1.00  0.00     0.000 HD 
BRANCH  14  21
HETATM   21  C5* UNL     1      -9.566  16.054  68.900  1.00  0.00    -0.236 C  
HETATM   22  O5* UNL     1      -8.865  15.154  69.753  1.00  0.00    -0.439 OA 
HETATM   23  H5* UNL     1      -7.979  15.019  69.439  1.00  0.00     0.000 HD 
ENDBRANCH  14  21
ENDBRANCH   8  12
TORSDOF 2
ENDMDL
MODEL       49
REMARK 921   NORMALIZED FREE ENERGY PREDICTED BY IDOCK:   -4.97 KCAL/MOL
REMARK 922        TOTAL FREE ENERGY PREDICTED BY IDOCK:   -5.53 KCAL/MOL
REMARK 923 INTER-LIGAND FREE ENERGY PREDICTED BY IDOCK:   -5.51 KCAL/MOL
REMARK 924 INTRA-LIGAND FREE ENERGY PREDICTED BY IDOCK:   -0.02 KCAL/MOL
REMARK 927      BINDING AFFINITY PREDICTED BY RF-SCORE:    0.00 PKD
ROOT
HETATM    1  N   UNL     1      -8.887   8.456  63.962  1.00  0.00    -0.333 NA 
HETATM    2  H2  UNL     1      -9.474   8.100  63.207  1.00  0.00     0.000 HD 
HETATM    3  C   UNL     1      -9.058   9.720  64.415  1.00  0.00    -0.248 C  
HETATM    4  H1  UNL     1      -8.171   7.860  64.376  1.00  0.00     0.000 HD 
HETATM    5  N   UNL     1      -9.963  10.473  63.892  1.00  0.00    -0.380 N  
HETATM    6  C   UNL     1     -10.107  11.739  64.395  1.00  0.00    -0.282 C  
HETATM    7  H   UNL     1     -10.553  10.138  63.130  1.00  0.00     0.000 HD 
HETATM    8  N   UNL     1      -9.682  11.950  65.677  1.00  0.00    -0.233 N  
HETATM    9  O   UNL     1     -10.586  12.637  63.715  1.00  0.00    -0.417 OA 
HETATM   10  N   UNL     1      -8.235  10.138  65.406  1.00  0.00    -0.145 NA 
HETATM   11  C   UNL     1      -8.589  11.216  66.009  1.00  0.00    -0.154 C  
ENDROOT
BRANCH   8  12
HETATM   12  C1* UNL     1      -9.906  13.200  66.369  1.00  0.00    -0.279 C  
HETATM   13  O4* UNL     1      -9.646  12.953  67.771  1.00  0.00    -0.198 OA 
HETATM   14  C4* UNL     1     -10.903  12.610  68.405  1.00  0.00    -0.245 C  
HETATM   15  C3* UNL     1     -11.994  13.344  67.637  1.00  0.00    -0.322 C  
HETATM   16  H2* UNL     1     -12.039  15.719  66.478  1.00  0.00     0.000 HD 
HETATM   17  C2* UNL     1     -11.302  13.869  66.376  1.00  0.00    -0.328 C  
HETATM   18  O3* UNL     1     -12.534  14.388  68.452  1.00  0.00    -0.583 OA 
HETATM   19  O2* UNL     1     -11.182  15.309  66.474  1.00  0.00    -0.316 OA 
HETATM   20  H3* UNL     1     -13.215  14.845  67.972  1.00  0.00     0.000 HD 
BRANCH  14  21
HETATM   21  C5* UNL     1     -11.132  11.089  68.372  1.00  0.00    -0.251 C  
HETATM   22  O5* UNL     1     -12.504  10.785  68.596  1.00  0.00    -0.793 OA 
HETATM   23  H5* UNL     1     -12.645   9.845  68.576  1.00  0.00     0.000 HD 
ENDBRANCH  14  21
ENDBRANCH   8  12
TORSDOF 2
ENDMDL
MODEL       50
REMARK 921   NORMALIZED FREE ENERGY PREDICTED BY IDOCK:   -4.84 KCAL/MOL
REMARK 922        TOTAL FREE ENERGY PREDICTED BY IDOCK:   -5.38 KCAL/MOL
REMARK 923 INTER-LIGAND FREE ENERGY PREDICTED BY IDOCK:   -5.78 KCAL/MOL
REMARK 924 INTRA-LIGAND FREE ENERGY PREDICTED BY IDOCK:    0.40 KCAL/MOL
REMARK 927      BINDING AFFINITY PREDICTED BY RF-SCORE:    0.00 PKD
ROOT
HETATM    1  N   UNL     1     -12.441  13.962  62.969  1.00  0.00    -1.009 NA 
HETATM    2  H2  UNL     1     -13.407  14.282  62.889  1.00  0.00     0.000 HD 
HETATM    3  C   UNL     1     -11.929  13.645  64.181  1.00  0.00    -0.443 C  
HETATM    4  H1  UNL     1     -11.860  13.879  62.134  1.00  0.00     0.000 HD 
HETATM    5  N   UNL     1     -12.663  13.749  65.235  1.00  0.00    -0.672 N  
HETATM    6  C   UNL     1     -12.103  13.403  66.437  1.00  0.00    -0.409 C  
HETATM    7  H   UNL     1     -13.627  14.077  65.177  1.00  0.00     0.000 HD 
HETATM    8  N   UNL     1     -11.051  12.531  66.405  1.00  0.00    -0.277 N  
HETATM    9  O   UNL     1     -12.527  13.870  67.487  1.00  0.00    -0.177 OA 
HETATM   10  N   UNL     1     -10.636  13.245  64.220  1.00  0.00    -0.419 NA 
HETATM   11  C   UNL     1     -10.256  12.688  65.314  1.00  0.00    -0.284 C  
ENDROOT
BRANCH   8  12
HETATM   12  C1* UNL     1     -10.466  11.982  67.607  1.00  0.00    -0.205 C  
HETATM   13  O4* UNL     1      -9.250  11.307  67.208  1.00  0.00    -0.163 OA 
HETATM   14  C4* UNL     1      -9.569   9.914  66.969  1.00  0.00    -0.175 C  
HETATM   15  C3* UNL     1     -10.727   9.566  67.897  1.00  0.00    -0.228 C  
HETATM   16  H2* UNL     1     -11.313  10.352  70.352  1.00  0.00     0.000 HD 
HETATM   17  C2* UNL     1     -11.213  10.913  68.441  1.00  0.00    -0.285 C  
HETATM   18  O3* UNL     1     -10.268   8.683  68.925  1.00  0.00    -0.198 OA 
HETATM   19  O2* UNL     1     -10.855  11.008  69.840  1.00  0.00    -0.206 OA 
HETATM   20  H3* UNL     1     -10.990   8.467  69.503  1.00  0.00     0.000 HD 
BRANCH  14  21
HETATM   21  C5* UNL     1      -9.955   9.688  65.498  1.00  0.00    -0.209 C  
HETATM   22  O5* UNL     1      -9.125   8.693  64.909  1.00  0.00    -0.426 OA 
HETATM   23  H5* UNL     1      -9.364   8.554  64.000  1.00  0.00     0.000 HD 
ENDBRANCH  14  21
ENDBRANCH   8  12
TORSDOF 2
ENDMDL
MODEL       51
REMARK 921   NORMALIZED FREE ENERGY PREDICTED BY IDOCK:   -4.83 KCAL/MOL
REMARK 922        TOTAL FREE ENERGY PREDICTED BY IDOCK:   -5.38 KCAL/MOL
REMARK 923 INTER-LIGAND FREE ENERGY PREDICTED BY IDOCK:   -5.40 KCAL/MOL
REMARK 924 INTRA-LIGAND FREE ENERGY PREDICTED BY IDOCK:    0.02 KCAL/MOL
REMARK 927      BINDING AFFINITY PREDICTED BY RF-SCORE:    0.00 PKD
ROOT
HETATM    1  N   UNL     1     -10.419   9.067  66.950  1.00  0.00    -0.250 NA 
HETATM    2  H2  UNL     1      -9.552   8.539  66.840  1.00  0.00     0.000 HD 
HETATM    3  C   UNL     1     -10.379  10.369  67.318  1.00  0.00    -0.228 C  
HETATM    4  H1  UNL     1     -11.317   8.613  66.782  1.00  0.00     0.000 HD 
HETATM    5  N   UNL     1      -9.244  10.942  67.529  1.00  0.00    -0.147 N  
HETATM    6  C   UNL     1      -9.256  12.264  67.885  1.00  0.00    -0.190 C  
HETATM    7  H   UNL     1      -8.367  10.428  67.434  1.00  0.00     0.000 HD 
HETATM    8  N   UNL     1     -10.347  12.998  67.514  1.00  0.00    -0.223 N  
HETATM    9  O   UNL     1      -8.329  12.754  68.518  1.00  0.00    -0.137 OA 
HETATM   10  N   UNL     1     -11.564  11.006  67.464  1.00  0.00    -0.543 NA 
HETATM   11  C   UNL     1     -11.504  12.288  67.534  1.00  0.00    -0.347 C  
ENDROOT
BRANCH   8  12
HETATM   12  C1* UNL     1     -10.417  14.430  67.706  1.00  0.00    -0.245 C  
HETATM   13  O4* UNL     1     -11.452  14.919  66.821  1.00  0.00    -0.347 OA 
HETATM   14  C4* UNL     1     -10.825  15.320  65.578  1.00  0.00    -0.372 C  
HETATM   15  C3* UNL     1      -9.416  15.782  65.929  1.00  0.00    -0.342 C  
HETATM   16  H2* UNL     1      -8.456  17.068  68.029  1.00  0.00     0.000 HD 
HETATM   17  C2* UNL     1      -9.207  15.338  67.380  1.00  0.00    -0.195 C  
HETATM   18  O3* UNL     1      -9.321  17.199  65.760  1.00  0.00    -0.523 OA 
HETATM   19  O2* UNL     1      -9.199  16.510  68.230  1.00  0.00    -0.204 OA 
HETATM   20  H3* UNL     1      -8.442  17.487  65.979  1.00  0.00     0.000 HD 
BRANCH  14  21
HETATM   21  C5* UNL     1     -10.790  14.148  64.584  1.00  0.00    -0.386 C  
HETATM   22  O5* UNL     1     -11.813  14.290  63.605  1.00  0.00    -0.717 OA 
HETATM   23  H5* UNL     1     -11.791  13.565  62.991  1.00  0.00     0.000 HD 
ENDBRANCH  14  21
ENDBRANCH   8  12
TORSDOF 2
ENDMDL
MODEL       52
REMARK 921   NORMALIZED FREE ENERGY PREDICTED BY IDOCK:   -4.82 KCAL/MOL
REMARK 922        TOTAL FREE ENERGY PREDICTED BY IDOCK:   -5.36 KCAL/MOL
REMARK 923 INTER-LIGAND FREE ENERGY PREDICTED BY IDOCK:   -5.59 KCAL/MOL
REMARK 924 INTRA-LIGAND FREE ENERGY PREDICTED BY IDOCK:    0.23 KCAL/MOL
REMARK 927      BINDING AFFINITY PREDICTED BY RF-SCORE:    0.00 PKD
ROOT
HETATM    1  N   UNL     1      -9.030  16.801  65.881  1.00  0.00    -0.517 NA 
HETATM    2  H2  UNL     1      -8.260  17.152  66.451  1.00  0.00     0.000 HD 
HETATM    3  C   UNL     1      -9.335  15.482  65.892  1.00  0.00    -0.319 C  
HETATM    4  H1  UNL     1      -9.572  17.443  65.303  1.00  0.00     0.000 HD 
HETATM    5  N   UNL     1      -8.651  14.671  66.623  1.00  0.00    -0.433 N  
HETATM    6  C   UNL     1      -9.007  13.348  66.611  1.00  0.00    -0.122 C  
HETATM    7  H   UNL     1      -7.871  15.002  67.191  1.00  0.00     0.000 HD 
HETATM    8  N   UNL     1     -10.298  13.055  66.267  1.00  0.00    -0.279 N  
HETATM    9  O   UNL     1      -8.196  12.474  66.886  1.00  0.00    -0.156 OA 
HETATM   10  N   UNL     1     -10.356  15.078  65.101  1.00  0.00    -0.394 NA 
HETATM   11  C   UNL     1     -10.809  13.898  65.332  1.00  0.00    -0.319 C  
ENDROOT
BRANCH   8  12
HETATM   12  C1* UNL     1     -10.835  11.716  66.352  1.00  0.00    -0.287 C  
HETATM   13  O4* UNL     1     -12.138  11.828  66.970  1.00  0.00    -0.575 OA 
HETATM   14  C4* UNL     1     -11.975  11.635  68.397  1.00  0.00    -0.196 C  
HETATM   15  C3* UNL     1     -10.786  10.700  68.578  1.00  0.00    -0.233 C  
HETATM   16  H2* UNL     1      -9.932   8.642  67.155  1.00  0.00     0.000 HD 
HETATM   17  C2* UNL     1     -10.130  10.626  67.196  1.00  0.00    -0.207 C  
HETATM   18  O3* UNL     1     -11.244   9.428  69.046  1.00  0.00    -0.441 OA 
HETATM   19  O2* UNL     1     -10.364   9.311  66.637  1.00  0.00    -0.259 OA 
HETATM   20  H3* UNL     1     -10.503   8.845  69.158  1.00  0.00     0.000 HD 
BRANCH  14  21
HETATM   21  C5* UNL     1     -11.732  12.979  69.103  1.00  0.00    -0.326 C  
HETATM   22  O5* UNL     1     -11.670  12.800  70.514  1.00  0.00    -0.531 OA 
HETATM   23  H5* UNL     1     -11.520  13.631  70.950  1.00  0.00     0.000 HD 
ENDBRANCH  14  21
ENDBRANCH   8  12
TORSDOF 2
ENDMDL
MODEL       53
REMARK 921   NORMALIZED FREE ENERGY PREDICTED BY IDOCK:   -4.79 KCAL/MOL
REMARK 922        TOTAL FREE ENERGY PREDICTED BY IDOCK:   -5.33 KCAL/MOL
REMARK 923 INTER-LIGAND FREE ENERGY PREDICTED BY IDOCK:   -5.58 KCAL/MOL
REMARK 924 INTRA-LIGAND FREE ENERGY PREDICTED BY IDOCK:    0.26 KCAL/MOL
REMARK 927      BINDING AFFINITY PREDICTED BY RF-SCORE:    0.00 PKD
ROOT
HETATM    1  N   UNL     1     -12.552  14.299  63.450  1.00  0.00    -1.004 NA 
HETATM    2  H2  UNL     1     -12.897  15.192  63.806  1.00  0.00     0.000 HD 
HETATM    3  C   UNL     1     -11.544  13.660  64.088  1.00  0.00    -0.352 C  
HETATM    4  H1  UNL     1     -12.966  13.889  62.614  1.00  0.00     0.000 HD 
HETATM    5  N   UNL     1     -11.020  14.179  65.145  1.00  0.00    -0.336 N  
HETATM    6  C   UNL     1     -10.012  13.486  65.762  1.00  0.00    -0.252 C  
HETATM    7  H   UNL     1     -11.346  15.074  65.510  1.00  0.00     0.000 HD 
HETATM    8  N   UNL     1      -9.970  12.135  65.556  1.00  0.00    -0.248 N  
HETATM    9  O   UNL     1      -9.185  14.062  66.456  1.00  0.00    -0.270 OA 
HETATM   10  N   UNL     1     -11.119  12.490  63.555  1.00  0.00    -0.462 NA 
HETATM   11  C   UNL     1     -10.373  11.769  64.312  1.00  0.00    -0.314 C  
ENDROOT
BRANCH   8  12
HETATM   12  C1* UNL     1      -9.045  11.275  66.260  1.00  0.00    -0.199 C  
HETATM   13  O4* UNL     1      -9.802  10.125  66.705  1.00  0.00    -0.179 OA 
HETATM   14  C4* UNL     1     -10.266  10.389  68.052  1.00  0.00    -0.169 C  
HETATM   15  C3* UNL     1      -9.230  11.300  68.699  1.00  0.00    -0.161 C  
HETATM   16  H2* UNL     1      -6.599  11.415  68.474  1.00  0.00     0.000 HD 
HETATM   17  C2* UNL     1      -8.331  11.755  67.546  1.00  0.00    -0.154 C  
HETATM   18  O3* UNL     1      -8.519  10.576  69.708  1.00  0.00    -0.382 OA 
HETATM   19  O2* UNL     1      -7.037  11.120  67.684  1.00  0.00    -0.083 OA 
HETATM   20  H3* UNL     1      -7.874  11.145  70.112  1.00  0.00     0.000 HD 
BRANCH  14  21
HETATM   21  C5* UNL     1     -11.651  11.057  68.030  1.00  0.00    -0.249 C  
HETATM   22  O5* UNL     1     -12.474  10.537  69.068  1.00  0.00    -0.770 OA 
HETATM   23  H5* UNL     1     -13.330  10.950  69.054  1.00  0.00     0.000 HD 
ENDBRANCH  14  21
ENDBRANCH   8  12
TORSDOF 2
ENDMDL
MODEL       54
REMARK 921   NORMALIZED FREE ENERGY PREDICTED BY IDOCK:   -4.78 KCAL/MOL
REMARK 922        TOTAL FREE ENERGY PREDICTED BY IDOCK:   -5.32 KCAL/MOL
REMARK 923 INTER-LIGAND FREE ENERGY PREDICTED BY IDOCK:   -5.34 KCAL/MOL
REMARK 924 INTRA-LIGAND FREE ENERGY PREDICTED BY IDOCK:    0.02 KCAL/MOL
REMARK 927      BINDING AFFINITY PREDICTED BY RF-SCORE:    0.00 PKD
ROOT
HETATM    1  N   UNL     1     -10.601  10.746  62.950  1.00  0.00    -0.709 NA 
HETATM    2  H2  UNL     1     -11.439  10.678  62.372  1.00  0.00     0.000 HD 
HETATM    3  C   UNL     1     -10.644  11.404  64.132  1.00  0.00    -0.369 C  
HETATM    4  H1  UNL     1      -9.730  10.318  62.638  1.00  0.00     0.000 HD 
HETATM    5  N   UNL     1     -11.745  11.945  64.527  1.00  0.00    -0.286 N  
HETATM    6  C   UNL     1     -11.741  12.587  65.737  1.00  0.00    -0.426 C  
HETATM    7  H   UNL     1     -12.591  11.896  63.957  1.00  0.00     0.000 HD 
HETATM    8  N   UNL     1     -10.792  12.201  66.642  1.00  0.00    -0.256 N  
HETATM    9  O   UNL     1     -12.549  13.473  65.982  1.00  0.00    -0.420 OA 
HETATM   10  N   UNL     1      -9.494  11.473  64.843  1.00  0.00    -0.179 NA 
HETATM   11  C   UNL     1      -9.614  11.845  66.067  1.00  0.00    -0.235 C  
ENDROOT
BRANCH   8  12
HETATM   12  C1* UNL     1     -10.771  12.700  67.999  1.00  0.00    -0.226 C  
HETATM   13  O4* UNL     1      -9.812  11.895  68.724  1.00  0.00    -0.169 OA 
HETATM   14  C4* UNL     1     -10.529  10.803  69.352  1.00  0.00    -0.200 C  
HETATM   15  C3* UNL     1     -11.932  11.317  69.649  1.00  0.00    -0.353 C  
HETATM   16  H2* UNL     1     -12.817  13.693  70.393  1.00  0.00     0.000 HD 
HETATM   17  C2* UNL     1     -12.035  12.642  68.890  1.00  0.00    -0.242 C  
HETATM   18  O3* UNL     1     -12.096  11.469  71.062  1.00  0.00    -0.307 OA 
HETATM   19  O2* UNL     1     -12.041  13.729  69.846  1.00  0.00    -0.317 OA 
HETATM   20  H3* UNL     1     -12.971  11.789  71.247  1.00  0.00     0.000 HD 
BRANCH  14  21
HETATM   21  C5* UNL     1     -10.575   9.578  68.424  1.00  0.00    -0.219 C  
HETATM   22  O5* UNL     1     -11.116   8.452  69.107  1.00  0.00    -0.429 OA 
HETATM   23  H5* UNL     1     -11.144   7.695  68.534  1.00  0.00     0.000 HD 
ENDBRANCH  14  21
ENDBRANCH   8  12
TORSDOF 2
ENDMDL
MODEL       55
REMARK 921   NORMALIZED FREE ENERGY PREDICTED BY IDOCK:   -4.73 KCAL/MOL
REMARK 922        TOTAL FREE ENERGY PREDICTED BY IDOCK:   -5.25 KCAL/MOL
REMARK 923 INTER-LIGAND FREE ENERGY PREDICTED BY IDOCK:   -5.26 KCAL/MOL
REMARK 924 INTRA-LIGAND FREE ENERGY PREDICTED BY IDOCK:    0.00 KCAL/MOL
REMARK 927      BINDING AFFINITY PREDICTED BY RF-SCORE:    0.00 PKD
ROOT
HETATM    1  N   UNL     1      -7.769  10.513  69.986  1.00  0.00    -0.386 NA 
HETATM    2  H2  UNL     1      -8.119   9.656  70.416  1.00  0.00     0.000 HD 
HETATM    3  C   UNL     1      -8.276  10.936  68.805  1.00  0.00    -0.151 C  
HETATM    4  H1  UNL     1      -7.037  11.053  70.448  1.00  0.00     0.000 HD 
HETATM    5  N   UNL     1      -9.201  10.254  68.222  1.00  0.00    -0.136 N  
HETATM    6  C   UNL     1      -9.691  10.731  67.035  1.00  0.00    -0.176 C  
HETATM    7  H   UNL     1      -9.557   9.390  68.631  1.00  0.00     0.000 HD 
HETATM    8  N   UNL     1      -9.566  12.073  66.805  1.00  0.00    -0.203 N  
HETATM    9  O   UNL     1     -10.207   9.979  66.219  1.00  0.00    -0.241 OA 
HETATM   10  N   UNL     1      -7.755  12.070  68.280  1.00  0.00    -0.120 NA 
HETATM   11  C   UNL     1      -8.427  12.602  67.322  1.00  0.00    -0.193 C  
ENDROOT
BRANCH   8  12
HETATM   12  C1* UNL     1     -10.165  12.719  65.659  1.00  0.00    -0.279 C  
HETATM   13  O4* UNL     1     -10.154  14.141  65.929  1.00  0.00    -0.297 OA 
HETATM   14  C4* UNL     1     -11.423  14.490  66.535  1.00  0.00    -0.362 C  
HETATM   15  C3* UNL     1     -12.455  13.518  65.977  1.00  0.00    -0.399 C  
HETATM   16  H2* UNL     1     -12.722  12.410  63.592  1.00  0.00     0.000 HD 
HETATM   17  C2* UNL     1     -11.635  12.440  65.263  1.00  0.00    -0.373 C  
HETATM   18  O3* UNL     1     -13.343  14.215  65.098  1.00  0.00    -0.684 OA 
HETATM   19  O2* UNL     1     -11.819  12.581  63.834  1.00  0.00    -0.382 OA 
HETATM   20  H3* UNL     1     -13.987  13.609  64.750  1.00  0.00     0.000 HD 
BRANCH  14  21
HETATM   21  C5* UNL     1     -11.341  14.388  68.067  1.00  0.00    -0.294 C  
HETATM   22  O5* UNL     1     -12.505  14.944  68.669  1.00  0.00    -0.582 OA 
HETATM   23  H5* UNL     1     -12.454  14.881  69.616  1.00  0.00     0.000 HD 
ENDBRANCH  14  21
ENDBRANCH   8  12
TORSDOF 2
ENDMDL
MODEL       56
REMARK 921   NORMALIZED FREE ENERGY PREDICTED BY IDOCK:   -4.72 KCAL/MOL
REMARK 922        TOTAL FREE ENERGY PREDICTED BY IDOCK:   -5.25 KCAL/MOL
REMARK 923 INTER-LIGAND FREE ENERGY PREDICTED BY IDOCK:   -5.90 KCAL/MOL
REMARK 924 INTRA-LIGAND FREE ENERGY PREDICTED BY IDOCK:    0.66 KCAL/MOL
REMARK 927      BINDING AFFINITY PREDICTED BY RF-SCORE:    0.00 PKD
ROOT
HETATM    1  N   UNL     1     -11.295  12.509  65.650  1.00  0.00    -0.320 NA 
HETATM    2  H2  UNL     1     -12.193  12.193  65.282  1.00  0.00     0.000 HD 
HETATM    3  C   UNL     1     -10.940  13.811  65.547  1.00  0.00    -0.299 C  
HETATM    4  H1  UNL     1     -10.663  11.843  66.096  1.00  0.00     0.000 HD 
HETATM    5  N   UNL     1     -11.738  14.651  64.984  1.00  0.00    -0.376 N  
HETATM    6  C   UNL     1     -11.339  15.960  64.917  1.00  0.00    -0.256 C  
HETATM    7  H   UNL     1     -12.635  14.352  64.601  1.00  0.00     0.000 HD 
HETATM    8  N   UNL     1     -10.428  16.381  65.844  1.00  0.00    -0.346 N  
HETATM    9  O   UNL     1     -11.778  16.709  64.053  1.00  0.00    -1.143 OA 
HETATM   10  N   UNL     1      -9.728  14.161  66.038  1.00  0.00    -0.296 NA 
HETATM   11  C   UNL     1      -9.529  15.422  66.188  1.00  0.00    -0.336 C  
ENDROOT
BRANCH   8  12
HETATM   12  C1* UNL     1     -10.034  17.767  65.968  1.00  0.00    -0.209 C  
HETATM   13  O4* UNL     1      -8.780  17.781  66.690  1.00  0.00    -0.245 OA 
HETATM   14  C4* UNL     1      -9.076  17.950  68.098  1.00  0.00    -0.278 C  
HETATM   15  C3* UNL     1     -10.362  18.762  68.179  1.00  0.00    -0.365 C  
HETATM   16  H2* UNL     1     -11.299  20.732  66.685  1.00  0.00     0.000 HD 
HETATM   17  C2* UNL     1     -10.909  18.778  66.748  1.00  0.00    -0.180 C  
HETATM   18  O3* UNL     1     -10.072  20.071  68.678  1.00  0.00    -0.425 OA 
HETATM   19  O2* UNL     1     -10.762  20.112  66.206  1.00  0.00    -0.351 OA 
HETATM   20  H3* UNL     1     -10.874  20.577  68.729  1.00  0.00     0.000 HD 
BRANCH  14  21
HETATM   21  C5* UNL     1      -9.241  16.585  68.787  1.00  0.00    -0.252 C  
HETATM   22  O5* UNL     1      -8.013  16.168  69.373  1.00  0.00    -0.227 OA 
HETATM   23  H5* UNL     1      -8.115  15.324  69.798  1.00  0.00     0.000 HD 
ENDBRANCH  14  21
ENDBRANCH   8  12
TORSDOF 2
ENDMDL
MODEL       57
REMARK 921   NORMALIZED FREE ENERGY PREDICTED BY IDOCK:   -4.71 KCAL/MOL
REMARK 922        TOTAL FREE ENERGY PREDICTED BY IDOCK:   -5.23 KCAL/MOL
REMARK 923 INTER-LIGAND FREE ENERGY PREDICTED BY IDOCK:   -5.27 KCAL/MOL
REMARK 924 INTRA-LIGAND FREE ENERGY PREDICTED BY IDOCK:    0.04 KCAL/MOL
REMARK 927      BINDING AFFINITY PREDICTED BY RF-SCORE:    0.00 PKD
ROOT
HETATM    1  N   UNL     1     -10.647  19.646  65.824  1.00  0.00    -0.507 NA 
HETATM    2  H2  UNL     1     -10.174  20.279  66.471  1.00  0.00     0.000 HD 
HETATM    3  C   UNL     1     -10.349  18.326  65.828  1.00  0.00    -0.181 C  
HETATM    4  H1  UNL     1     -11.344  20.008  65.174  1.00  0.00     0.000 HD 
HETATM    5  N   UNL     1      -9.468  17.868  66.650  1.00  0.00    -0.289 N  
HETATM    6  C   UNL     1      -9.213  16.523  66.626  1.00  0.00    -0.250 C  
HETATM    7  H   UNL     1      -8.978  18.487  67.297  1.00  0.00     0.000 HD 
HETATM    8  N   UNL     1     -10.201  15.711  66.142  1.00  0.00    -0.291 N  
HETATM    9  O   UNL     1      -8.139  16.078  67.011  1.00  0.00    -0.178 OA 
HETATM   10  N   UNL     1     -10.997  17.543  64.933  1.00  0.00    -0.827 NA 
HETATM   11  C   UNL     1     -10.917  16.277  65.137  1.00  0.00    -0.274 C  
ENDROOT
BRANCH   8  12
HETATM   12  C1* UNL     1     -10.110  14.269  66.194  1.00  0.00    -0.313 C  
HETATM   13  O4* UNL     1     -11.431  13.780  66.527  1.00  0.00    -0.324 OA 
HETATM   14  C4* UNL     1     -11.501  13.625  67.966  1.00  0.00    -0.310 C  
HETATM   15  C3* UNL     1     -10.091  13.293  68.438  1.00  0.00    -0.237 C  
HETATM   16  H2* UNL     1      -8.156  11.866  67.340  1.00  0.00     0.000 HD 
HETATM   17  C2* UNL     1      -9.196  13.563  67.224  1.00  0.00    -0.233 C  
HETATM   18  O3* UNL     1     -10.040  11.933  68.876  1.00  0.00    -0.370 OA 
HETATM   19  O2* UNL     1      -8.716  12.299  66.707  1.00  0.00    -0.199 OA 
HETATM   20  H3* UNL     1      -9.160  11.726  69.170  1.00  0.00     0.000 HD 
BRANCH  14  21
HETATM   21  C5* UNL     1     -12.015  14.914  68.628  1.00  0.00    -0.241 C  
HETATM   22  O5* UNL     1     -11.062  15.415  69.558  1.00  0.00    -0.247 OA 
HETATM   23  H5* UNL     1     -11.380  16.211  69.968  1.00  0.00     0.000 HD 
ENDBRANCH  14  21
ENDBRANCH   8  12
TORSDOF 2
ENDMDL
MODEL       58
REMARK 921   NORMALIZED FREE ENERGY PREDICTED BY IDOCK:   -4.70 KCAL/MOL
REMARK 922        TOTAL FREE ENERGY PREDICTED BY IDOCK:   -5.22 KCAL/MOL
REMARK 923 INTER-LIGAND FREE ENERGY PREDICTED BY IDOCK:   -5.64 KCAL/MOL
REMARK 924 INTRA-LIGAND FREE ENERGY PREDICTED BY IDOCK:    0.42 KCAL/MOL
REMARK 927      BINDING AFFINITY PREDICTED BY RF-SCORE:    0.00 PKD
ROOT
HETATM    1  N   UNL     1     -12.821  13.048  64.547  1.00  0.00    -0.719 NA 
HETATM    2  H2  UNL     1     -13.766  13.419  64.441  1.00  0.00     0.000 HD 
HETATM    3  C   UNL     1     -11.783  13.891  64.761  1.00  0.00    -0.386 C  
HETATM    4  H1  UNL     1     -12.657  12.044  64.492  1.00  0.00     0.000 HD 
HETATM    5  N   UNL     1     -11.990  15.161  64.831  1.00  0.00    -0.244 N  
HETATM    6  C   UNL     1     -10.909  15.970  65.064  1.00  0.00    -0.404 C  
HETATM    7  H   UNL     1     -12.926  15.550  64.718  1.00  0.00     0.000 HD 
HETATM    8  N   UNL     1      -9.833  15.405  65.689  1.00  0.00    -0.354 N  
HETATM    9  O   UNL     1     -10.913  17.143  64.713  1.00  0.00    -0.898 OA 
HETATM   10  N   UNL     1     -10.552  13.338  64.875  1.00  0.00    -0.344 NA 
HETATM   11  C   UNL     1      -9.637  14.104  65.351  1.00  0.00     0.055 C  
ENDROOT
BRANCH   8  12
HETATM   12  C1* UNL     1      -8.691  16.183  66.116  1.00  0.00    -0.323 C  
HETATM   13  O4* UNL     1      -8.245  15.615  67.370  1.00  0.00    -0.151 OA 
HETATM   14  C4* UNL     1      -8.888  16.344  68.444  1.00  0.00    -0.214 C  
HETATM   15  C3* UNL     1      -9.112  17.763  67.936  1.00  0.00    -0.259 C  
HETATM   16  H2* UNL     1      -7.673  19.315  66.354  1.00  0.00     0.000 HD 
HETATM   17  C2* UNL     1      -8.827  17.691  66.433  1.00  0.00    -0.236 C  
HETATM   18  O3* UNL     1      -8.241  18.663  68.626  1.00  0.00    -0.328 OA 
HETATM   19  O2* UNL     1      -7.589  18.389  66.159  1.00  0.00    -0.286 OA 
HETATM   20  H3* UNL     1      -8.381  19.547  68.309  1.00  0.00     0.000 HD 
BRANCH  14  21
HETATM   21  C5* UNL     1     -10.219  15.680  68.832  1.00  0.00    -0.214 C  
HETATM   22  O5* UNL     1     -11.311  16.340  68.202  1.00  0.00    -0.337 OA 
HETATM   23  H5* UNL     1     -12.134  15.929  68.442  1.00  0.00     0.000 HD 
ENDBRANCH  14  21
ENDBRANCH   8  12
TORSDOF 2
ENDMDL
MODEL       59
REMARK 921   NORMALIZED FREE ENERGY PREDICTED BY IDOCK:   -4.69 KCAL/MOL
REMARK 922        TOTAL FREE ENERGY PREDICTED BY IDOCK:   -5.22 KCAL/MOL
REMARK 923 INTER-LIGAND FREE ENERGY PREDICTED BY IDOCK:   -5.21 KCAL/MOL
REMARK 924 INTRA-LIGAND FREE ENERGY PREDICTED BY IDOCK:   -0.01 KCAL/MOL
REMARK 927      BINDING AFFINITY PREDICTED BY RF-SCORE:    0.00 PKD
ROOT
HETATM    1  N   UNL     1     -14.109  15.241  70.759  1.00  0.00    -0.808 NA 
HETATM    2  H2  UNL     1     -14.831  14.698  70.283  1.00  0.00     0.000 HD 
HETATM    3  C   UNL     1     -12.813  15.118  70.389  1.00  0.00    -0.304 C  
HETATM    4  H1  UNL     1     -14.364  15.877  71.515  1.00  0.00     0.000 HD 
HETATM    5  N   UNL     1     -12.492  14.314  69.434  1.00  0.00    -0.520 N  
HETATM    6  C   UNL     1     -11.169  14.236  69.088  1.00  0.00    -0.270 C  
HETATM    7  H   UNL     1     -13.198  13.757  68.954  1.00  0.00     0.000 HD 
HETATM    8  N   UNL     1     -10.383  15.315  69.383  1.00  0.00    -0.241 N  
HETATM    9  O   UNL     1     -10.717  13.234  68.547  1.00  0.00    -0.250 OA 
HETATM   10  N   UNL     1     -11.903  15.851  71.073  1.00  0.00    -0.405 NA 
HETATM   11  C   UNL     1     -10.739  15.938  70.536  1.00  0.00    -0.188 C  
ENDROOT
BRANCH   8  12
HETATM   12  C1* UNL     1      -9.009  15.413  68.945  1.00  0.00    -0.208 C  
HETATM   13  O4* UNL     1      -8.601  16.786  69.157  1.00  0.00    -0.205 OA 
HETATM   14  C4* UNL     1      -8.834  17.516  67.927  1.00  0.00    -0.247 C  
HETATM   15  C3* UNL     1      -8.666  16.517  66.788  1.00  0.00    -0.226 C  
HETATM   16  H2* UNL     1      -7.035  14.461  66.474  1.00  0.00     0.000 HD 
HETATM   17  C2* UNL     1      -8.620  15.147  67.471  1.00  0.00    -0.180 C  
HETATM   18  O3* UNL     1      -7.473  16.817  66.060  1.00  0.00    -0.192 OA 
HETATM   19  O2* UNL     1      -7.274  14.624  67.380  1.00  0.00    -0.191 OA 
HETATM   20  H3* UNL     1      -7.369  16.194  65.350  1.00  0.00     0.000 HD 
BRANCH  14  21
HETATM   21  C5* UNL     1     -10.242  18.132  67.917  1.00  0.00    -0.379 C  
HETATM   22  O5* UNL     1     -10.572  18.609  66.617  1.00  0.00    -0.394 OA 
HETATM   23  H5* UNL     1     -11.442  18.990  66.612  1.00  0.00     0.000 HD 
ENDBRANCH  14  21
ENDBRANCH   8  12
TORSDOF 2
ENDMDL
MODEL       60
REMARK 921   NORMALIZED FREE ENERGY PREDICTED BY IDOCK:   -4.69 KCAL/MOL
REMARK 922        TOTAL FREE ENERGY PREDICTED BY IDOCK:   -5.21 KCAL/MOL
REMARK 923 INTER-LIGAND FREE ENERGY PREDICTED BY IDOCK:   -5.28 KCAL/MOL
REMARK 924 INTRA-LIGAND FREE ENERGY PREDICTED BY IDOCK:    0.07 KCAL/MOL
REMARK 927      BINDING AFFINITY PREDICTED BY RF-SCORE:    0.00 PKD
ROOT
HETATM    1  N   UNL     1     -14.405   8.738  72.798  1.00  0.00    -1.038 NA 
HETATM    2  H2  UNL     1     -14.680   7.946  73.380  1.00  0.00     0.000 HD 
HETATM    3  C   UNL     1     -13.107   8.908  72.455  1.00  0.00    -0.418 C  
HETATM    4  H1  UNL     1     -15.108   9.401  72.473  1.00  0.00     0.000 HD 
HETATM    5  N   UNL     1     -12.218   8.070  72.865  1.00  0.00    -0.598 N  
HETATM    6  C   UNL     1     -10.921   8.278  72.479  1.00  0.00    -0.354 C  
HETATM    7  H   UNL     1     -12.473   7.278  73.456  1.00  0.00     0.000 HD 
HETATM    8  N   UNL     1     -10.720   9.000  71.336  1.00  0.00    -0.303 N  
HETATM    9  O   UNL     1      -9.988   7.842  73.142  1.00  0.00    -0.280 OA 
HETATM   10  N   UNL     1     -12.805   9.988  71.696  1.00  0.00    -0.404 NA 
HETATM   11  C   UNL     1     -11.641   9.982  71.152  1.00  0.00    -0.378 C  
ENDROOT
BRANCH   8  12
HETATM   12  C1* UNL     1      -9.410   9.169  70.748  1.00  0.00    -0.264 C  
HETATM   13  O4* UNL     1      -9.610   9.346  69.326  1.00  0.00    -0.161 OA 
HETATM   14  C4* UNL     1      -9.503   8.046  68.695  1.00  0.00    -0.147 C  
HETATM   15  C3* UNL     1      -8.537   7.228  69.542  1.00  0.00    -0.134 C  
HETATM   16  H2* UNL     1      -6.362   7.905  70.883  1.00  0.00     0.000 HD 
HETATM   17  C2* UNL     1      -8.350   8.044  70.824  1.00  0.00    -0.115 C  
HETATM   18  O3* UNL     1      -7.316   7.033  68.823  1.00  0.00    -0.088 OA 
HETATM   19  O2* UNL     1      -7.012   8.596  70.836  1.00  0.00    -0.051 OA 
HETATM   20  H3* UNL     1      -6.714   6.523  69.351  1.00  0.00     0.000 HD 
BRANCH  14  21
HETATM   21  C5* UNL     1     -10.879   7.365  68.614  1.00  0.00    -0.034 C  
HETATM   22  O5* UNL     1     -11.143   6.923  67.287  1.00  0.00    -0.514 OA 
HETATM   23  H5* UNL     1     -11.993   6.502  67.238  1.00  0.00     0.000 HD 
ENDBRANCH  14  21
ENDBRANCH   8  12
TORSDOF 2
ENDMDL
MODEL       61
REMARK 921   NORMALIZED FREE ENERGY PREDICTED BY IDOCK:   -4.69 KCAL/MOL
REMARK 922        TOTAL FREE ENERGY PREDICTED BY IDOCK:   -5.21 KCAL/MOL
REMARK 923 INTER-LIGAND FREE ENERGY PREDICTED BY IDOCK:   -5.16 KCAL/MOL
REMARK 924 INTRA-LIGAND FREE ENERGY PREDICTED BY IDOCK:   -0.05 KCAL/MOL
REMARK 927      BINDING AFFINITY PREDICTED BY RF-SCORE:    0.00 PKD
ROOT
HETATM    1  N   UNL     1     -14.332   8.853  73.231  1.00  0.00    -1.177 NA 
HETATM    2  H2  UNL     1     -14.626   9.719  73.686  1.00  0.00     0.000 HD 
HETATM    3  C   UNL     1     -13.393   8.885  72.256  1.00  0.00    -0.449 C  
HETATM    4  H1  UNL     1     -14.744   7.964  73.511  1.00  0.00     0.000 HD 
HETATM    5  N   UNL     1     -12.872  10.009  71.903  1.00  0.00    -0.423 N  
HETATM    6  C   UNL     1     -11.916   9.986  70.922  1.00  0.00    -0.361 C  
HETATM    7  H   UNL     1     -13.161  10.885  72.339  1.00  0.00     0.000 HD 
HETATM    8  N   UNL     1     -11.231   8.816  70.748  1.00  0.00    -0.260 N  
HETATM    9  O   UNL     1     -11.700  10.972  70.229  1.00  0.00    -0.309 OA 
HETATM   10  N   UNL     1     -13.061   7.705  71.681  1.00  0.00    -0.350 NA 
HETATM   11  C   UNL     1     -11.988   7.711  70.973  1.00  0.00    -0.273 C  
ENDROOT
BRANCH   8  12
HETATM   12  C1* UNL     1     -10.106   8.705  69.846  1.00  0.00    -0.194 C  
HETATM   13  O4* UNL     1      -9.412   7.484  70.193  1.00  0.00    -0.161 OA 
HETATM   14  C4* UNL     1      -8.363   7.819  71.136  1.00  0.00    -0.111 C  
HETATM   15  C3* UNL     1      -7.923   9.241  70.812  1.00  0.00    -0.154 C  
HETATM   16  H2* UNL     1      -7.700  10.537  68.519  1.00  0.00     0.000 HD 
HETATM   17  C2* UNL     1      -8.982   9.769  69.839  1.00  0.00    -0.229 C  
HETATM   18  O3* UNL     1      -6.609   9.219  70.247  1.00  0.00    -0.048 OA 
HETATM   19  O2* UNL     1      -8.390   9.884  68.523  1.00  0.00    -0.104 OA 
HETATM   20  H3* UNL     1      -6.335  10.106  70.045  1.00  0.00     0.000 HD 
BRANCH  14  21
HETATM   21  C5* UNL     1      -8.878   7.716  72.581  1.00  0.00    -0.149 C  
HETATM   22  O5* UNL     1      -8.247   8.689  73.408  1.00  0.00    -0.408 OA 
HETATM   23  H5* UNL     1      -8.565   8.625  74.301  1.00  0.00     0.000 HD 
ENDBRANCH  14  21
ENDBRANCH   8  12
TORSDOF 2
ENDMDL
MODEL       62
REMARK 921   NORMALIZED FREE ENERGY PREDICTED BY IDOCK:   -4.59 KCAL/MOL
REMARK 922        TOTAL FREE ENERGY PREDICTED BY IDOCK:   -5.11 KCAL/MOL
REMARK 923 INTER-LIGAND FREE ENERGY PREDICTED BY IDOCK:   -5.13 KCAL/MOL
REMARK 924 INTRA-LIGAND FREE ENERGY PREDICTED BY IDOCK:    0.02 KCAL/MOL
REMARK 927      BINDING AFFINITY PREDICTED BY RF-SCORE:    0.00 PKD
ROOT
HETATM    1  N   UNL     1      -7.017  13.812  69.304  1.00  0.00    -0.231 NA 
HETATM    2  H2  UNL     1      -6.020  13.676  69.131  1.00  0.00     0.000 HD 
HETATM    3  C   UNL     1      -7.555  15.052  69.232  1.00  0.00    -0.187 C  
HETATM    4  H1  UNL     1      -7.609  13.013  69.532  1.00  0.00     0.000 HD 
HETATM    5  N   UNL     1      -6.808  16.061  68.943  1.00  0.00    -0.134 N  
HETATM    6  C   UNL     1      -7.402  17.292  68.867  1.00  0.00    -0.243 C  
HETATM    7  H   UNL     1      -5.808  15.946  68.776  1.00  0.00     0.000 HD 
HETATM    8  N   UNL     1      -8.742  17.320  68.599  1.00  0.00    -0.278 N  
HETATM    9  O   UNL     1      -6.755  18.316  69.045  1.00  0.00    -0.250 OA 
HETATM   10  N   UNL     1      -8.879  15.166  69.490  1.00  0.00    -0.177 NA 
HETATM   11  C   UNL     1      -9.422  16.279  69.146  1.00  0.00    -0.246 C  
ENDROOT
BRANCH   8  12
HETATM   12  C1* UNL     1      -9.456  18.554  68.356  1.00  0.00    -0.341 C  
HETATM   13  O4* UNL     1     -10.733  18.190  67.781  1.00  0.00    -0.412 OA 
HETATM   14  C4* UNL     1     -10.598  18.220  66.338  1.00  0.00    -0.293 C  
HETATM   15  C3* UNL     1      -9.547  19.276  66.020  1.00  0.00    -0.194 C  
HETATM   16  H2* UNL     1      -8.978  21.594  67.156  1.00  0.00     0.000 HD 
HETATM   17  C2* UNL     1      -8.906  19.612  67.369  1.00  0.00    -0.316 C  
HETATM   18  O3* UNL     1     -10.174  20.405  65.404  1.00  0.00    -0.433 OA 
HETATM   19  O2* UNL     1      -9.316  20.944  67.762  1.00  0.00    -0.172 OA 
HETATM   20  H3* UNL     1      -9.518  21.063  65.205  1.00  0.00     0.000 HD 
BRANCH  14  21
HETATM   21  C5* UNL     1     -10.176  16.842  65.802  1.00  0.00    -0.291 C  
HETATM   22  O5* UNL     1     -10.826  16.564  64.567  1.00  0.00    -0.931 OA 
HETATM   23  H5* UNL     1     -10.565  15.712  64.236  1.00  0.00     0.000 HD 
ENDBRANCH  14  21
ENDBRANCH   8  12
TORSDOF 2
ENDMDL
MODEL       63
REMARK 921   NORMALIZED FREE ENERGY PREDICTED BY IDOCK:   -4.57 KCAL/MOL
REMARK 922        TOTAL FREE ENERGY PREDICTED BY IDOCK:   -5.08 KCAL/MOL
REMARK 923 INTER-LIGAND FREE ENERGY PREDICTED BY IDOCK:   -5.93 KCAL/MOL
REMARK 924 INTRA-LIGAND FREE ENERGY PREDICTED BY IDOCK:    0.85 KCAL/MOL
REMARK 927      BINDING AFFINITY PREDICTED BY RF-SCORE:    0.00 PKD
ROOT
HETATM    1  N   UNL     1      -9.857  17.535  65.637  1.00  0.00    -0.534 NA 
HETATM    2  H2  UNL     1     -10.323  18.239  65.062  1.00  0.00     0.000 HD 
HETATM    3  C   UNL     1     -10.307  16.258  65.641  1.00  0.00    -0.363 C  
HETATM    4  H1  UNL     1      -9.053  17.793  66.208  1.00  0.00     0.000 HD 
HETATM    5  N   UNL     1     -11.324  15.933  64.919  1.00  0.00    -0.304 N  
HETATM    6  C   UNL     1     -11.731  14.625  64.947  1.00  0.00    -0.403 C  
HETATM    7  H   UNL     1     -11.808  16.625  64.347  1.00  0.00     0.000 HD 
HETATM    8  N   UNL     1     -10.797  13.690  65.295  1.00  0.00    -0.309 N  
HETATM    9  O   UNL     1     -12.887  14.320  64.681  1.00  0.00    -0.658 OA 
HETATM   10  N   UNL     1      -9.658  15.377  66.438  1.00  0.00    -0.271 NA 
HETATM   11  C   UNL     1      -9.909  14.136  66.221  1.00  0.00    -0.306 C  
ENDROOT
BRANCH   8  12
HETATM   12  C1* UNL     1     -11.063  12.270  65.226  1.00  0.00    -0.316 C  
HETATM   13  O4* UNL     1     -12.263  12.033  65.999  1.00  0.00    -0.546 OA 
HETATM   14  C4* UNL     1     -11.864  11.687  67.348  1.00  0.00    -0.091 C  
HETATM   15  C3* UNL     1     -10.510  10.996  67.240  1.00  0.00    -0.231 C  
HETATM   16  H2* UNL     1      -9.507   9.363  65.419  1.00  0.00     0.000 HD 
HETATM   17  C2* UNL     1     -10.057  11.242  65.798  1.00  0.00    -0.247 C  
HETATM   18  O3* UNL     1     -10.656   9.607  67.548  1.00  0.00    -0.253 OA 
HETATM   19  O2* UNL     1     -10.124   9.994  65.067  1.00  0.00    -0.323 OA 
HETATM   20  H3* UNL     1      -9.812   9.176  67.480  1.00  0.00     0.000 HD 
BRANCH  14  21
HETATM   21  C5* UNL     1     -11.771  12.945  68.228  1.00  0.00    -0.350 C  
HETATM   22  O5* UNL     1     -11.259  12.620  69.515  1.00  0.00    -0.428 OA 
HETATM   23  H5* UNL     1     -11.203  13.398  70.059  1.00  0.00     0.000 HD 
ENDBRANCH  14  21
ENDBRANCH   8  12
TORSDOF 2
ENDMDL
MODEL       64
REMARK 921   NORMALIZED FREE ENERGY PREDICTED BY IDOCK:   -4.57 KCAL/MOL
REMARK 922        TOTAL FREE ENERGY PREDICTED BY IDOCK:   -5.08 KCAL/MOL
REMARK 923 INTER-LIGAND FREE ENERGY PREDICTED BY IDOCK:   -5.62 KCAL/MOL
REMARK 924 INTRA-LIGAND FREE ENERGY PREDICTED BY IDOCK:    0.54 KCAL/MOL
REMARK 927      BINDING AFFINITY PREDICTED BY RF-SCORE:    0.00 PKD
ROOT
HETATM    1  N   UNL     1     -12.600  13.743  62.933  1.00  0.00    -0.787 NA 
HETATM    2  H2  UNL     1     -13.227  14.521  62.725  1.00  0.00     0.000 HD 
HETATM    3  C   UNL     1     -12.268  13.464  64.216  1.00  0.00    -0.392 C  
HETATM    4  H1  UNL     1     -12.225  13.173  62.176  1.00  0.00     0.000 HD 
HETATM    5  N   UNL     1     -12.742  14.184  65.173  1.00  0.00    -0.672 N  
HETATM    6  C   UNL     1     -12.387  13.854  66.454  1.00  0.00    -0.426 C  
HETATM    7  H   UNL     1     -13.361  14.973  64.984  1.00  0.00     0.000 HD 
HETATM    8  N   UNL     1     -12.006  12.560  66.679  1.00  0.00    -0.355 N  
HETATM    9  O   UNL     1     -12.403  14.690  67.348  1.00  0.00    -0.193 OA 
HETATM   10  N   UNL     1     -11.419  12.430  64.423  1.00  0.00    -0.329 NA 
HETATM   11  C   UNL     1     -11.338  12.007  65.634  1.00  0.00    -0.329 C  
ENDROOT
BRANCH   8  12
HETATM   12  C1* UNL     1     -11.743  12.052  68.007  1.00  0.00    -0.331 C  
HETATM   13  O4* UNL     1     -10.951  13.054  68.688  1.00  0.00    -0.247 OA 
HETATM   14  C4* UNL     1      -9.553  12.719  68.503  1.00  0.00    -0.110 C  
HETATM   15  C3* UNL     1      -9.480  11.202  68.383  1.00  0.00    -0.189 C  
HETATM   16  H2* UNL     1     -10.856   9.274  69.556  1.00  0.00     0.000 HD 
HETATM   17  C2* UNL     1     -10.934  10.750  68.218  1.00  0.00    -0.255 C  
HETATM   18  O3* UNL     1      -8.857  10.658  69.550  1.00  0.00    -0.375 OA 
HETATM   19  O2* UNL     1     -11.353  10.073  69.427  1.00  0.00    -0.215 OA 
HETATM   20  H3* UNL     1      -8.812   9.712  69.475  1.00  0.00     0.000 HD 
BRANCH  14  21
HETATM   21  C5* UNL     1      -8.992  13.400  67.244  1.00  0.00    -0.221 C  
HETATM   22  O5* UNL     1      -9.308  14.788  67.241  1.00  0.00    -0.196 OA 
HETATM   23  H5* UNL     1      -8.961  15.208  66.463  1.00  0.00     0.000 HD 
ENDBRANCH  14  21
ENDBRANCH   8  12
TORSDOF 2
ENDMDL
MODEL       65
REMARK 921   NORMALIZED FREE ENERGY PREDICTED BY IDOCK:   -4.56 KCAL/MOL
REMARK 922        TOTAL FREE ENERGY PREDICTED BY IDOCK:   -5.07 KCAL/MOL
REMARK 923 INTER-LIGAND FREE ENERGY PREDICTED BY IDOCK:   -5.79 KCAL/MOL
REMARK 924 INTRA-LIGAND FREE ENERGY PREDICTED BY IDOCK:    0.72 KCAL/MOL
REMARK 927      BINDING AFFINITY PREDICTED BY RF-SCORE:    0.00 PKD
ROOT
HETATM    1  N   UNL     1      -6.456  14.992  69.480  1.00  0.00    -0.134 NA 
HETATM    2  H2  UNL     1      -6.476  15.120  70.493  1.00  0.00     0.000 HD 
HETATM    3  C   UNL     1      -7.604  15.051  68.766  1.00  0.00    -0.137 C  
HETATM    4  H1  UNL     1      -5.570  14.820  69.006  1.00  0.00     0.000 HD 
HETATM    5  N   UNL     1      -8.724  15.268  69.367  1.00  0.00    -0.319 N  
HETATM    6  C   UNL     1      -9.856  15.333  68.598  1.00  0.00    -0.211 C  
HETATM    7  H   UNL     1      -8.765  15.389  70.379  1.00  0.00     0.000 HD 
HETATM    8  N   UNL     1      -9.696  15.667  67.283  1.00  0.00    -0.218 N  
HETATM    9  O   UNL     1     -10.956  15.090  69.076  1.00  0.00    -0.229 OA 
HETATM   10  N   UNL     1      -7.511  14.855  67.430  1.00  0.00    -0.197 NA 
HETATM   11  C   UNL     1      -8.545  15.189  66.743  1.00  0.00    -0.262 C  
ENDROOT
BRANCH   8  12
HETATM   12  C1* UNL     1     -10.819  15.905  66.404  1.00  0.00    -0.193 C  
HETATM   13  O4* UNL     1     -11.821  14.914  66.731  1.00  0.00    -0.304 OA 
HETATM   14  C4* UNL     1     -11.632  13.779  65.849  1.00  0.00    -0.333 C  
HETATM   15  C3* UNL     1     -11.059  14.328  64.549  1.00  0.00    -0.312 C  
HETATM   16  H2* UNL     1     -11.498  16.585  63.244  1.00  0.00     0.000 HD 
HETATM   17  C2* UNL     1     -10.673  15.775  64.869  1.00  0.00    -0.361 C  
HETATM   18  O3* UNL     1     -12.041  14.230  63.513  1.00  0.00    -0.904 OA 
HETATM   19  O2* UNL     1     -11.588  16.665  64.187  1.00  0.00    -1.102 OA 
HETATM   20  H3* UNL     1     -11.684  14.572  62.703  1.00  0.00     0.000 HD 
BRANCH  14  21
HETATM   21  C5* UNL     1     -10.679  12.752  66.482  1.00  0.00    -0.258 C  
HETATM   22  O5* UNL     1      -9.719  12.306  65.530  1.00  0.00    -0.317 OA 
HETATM   23  H5* UNL     1      -9.130  11.671  65.921  1.00  0.00     0.000 HD 
ENDBRANCH  14  21
ENDBRANCH   8  12
TORSDOF 2
ENDMDL
MODEL       66
REMARK 921   NORMALIZED FREE ENERGY PREDICTED BY IDOCK:   -4.55 KCAL/MOL
REMARK 922        TOTAL FREE ENERGY PREDICTED BY IDOCK:   -5.06 KCAL/MOL
REMARK 923 INTER-LIGAND FREE ENERGY PREDICTED BY IDOCK:   -5.00 KCAL/MOL
REMARK 924 INTRA-LIGAND FREE ENERGY PREDICTED BY IDOCK:   -0.06 KCAL/MOL
REMARK 927      BINDING AFFINITY PREDICTED BY RF-SCORE:    0.00 PKD
ROOT
HETATM    1  N   UNL     1     -12.409   6.482  72.219  1.00  0.00    -0.541 NA 
HETATM    2  H2  UNL     1     -13.231   5.904  72.038  1.00  0.00     0.000 HD 
HETATM    3  C   UNL     1     -11.601   6.848  71.197  1.00  0.00    -0.319 C  
HETATM    4  H1  UNL     1     -12.195   6.783  73.169  1.00  0.00     0.000 HD 
HETATM    5  N   UNL     1     -11.871   6.467  69.996  1.00  0.00    -0.599 N  
HETATM    6  C   UNL     1     -11.030   6.876  68.994  1.00  0.00    -0.181 C  
HETATM    7  H   UNL     1     -12.682   5.881  69.798  1.00  0.00     0.000 HD 
HETATM    8  N   UNL     1     -10.305   8.013  69.216  1.00  0.00    -0.218 N  
HETATM    9  O   UNL     1     -10.932   6.238  67.954  1.00  0.00    -0.306 OA 
HETATM   10  N   UNL     1     -10.517   7.599  71.505  1.00  0.00    -0.204 NA 
HETATM   11  C   UNL     1      -9.929   8.166  70.513  1.00  0.00    -0.187 C  
ENDROOT
BRANCH   8  12
HETATM   12  C1* UNL     1      -9.492   8.624  68.189  1.00  0.00    -0.141 C  
HETATM   13  O4* UNL     1      -9.052   9.901  68.710  1.00  0.00    -0.137 OA 
HETATM   14  C4* UNL     1      -9.999  10.910  68.277  1.00  0.00    -0.175 C  
HETATM   15  C3* UNL     1     -10.558  10.439  66.941  1.00  0.00    -0.230 C  
HETATM   16  H2* UNL     1      -9.448   9.137  64.926  1.00  0.00     0.000 HD 
HETATM   17  C2* UNL     1     -10.091   8.987  66.808  1.00  0.00    -0.274 C  
HETATM   18  O3* UNL     1     -10.068  11.280  65.893  1.00  0.00    -0.227 OA 
HETATM   19  O2* UNL     1      -9.081   8.914  65.774  1.00  0.00    -0.197 OA 
HETATM   20  H3* UNL     1     -10.417  10.986  65.060  1.00  0.00     0.000 HD 
BRANCH  14  21
HETATM   21  C5* UNL     1     -11.120  11.084  69.315  1.00  0.00    -0.254 C  
HETATM   22  O5* UNL     1     -12.380  10.729  68.755  1.00  0.00    -0.812 OA 
HETATM   23  H5* UNL     1     -13.073  10.837  69.397  1.00  0.00     0.000 HD 
ENDBRANCH  14  21
ENDBRANCH   8  12
TORSDOF 2
ENDMDL
MODEL       67
REMARK 921   NORMALIZED FREE ENERGY PREDICTED BY IDOCK:   -4.54 KCAL/MOL
REMARK 922        TOTAL FREE ENERGY PREDICTED BY IDOCK:   -5.04 KCAL/MOL
REMARK 923 INTER-LIGAND FREE ENERGY PREDICTED BY IDOCK:   -5.58 KCAL/MOL
REMARK 924 INTRA-LIGAND FREE ENERGY PREDICTED BY IDOCK:    0.54 KCAL/MOL
REMARK 927      BINDING AFFINITY PREDICTED BY RF-SCORE:    0.00 PKD
ROOT
HETATM    1  N   UNL     1     -12.117  13.636  71.060  1.00  0.00    -0.461 NA 
HETATM    2  H2  UNL     1     -12.734  12.827  70.975  1.00  0.00     0.000 HD 
HETATM    3  C   UNL     1     -11.678  14.275  69.951  1.00  0.00    -0.311 C  
HETATM    4  H1  UNL     1     -11.830  13.963  71.983  1.00  0.00     0.000 HD 
HETATM    5  N   UNL     1     -12.041  13.861  68.785  1.00  0.00    -0.440 N  
HETATM    6  C   UNL     1     -11.582  14.550  67.694  1.00  0.00    -0.378 C  
HETATM    7  H   UNL     1     -12.649  13.048  68.680  1.00  0.00     0.000 HD 
HETATM    8  N   UNL     1     -11.223  15.854  67.888  1.00  0.00    -0.329 N  
HETATM    9  O   UNL     1     -11.491  14.008  66.600  1.00  0.00    -0.335 OA 
HETATM   10  N   UNL     1     -10.847  15.328  70.132  1.00  0.00    -0.281 NA 
HETATM   11  C   UNL     1     -10.671  16.084  69.108  1.00  0.00    -0.272 C  
ENDROOT
BRANCH   8  12
HETATM   12  C1* UNL     1     -10.858  16.726  66.794  1.00  0.00    -0.009 C  
HETATM   13  O4* UNL     1     -10.033  15.947  65.897  1.00  0.00    -0.302 OA 
HETATM   14  C4* UNL     1      -8.647  16.161  66.265  1.00  0.00    -0.338 C  
HETATM   15  C3* UNL     1      -8.562  17.570  66.839  1.00  0.00    -0.247 C  
HETATM   16  H2* UNL     1      -9.821  19.808  66.213  1.00  0.00     0.000 HD 
HETATM   17  C2* UNL     1     -10.017  18.003  67.038  1.00  0.00    -0.329 C  
HETATM   18  O3* UNL     1      -7.848  18.415  65.933  1.00  0.00    -0.481 OA 
HETATM   19  O2* UNL     1     -10.338  19.024  66.064  1.00  0.00    -0.440 OA 
HETATM   20  H3* UNL     1      -7.794  19.293  66.292  1.00  0.00     0.000 HD 
BRANCH  14  21
HETATM   21  C5* UNL     1      -8.189  15.116  67.295  1.00  0.00    -0.208 C  
HETATM   22  O5* UNL     1      -8.390  13.798  66.795  1.00  0.00    -0.422 OA 
HETATM   23  H5* UNL     1      -8.106  13.153  67.432  1.00  0.00     0.000 HD 
ENDBRANCH  14  21
ENDBRANCH   8  12
TORSDOF 2
ENDMDL
MODEL       68
REMARK 921   NORMALIZED FREE ENERGY PREDICTED BY IDOCK:   -4.53 KCAL/MOL
REMARK 922        TOTAL FREE ENERGY PREDICTED BY IDOCK:   -5.03 KCAL/MOL
REMARK 923 INTER-LIGAND FREE ENERGY PREDICTED BY IDOCK:   -5.20 KCAL/MOL
REMARK 924 INTRA-LIGAND FREE ENERGY PREDICTED BY IDOCK:    0.16 KCAL/MOL
REMARK 927      BINDING AFFINITY PREDICTED BY RF-SCORE:    0.00 PKD
ROOT
HETATM    1  N   UNL     1      -8.834   7.401  65.918  1.00  0.00    -0.275 NA 
HETATM    2  H2  UNL     1      -8.004   7.294  65.332  1.00  0.00     0.000 HD 
HETATM    3  C   UNL     1      -9.221   8.632  66.326  1.00  0.00    -0.202 C  
HETATM    4  H1  UNL     1      -9.372   6.580  66.195  1.00  0.00     0.000 HD 
HETATM    5  N   UNL     1      -8.540   9.669  65.975  1.00  0.00    -0.130 N  
HETATM    6  C   UNL     1      -8.981  10.893  66.403  1.00  0.00    -0.175 C  
HETATM    7  H   UNL     1      -7.703   9.580  65.399  1.00  0.00     0.000 HD 
HETATM    8  N   UNL     1     -10.308  11.004  66.710  1.00  0.00    -0.229 N  
HETATM    9  O   UNL     1      -8.210  11.838  66.511  1.00  0.00    -0.152 OA 
HETATM   10  N   UNL     1     -10.318   8.704  67.115  1.00  0.00    -0.284 NA 
HETATM   11  C   UNL     1     -10.829   9.874  67.258  1.00  0.00    -0.199 C  
ENDROOT
BRANCH   8  12
HETATM   12  C1* UNL     1     -10.923  12.271  67.037  1.00  0.00    -0.268 C  
HETATM   13  O4* UNL     1     -12.211  12.292  66.377  1.00  0.00    -0.613 OA 
HETATM   14  C4* UNL     1     -12.043  12.935  65.089  1.00  0.00    -0.445 C  
HETATM   15  C3* UNL     1     -10.910  13.941  65.248  1.00  0.00    -0.333 C  
HETATM   16  H2* UNL     1     -10.195  15.484  67.271  1.00  0.00     0.000 HD 
HETATM   17  C2* UNL     1     -10.275  13.608  66.601  1.00  0.00    -0.276 C  
HETATM   18  O3* UNL     1     -11.437  15.269  65.191  1.00  0.00    -0.333 OA 
HETATM   19  O2* UNL     1     -10.593  14.664  67.539  1.00  0.00    -0.253 OA 
HETATM   20  H3* UNL     1     -10.730  15.896  65.291  1.00  0.00     0.000 HD 
BRANCH  14  21
HETATM   21  C5* UNL     1     -11.712  11.898  64.002  1.00  0.00    -0.378 C  
HETATM   22  O5* UNL     1     -11.174  12.536  62.849  1.00  0.00    -0.655 OA 
HETATM   23  H5* UNL     1     -10.970  11.895  62.177  1.00  0.00     0.000 HD 
ENDBRANCH  14  21
ENDBRANCH   8  12
TORSDOF 2
ENDMDL
MODEL       69
REMARK 921   NORMALIZED FREE ENERGY PREDICTED BY IDOCK:   -4.52 KCAL/MOL
REMARK 922        TOTAL FREE ENERGY PREDICTED BY IDOCK:   -5.02 KCAL/MOL
REMARK 923 INTER-LIGAND FREE ENERGY PREDICTED BY IDOCK:   -5.56 KCAL/MOL
REMARK 924 INTRA-LIGAND FREE ENERGY PREDICTED BY IDOCK:    0.54 KCAL/MOL
REMARK 927      BINDING AFFINITY PREDICTED BY RF-SCORE:    0.00 PKD
ROOT
HETATM    1  N   UNL     1     -10.397  19.640  66.031  1.00  0.00    -0.506 NA 
HETATM    2  H2  UNL     1     -10.578  20.390  66.700  1.00  0.00     0.000 HD 
HETATM    3  C   UNL     1     -10.442  18.348  66.432  1.00  0.00    -0.383 C  
HETATM    4  H1  UNL     1     -10.182  19.864  65.059  1.00  0.00     0.000 HD 
HETATM    5  N   UNL     1     -10.714  18.066  67.659  1.00  0.00    -0.398 N  
HETATM    6  C   UNL     1     -10.762  16.743  68.012  1.00  0.00    -0.355 C  
HETATM    7  H   UNL     1     -10.888  18.802  68.344  1.00  0.00     0.000 HD 
HETATM    8  N   UNL     1     -11.024  15.843  67.017  1.00  0.00    -0.248 N  
HETATM    9  O   UNL     1     -10.568  16.392  69.169  1.00  0.00    -0.265 OA 
HETATM   10  N   UNL     1     -10.175  17.403  65.500  1.00  0.00    -0.618 NA 
HETATM   11  C   UNL     1     -10.494  16.199  65.818  1.00  0.00    -0.367 C  
ENDROOT
BRANCH   8  12
HETATM   12  C1* UNL     1     -11.239  14.438  67.283  1.00  0.00    -0.323 C  
HETATM   13  O4* UNL     1     -10.257  14.046  68.271  1.00  0.00    -0.235 OA 
HETATM   14  C4* UNL     1      -9.099  13.528  67.569  1.00  0.00    -0.214 C  
HETATM   15  C3* UNL     1      -9.613  12.913  66.273  1.00  0.00    -0.243 C  
HETATM   16  H2* UNL     1     -11.835  11.597  65.708  1.00  0.00     0.000 HD 
HETATM   17  C2* UNL     1     -11.068  13.380  66.167  1.00  0.00    -0.288 C  
HETATM   18  O3* UNL     1      -9.488  11.490  66.336  1.00  0.00    -0.200 OA 
HETATM   19  O2* UNL     1     -11.940  12.247  66.393  1.00  0.00    -0.589 OA 
HETATM   20  H3* UNL     1      -9.808  11.107  65.528  1.00  0.00     0.000 HD 
BRANCH  14  21
HETATM   21  C5* UNL     1      -8.089  14.651  67.284  1.00  0.00    -0.206 C  
HETATM   22  O5* UNL     1      -7.755  15.342  68.483  1.00  0.00    -0.119 OA 
HETATM   23  H5* UNL     1      -7.131  16.036  68.307  1.00  0.00     0.000 HD 
ENDBRANCH  14  21
ENDBRANCH   8  12
TORSDOF 2
ENDMDL
MODEL       70
REMARK 921   NORMALIZED FREE ENERGY PREDICTED BY IDOCK:   -4.52 KCAL/MOL
REMARK 922        TOTAL FREE ENERGY PREDICTED BY IDOCK:   -5.02 KCAL/MOL
REMARK 923 INTER-LIGAND FREE ENERGY PREDICTED BY IDOCK:   -4.92 KCAL/MOL
REMARK 924 INTRA-LIGAND FREE ENERGY PREDICTED BY IDOCK:   -0.10 KCAL/MOL
REMARK 927      BINDING AFFINITY PREDICTED BY RF-SCORE:    0.00 PKD
ROOT
HETATM    1  N   UNL     1      -5.400  12.241  66.769  1.00  0.00    -0.397 NA 
HETATM    2  H2  UNL     1      -4.787  13.039  66.595  1.00  0.00     0.000 HD 
HETATM    3  C   UNL     1      -6.688  12.443  67.135  1.00  0.00    -0.081 C  
HETATM    4  H1  UNL     1      -5.043  11.292  66.667  1.00  0.00     0.000 HD 
HETATM    5  N   UNL     1      -7.139  13.643  67.264  1.00  0.00    -0.327 N  
HETATM    6  C   UNL     1      -8.452  13.794  67.623  1.00  0.00    -0.183 C  
HETATM    7  H   UNL     1      -6.538  14.452  67.104  1.00  0.00     0.000 HD 
HETATM    8  N   UNL     1      -9.298  12.760  67.334  1.00  0.00    -0.187 N  
HETATM    9  O   UNL     1      -8.838  14.810  68.187  1.00  0.00    -0.160 OA 
HETATM   10  N   UNL     1      -7.442  11.343  67.369  1.00  0.00    -0.112 NA 
HETATM   11  C   UNL     1      -8.710  11.540  67.437  1.00  0.00    -0.147 C  
ENDROOT
BRANCH   8  12
HETATM   12  C1* UNL     1     -10.727  12.853  67.533  1.00  0.00    -0.226 C  
HETATM   13  O4* UNL     1     -11.332  11.846  66.688  1.00  0.00    -0.319 OA 
HETATM   14  C4* UNL     1     -11.671  12.468  65.424  1.00  0.00    -0.398 C  
HETATM   15  C3* UNL     1     -11.976  13.930  65.725  1.00  0.00    -0.400 C  
HETATM   16  H2* UNL     1     -13.135  15.098  67.793  1.00  0.00     0.000 HD 
HETATM   17  C2* UNL     1     -11.502  14.142  67.166  1.00  0.00    -0.353 C  
HETATM   18  O3* UNL     1     -13.375  14.173  65.557  1.00  0.00    -0.669 OA 
HETATM   19  O2* UNL     1     -12.660  14.307  68.019  1.00  0.00     0.075 OA 
HETATM   20  H3* UNL     1     -13.565  15.085  65.745  1.00  0.00     0.000 HD 
BRANCH  14  21
HETATM   21  C5* UNL     1     -10.509  12.341  64.425  1.00  0.00    -0.325 C  
HETATM   22  O5* UNL     1     -10.105  13.624  63.960  1.00  0.00    -0.710 OA 
HETATM   23  H5* UNL     1      -9.387  13.545  63.343  1.00  0.00     0.000 HD 
ENDBRANCH  14  21
ENDBRANCH   8  12
TORSDOF 2
ENDMDL
MODEL       71
REMARK 921   NORMALIZED FREE ENERGY PREDICTED BY IDOCK:   -4.49 KCAL/MOL
REMARK 922        TOTAL FREE ENERGY PREDICTED BY IDOCK:   -4.99 KCAL/MOL
REMARK 923 INTER-LIGAND FREE ENERGY PREDICTED BY IDOCK:   -4.98 KCAL/MOL
REMARK 924 INTRA-LIGAND FREE ENERGY PREDICTED BY IDOCK:   -0.01 KCAL/MOL
REMARK 927      BINDING AFFINITY PREDICTED BY RF-SCORE:    0.00 PKD
ROOT
HETATM    1  N   UNL     1     -13.133  13.071  64.833  1.00  0.00    -0.765 NA 
HETATM    2  H2  UNL     1     -13.959  12.741  65.334  1.00  0.00     0.000 HD 
HETATM    3  C   UNL     1     -12.238  13.874  65.454  1.00  0.00    -0.444 C  
HETATM    4  H1  UNL     1     -12.981  12.795  63.863  1.00  0.00     0.000 HD 
HETATM    5  N   UNL     1     -12.430  14.222  66.680  1.00  0.00    -0.543 N  
HETATM    6  C   UNL     1     -11.488  15.024  67.268  1.00  0.00    -0.304 C  
HETATM    7  H   UNL     1     -13.254  13.910  67.194  1.00  0.00     0.000 HD 
HETATM    8  N   UNL     1     -10.226  14.989  66.745  1.00  0.00    -0.256 N  
HETATM    9  O   UNL     1     -11.778  15.746  68.214  1.00  0.00    -0.345 OA 
HETATM   10  N   UNL     1     -11.174  14.292  64.728  1.00  0.00    -0.375 NA 
HETATM   11  C   UNL     1     -10.208  14.808  65.399  1.00  0.00    -0.387 C  
ENDROOT
BRANCH   8  12
HETATM   12  C1* UNL     1      -9.114  15.678  67.360  1.00  0.00    -0.194 C  
HETATM   13  O4* UNL     1      -7.920  14.942  67.007  1.00  0.00    -0.207 OA 
HETATM   14  C4* UNL     1      -7.653  13.989  68.066  1.00  0.00    -0.143 C  
HETATM   15  C3* UNL     1      -8.183  14.608  69.354  1.00  0.00     0.060 C  
HETATM   16  H2* UNL     1      -8.250  17.108  70.209  1.00  0.00     0.000 HD 
HETATM   17  C2* UNL     1      -9.012  15.812  68.899  1.00  0.00    -0.226 C  
HETATM   18  O3* UNL     1      -7.087  14.972  70.197  1.00  0.00    -0.204 OA 
HETATM   19  O2* UNL     1      -8.313  17.026  69.265  1.00  0.00    -0.093 OA 
HETATM   20  H3* UNL     1      -7.417  15.358  70.999  1.00  0.00     0.000 HD 
BRANCH  14  21
HETATM   21  C5* UNL     1      -8.342  12.645  67.776  1.00  0.00    -0.172 C  
HETATM   22  O5* UNL     1      -7.888  12.107  66.538  1.00  0.00    -0.384 OA 
HETATM   23  H5* UNL     1      -8.314  11.276  66.359  1.00  0.00     0.000 HD 
ENDBRANCH  14  21
ENDBRANCH   8  12
TORSDOF 2
ENDMDL
MODEL       72
REMARK 921   NORMALIZED FREE ENERGY PREDICTED BY IDOCK:   -4.49 KCAL/MOL
REMARK 922        TOTAL FREE ENERGY PREDICTED BY IDOCK:   -4.99 KCAL/MOL
REMARK 923 INTER-LIGAND FREE ENERGY PREDICTED BY IDOCK:   -5.07 KCAL/MOL
REMARK 924 INTRA-LIGAND FREE ENERGY PREDICTED BY IDOCK:    0.08 KCAL/MOL
REMARK 927      BINDING AFFINITY PREDICTED BY RF-SCORE:    0.00 PKD
ROOT
HETATM    1  N   UNL     1      -9.511  11.902  68.788  1.00  0.00    -0.393 NA 
HETATM    2  H2  UNL     1      -8.907  12.483  69.371  1.00  0.00     0.000 HD 
HETATM    3  C   UNL     1      -9.665  10.587  69.070  1.00  0.00    -0.210 C  
HETATM    4  H1  UNL     1     -10.000  12.312  67.992  1.00  0.00     0.000 HD 
HETATM    5  N   UNL     1      -9.048  10.070  70.076  1.00  0.00    -0.375 N  
HETATM    6  C   UNL     1      -9.247   8.738  70.328  1.00  0.00    -0.174 C  
HETATM    7  H   UNL     1      -8.432  10.632  70.664  1.00  0.00     0.000 HD 
HETATM    8  N   UNL     1     -10.407   8.184  69.864  1.00  0.00    -0.210 N  
HETATM    9  O   UNL     1      -8.412   8.080  70.934  1.00  0.00    -0.117 OA 
HETATM   10  N   UNL     1     -10.464   9.868  68.247  1.00  0.00    -0.198 NA 
HETATM   11  C   UNL     1     -10.820   8.713  68.683  1.00  0.00     0.043 C  
ENDROOT
BRANCH   8  12
HETATM   12  C1* UNL     1     -10.799   6.830  70.185  1.00  0.00    -0.266 C  
HETATM   13  O4* UNL     1     -12.246   6.814  70.230  1.00  0.00    -0.281 OA 
HETATM   14  C4* UNL     1     -12.653   7.042  71.602  1.00  0.00    -0.380 C  
HETATM   15  C3* UNL     1     -11.552   6.467  72.484  1.00  0.00    -0.222 C  
HETATM   16  H2* UNL     1     -10.001   4.345  72.208  1.00  0.00     0.000 HD 
HETATM   17  C2* UNL     1     -10.392   6.178  71.528  1.00  0.00    -0.209 C  
HETATM   18  O3* UNL     1     -12.033   5.294  73.147  1.00  0.00    -0.550 OA 
HETATM   19  O2* UNL     1     -10.251   4.745  71.383  1.00  0.00    -0.199 OA 
HETATM   20  H3* UNL     1     -11.346   4.936  73.697  1.00  0.00     0.000 HD 
BRANCH  14  21
HETATM   21  C5* UNL     1     -12.847   8.544  71.870  1.00  0.00    -0.363 C  
HETATM   22  O5* UNL     1     -13.560   8.747  73.085  1.00  0.00    -0.970 OA 
HETATM   23  H5* UNL     1     -13.680   9.675  73.250  1.00  0.00     0.000 HD 
ENDBRANCH  14  21
ENDBRANCH   8  12
TORSDOF 2
ENDMDL
MODEL       73
REMARK 921   NORMALIZED FREE ENERGY PREDICTED BY IDOCK:   -4.47 KCAL/MOL
REMARK 922        TOTAL FREE ENERGY PREDICTED BY IDOCK:   -4.97 KCAL/MOL
REMARK 923 INTER-LIGAND FREE ENERGY PREDICTED BY IDOCK:   -5.52 KCAL/MOL
REMARK 924 INTRA-LIGAND FREE ENERGY PREDICTED BY IDOCK:    0.55 KCAL/MOL
REMARK 927      BINDING AFFINITY PREDICTED BY RF-SCORE:    0.00 PKD
ROOT
HETATM    1  N   UNL     1     -10.096  18.949  69.034  1.00  0.00    -0.505 NA 
HETATM    2  H2  UNL     1     -10.189  19.245  70.006  1.00  0.00     0.000 HD 
HETATM    3  C   UNL     1     -10.467  17.700  68.667  1.00  0.00    -0.317 C  
HETATM    4  H1  UNL     1      -9.725  19.595  68.337  1.00  0.00     0.000 HD 
HETATM    5  N   UNL     1     -10.936  16.885  69.548  1.00  0.00    -0.357 N  
HETATM    6  C   UNL     1     -11.310  15.637  69.124  1.00  0.00    -0.338 C  
HETATM    7  H   UNL     1     -11.026  17.160  70.526  1.00  0.00     0.000 HD 
HETATM    8  N   UNL     1     -11.640  15.501  67.805  1.00  0.00    -0.255 N  
HETATM    9  O   UNL     1     -11.333  14.689  69.899  1.00  0.00    -0.255 OA 
HETATM   10  N   UNL     1     -10.302  17.364  67.366  1.00  0.00    -0.334 NA 
HETATM   11  C   UNL     1     -10.908  16.298  66.983  1.00  0.00    -0.173 C  
ENDROOT
BRANCH   8  12
HETATM   12  C1* UNL     1     -12.184  14.274  67.266  1.00  0.00    -0.252 C  
HETATM   13  O4* UNL     1     -11.458  13.189  67.889  1.00  0.00    -0.271 OA 
HETATM   14  C4* UNL     1     -10.348  12.839  67.025  1.00  0.00    -0.234 C  
HETATM   15  C3* UNL     1     -10.791  13.146  65.600  1.00  0.00    -0.278 C  
HETATM   16  H2* UNL     1     -13.137  12.937  64.401  1.00  0.00     0.000 HD 
HETATM   17  C2* UNL     1     -12.084  13.953  65.756  1.00  0.00    -0.425 C  
HETATM   18  O3* UNL     1     -10.980  11.924  64.883  1.00  0.00    -0.298 OA 
HETATM   19  O2* UNL     1     -13.199  13.135  65.328  1.00  0.00    -0.643 OA 
HETATM   20  H3* UNL     1     -11.256  12.116  63.994  1.00  0.00     0.000 HD 
BRANCH  14  21
HETATM   21  C5* UNL     1      -9.092  13.644  67.399  1.00  0.00    -0.222 C  
HETATM   22  O5* UNL     1      -8.788  13.486  68.780  1.00  0.00    -0.362 OA 
HETATM   23  H5* UNL     1      -8.013  13.984  69.011  1.00  0.00     0.000 HD 
ENDBRANCH  14  21
ENDBRANCH   8  12
TORSDOF 2
ENDMDL
MODEL       74
REMARK 921   NORMALIZED FREE ENERGY PREDICTED BY IDOCK:   -4.46 KCAL/MOL
REMARK 922        TOTAL FREE ENERGY PREDICTED BY IDOCK:   -4.96 KCAL/MOL
REMARK 923 INTER-LIGAND FREE ENERGY PREDICTED BY IDOCK:   -4.95 KCAL/MOL
REMARK 924 INTRA-LIGAND FREE ENERGY PREDICTED BY IDOCK:   -0.01 KCAL/MOL
REMARK 927      BINDING AFFINITY PREDICTED BY RF-SCORE:    0.00 PKD
ROOT
HETATM    1  N   UNL     1      -6.445  13.852  70.341  1.00  0.00    -0.401 NA 
HETATM    2  H2  UNL     1      -6.379  12.996  70.894  1.00  0.00     0.000 HD 
HETATM    3  C   UNL     1      -7.098  13.844  69.156  1.00  0.00    -0.069 C  
HETATM    4  H1  UNL     1      -6.019  14.713  70.682  1.00  0.00     0.000 HD 
HETATM    5  N   UNL     1      -7.636  12.756  68.725  1.00  0.00    -0.277 N  
HETATM    6  C   UNL     1      -8.298  12.803  67.527  1.00  0.00    -0.179 C  
HETATM    7  H   UNL     1      -7.572  11.888  69.259  1.00  0.00     0.000 HD 
HETATM    8  N   UNL     1      -8.776  14.020  67.129  1.00  0.00    -0.219 N  
HETATM    9  O   UNL     1      -8.440  11.797  66.845  1.00  0.00    -0.165 OA 
HETATM   10  N   UNL     1      -7.133  15.007  68.463  1.00  0.00    -0.106 NA 
HETATM   11  C   UNL     1      -7.981  15.057  67.498  1.00  0.00    -0.178 C  
ENDROOT
BRANCH   8  12
HETATM   12  C1* UNL     1      -9.610  14.177  65.958  1.00  0.00    -0.225 C  
HETATM   13  O4* UNL     1     -10.410  15.364  66.173  1.00  0.00    -0.283 OA 
HETATM   14  C4* UNL     1     -11.668  14.954  66.764  1.00  0.00    -0.233 C  
HETATM   15  C3* UNL     1     -11.958  13.552  66.245  1.00  0.00    -0.413 C  
HETATM   16  H2* UNL     1     -11.500  12.410  63.905  1.00  0.00     0.000 HD 
HETATM   17  C2* UNL     1     -10.657  13.104  65.574  1.00  0.00    -0.288 C  
HETATM   18  O3* UNL     1     -13.065  13.596  65.340  1.00  0.00    -0.704 OA 
HETATM   19  O2* UNL     1     -10.857  13.069  64.141  1.00  0.00    -0.378 OA 
HETATM   20  H3* UNL     1     -13.246  12.722  65.016  1.00  0.00     0.000 HD 
BRANCH  14  21
HETATM   21  C5* UNL     1     -11.577  14.966  68.299  1.00  0.00    -0.334 C  
HETATM   22  O5* UNL     1     -12.518  14.060  68.864  1.00  0.00    -0.501 OA 
HETATM   23  H5* UNL     1     -12.462  14.068  69.813  1.00  0.00     0.000 HD 
ENDBRANCH  14  21
ENDBRANCH   8  12
TORSDOF 2
ENDMDL
MODEL       75
REMARK 921   NORMALIZED FREE ENERGY PREDICTED BY IDOCK:   -4.41 KCAL/MOL
REMARK 922        TOTAL FREE ENERGY PREDICTED BY IDOCK:   -4.91 KCAL/MOL
REMARK 923 INTER-LIGAND FREE ENERGY PREDICTED BY IDOCK:   -4.88 KCAL/MOL
REMARK 924 INTRA-LIGAND FREE ENERGY PREDICTED BY IDOCK:   -0.02 KCAL/MOL
REMARK 927      BINDING AFFINITY PREDICTED BY RF-SCORE:    0.00 PKD
ROOT
HETATM    1  N   UNL     1     -14.257   9.081  73.206  1.00  0.00    -1.188 NA 
HETATM    2  H2  UNL     1     -14.119   9.947  73.727  1.00  0.00     0.000 HD 
HETATM    3  C   UNL     1     -13.381   8.726  72.237  1.00  0.00    -0.419 C  
HETATM    4  H1  UNL     1     -15.056   8.482  73.413  1.00  0.00     0.000 HD 
HETATM    5  N   UNL     1     -12.371   9.483  71.975  1.00  0.00    -0.356 N  
HETATM    6  C   UNL     1     -11.505   9.072  70.996  1.00  0.00    -0.295 C  
HETATM    7  H   UNL     1     -12.223  10.357  72.479  1.00  0.00     0.000 HD 
HETATM    8  N   UNL     1     -11.457   7.733  70.730  1.00  0.00    -0.281 N  
HETATM    9  O   UNL     1     -10.817   9.880  70.385  1.00  0.00    -0.275 OA 
HETATM   10  N   UNL     1     -13.631   7.574  71.570  1.00  0.00    -0.376 NA 
HETATM   11  C   UNL     1     -12.659   7.115  70.866  1.00  0.00    -0.220 C  
ENDROOT
BRANCH   8  12
HETATM   12  C1* UNL     1     -10.488   7.159  69.823  1.00  0.00    -0.225 C  
HETATM   13  O4* UNL     1     -10.613   5.722  69.935  1.00  0.00    -0.261 OA 
HETATM   14  C4* UNL     1      -9.657   5.265  70.923  1.00  0.00    -0.175 C  
HETATM   15  C3* UNL     1      -8.481   6.233  70.872  1.00  0.00    -0.131 C  
HETATM   16  H2* UNL     1      -7.350   7.526  68.863  1.00  0.00     0.000 HD 
HETATM   17  C2* UNL     1      -8.972   7.404  70.016  1.00  0.00    -0.144 C  
HETATM   18  O3* UNL     1      -7.342   5.574  70.313  1.00  0.00    -0.064 OA 
HETATM   19  O2* UNL     1      -8.280   7.376  68.745  1.00  0.00    -0.126 OA 
HETATM   20  H3* UNL     1      -6.609   6.177  70.281  1.00  0.00     0.000 HD 
BRANCH  14  21
HETATM   21  C5* UNL     1     -10.291   5.241  72.324  1.00  0.00    -0.212 C  
HETATM   22  O5* UNL     1      -9.379   5.740  73.296  1.00  0.00    -0.136 OA 
HETATM   23  H5* UNL     1      -9.771   5.725  74.161  1.00  0.00     0.000 HD 
ENDBRANCH  14  21
ENDBRANCH   8  12
TORSDOF 2
ENDMDL
MODEL       76
REMARK 921   NORMALIZED FREE ENERGY PREDICTED BY IDOCK:   -4.38 KCAL/MOL
REMARK 922        TOTAL FREE ENERGY PREDICTED BY IDOCK:   -4.87 KCAL/MOL
REMARK 923 INTER-LIGAND FREE ENERGY PREDICTED BY IDOCK:   -5.58 KCAL/MOL
REMARK 924 INTRA-LIGAND FREE ENERGY PREDICTED BY IDOCK:    0.71 KCAL/MOL
REMARK 927      BINDING AFFINITY PREDICTED BY RF-SCORE:    0.00 PKD
ROOT
HETATM    1  N   UNL     1     -12.007  12.772  70.601  1.00  0.00    -0.521 NA 
HETATM    2  H2  UNL     1     -11.649  11.842  70.824  1.00  0.00     0.000 HD 
HETATM    3  C   UNL     1     -11.470  13.477  69.578  1.00  0.00    -0.255 C  
HETATM    4  H1  UNL     1     -12.770  13.169  71.148  1.00  0.00     0.000 HD 
HETATM    5  N   UNL     1     -10.506  12.974  68.887  1.00  0.00    -0.415 N  
HETATM    6  C   UNL     1     -10.007  13.722  67.853  1.00  0.00    -0.240 C  
HETATM    7  H   UNL     1     -10.128  12.051  69.102  1.00  0.00     0.000 HD 
HETATM    8  N   UNL     1     -10.836  14.663  67.309  1.00  0.00    -0.298 N  
HETATM    9  O   UNL     1      -8.863  13.554  67.450  1.00  0.00    -0.199 OA 
HETATM   10  N   UNL     1     -11.978  14.711  69.345  1.00  0.00    -0.314 NA 
HETATM   11  C   UNL     1     -11.661  15.242  68.219  1.00  0.00    -0.301 C  
ENDROOT
BRANCH   8  12
HETATM   12  C1* UNL     1     -10.479  15.416  66.128  1.00  0.00    -0.316 C  
HETATM   13  O4* UNL     1      -9.117  15.867  66.316  1.00  0.00    -0.285 OA 
HETATM   14  C4* UNL     1      -9.162  17.192  66.901  1.00  0.00    -0.241 C  
HETATM   15  C3* UNL     1     -10.442  17.848  66.399  1.00  0.00    -0.317 C  
HETATM   16  H2* UNL     1     -11.705  17.701  64.082  1.00  0.00     0.000 HD 
HETATM   17  C2* UNL     1     -11.237  16.711  65.749  1.00  0.00     0.338 C  
HETATM   18  O3* UNL     1     -10.116  18.896  65.482  1.00  0.00    -0.389 OA 
HETATM   19  O2* UNL     1     -11.240  16.905  64.314  1.00  0.00    -1.204 OA 
HETATM   20  H3* UNL     1     -10.915  19.304  65.169  1.00  0.00     0.000 HD 
BRANCH  14  21
HETATM   21  C5* UNL     1      -9.149  17.110  68.437  1.00  0.00    -0.263 C  
HETATM   22  O5* UNL     1      -9.998  18.105  68.999  1.00  0.00    -0.358 OA 
HETATM   23  H5* UNL     1      -9.990  18.054  69.948  1.00  0.00     0.000 HD 
ENDBRANCH  14  21
ENDBRANCH   8  12
TORSDOF 2
ENDMDL
MODEL       77
REMARK 921   NORMALIZED FREE ENERGY PREDICTED BY IDOCK:   -4.38 KCAL/MOL
REMARK 922        TOTAL FREE ENERGY PREDICTED BY IDOCK:   -4.87 KCAL/MOL
REMARK 923 INTER-LIGAND FREE ENERGY PREDICTED BY IDOCK:   -4.90 KCAL/MOL
REMARK 924 INTRA-LIGAND FREE ENERGY PREDICTED BY IDOCK:    0.02 KCAL/MOL
REMARK 927      BINDING AFFINITY PREDICTED BY RF-SCORE:    0.00 PKD
ROOT
HETATM    1  N   UNL     1     -12.369  15.881  69.314  1.00  0.00    -0.459 NA 
HETATM    2  H2  UNL     1     -13.369  15.850  69.514  1.00  0.00     0.000 HD 
HETATM    3  C   UNL     1     -11.678  14.731  69.131  1.00  0.00    -0.313 C  
HETATM    4  H1  UNL     1     -11.888  16.778  69.253  1.00  0.00     0.000 HD 
HETATM    5  N   UNL     1     -12.286  13.597  69.208  1.00  0.00    -0.294 N  
HETATM    6  C   UNL     1     -11.546  12.463  69.000  1.00  0.00    -0.311 C  
HETATM    7  H   UNL     1     -13.283  13.547  69.416  1.00  0.00     0.000 HD 
HETATM    8  N   UNL     1     -10.406  12.592  68.257  1.00  0.00    -0.236 N  
HETATM    9  O   UNL     1     -11.894  11.389  69.472  1.00  0.00    -0.299 OA 
HETATM   10  N   UNL     1     -10.351  14.840  68.888  1.00  0.00    -0.238 NA 
HETATM   11  C   UNL     1      -9.775  13.781  68.443  1.00  0.00    -0.219 C  
ENDROOT
BRANCH   8  12
HETATM   12  C1* UNL     1      -9.616  11.452  67.849  1.00  0.00    -0.177 C  
HETATM   13  O4* UNL     1      -8.723  11.914  66.809  1.00  0.00    -0.186 OA 
HETATM   14  C4* UNL     1      -9.362  11.672  65.531  1.00  0.00    -0.156 C  
HETATM   15  C3* UNL     1     -10.245  10.444  65.711  1.00  0.00    -0.235 C  
HETATM   16  H2* UNL     1      -9.931   8.242  67.139  1.00  0.00     0.000 HD 
HETATM   17  C2* UNL     1     -10.282  10.203  67.223  1.00  0.00    -0.222 C  
HETATM   18  O3* UNL     1      -9.689   9.344  64.985  1.00  0.00    -0.447 OA 
HETATM   19  O2* UNL     1      -9.522   9.008  67.524  1.00  0.00    -0.134 OA 
HETATM   20  H3* UNL     1     -10.240   8.578  65.097  1.00  0.00     0.000 HD 
BRANCH  14  21
HETATM   21  C5* UNL     1     -10.194  12.891  65.099  1.00  0.00    -0.271 C  
HETATM   22  O5* UNL     1      -9.925  13.226  63.742  1.00  0.00    -0.699 OA 
HETATM   23  H5* UNL     1     -10.438  13.980  63.475  1.00  0.00     0.000 HD 
ENDBRANCH  14  21
ENDBRANCH   8  12
TORSDOF 2
ENDMDL
MODEL       78
REMARK 921   NORMALIZED FREE ENERGY PREDICTED BY IDOCK:   -4.38 KCAL/MOL
REMARK 922        TOTAL FREE ENERGY PREDICTED BY IDOCK:   -4.87 KCAL/MOL
REMARK 923 INTER-LIGAND FREE ENERGY PREDICTED BY IDOCK:   -4.87 KCAL/MOL
REMARK 924 INTRA-LIGAND FREE ENERGY PREDICTED BY IDOCK:    0.00 KCAL/MOL
REMARK 927      BINDING AFFINITY PREDICTED BY RF-SCORE:    0.00 PKD
ROOT
HETATM    1  N   UNL     1      -8.879  17.242  65.761  1.00  0.00    -0.504 NA 
HETATM    2  H2  UNL     1      -9.321  17.534  64.889  1.00  0.00     0.000 HD 
HETATM    3  C   UNL     1      -9.435  16.260  66.508  1.00  0.00    -0.264 C  
HETATM    4  H1  UNL     1      -8.017  17.691  66.071  1.00  0.00     0.000 HD 
HETATM    5  N   UNL     1     -10.524  15.693  66.117  1.00  0.00    -0.305 N  
HETATM    6  C   UNL     1     -11.039  14.695  66.900  1.00  0.00    -0.333 C  
HETATM    7  H   UNL     1     -10.985  15.978  65.253  1.00  0.00     0.000 HD 
HETATM    8  N   UNL     1     -10.166  14.034  67.719  1.00  0.00    -0.237 N  
HETATM    9  O   UNL     1     -12.232  14.422  66.869  1.00  0.00    -0.415 OA 
HETATM   10  N   UNL     1      -8.808  15.933  67.663  1.00  0.00    -0.173 NA 
HETATM   11  C   UNL     1      -9.180  14.830  68.207  1.00  0.00    -0.187 C  
ENDROOT
BRANCH   8  12
HETATM   12  C1* UNL     1     -10.556  12.873  68.487  1.00  0.00    -0.253 C  
HETATM   13  O4* UNL     1      -9.366  12.066  68.657  1.00  0.00    -0.156 OA 
HETATM   14  C4* UNL     1      -9.330  11.093  67.584  1.00  0.00    -0.165 C  
HETATM   15  C3* UNL     1     -10.778  10.793  67.217  1.00  0.00    -0.274 C  
HETATM   16  H2* UNL     1     -12.969  10.627  68.686  1.00  0.00     0.000 HD 
HETATM   17  C2* UNL     1     -11.597  11.867  67.940  1.00  0.00    -0.323 C  
HETATM   18  O3* UNL     1     -11.112   9.465  67.630  1.00  0.00    -0.488 OA 
HETATM   19  O2* UNL     1     -12.330  11.245  69.022  1.00  0.00    -0.446 OA 
HETATM   20  H3* UNL     1     -12.015   9.279  67.401  1.00  0.00     0.000 HD 
BRANCH  14  21
HETATM   21  C5* UNL     1      -8.557  11.644  66.374  1.00  0.00    -0.143 C  
HETATM   22  O5* UNL     1      -9.055  11.085  65.164  1.00  0.00    -0.205 OA 
HETATM   23  H5* UNL     1      -8.577  11.425  64.417  1.00  0.00     0.000 HD 
ENDBRANCH  14  21
ENDBRANCH   8  12
TORSDOF 2
ENDMDL
MODEL       79
REMARK 921   NORMALIZED FREE ENERGY PREDICTED BY IDOCK:   -4.38 KCAL/MOL
REMARK 922        TOTAL FREE ENERGY PREDICTED BY IDOCK:   -4.87 KCAL/MOL
REMARK 923 INTER-LIGAND FREE ENERGY PREDICTED BY IDOCK:   -4.90 KCAL/MOL
REMARK 924 INTRA-LIGAND FREE ENERGY PREDICTED BY IDOCK:    0.03 KCAL/MOL
REMARK 927      BINDING AFFINITY PREDICTED BY RF-SCORE:    0.00 PKD
ROOT
HETATM    1  N   UNL     1      -9.454  15.158  69.834  1.00  0.00    -0.468 NA 
HETATM    2  H2  UNL     1      -9.434  14.499  70.613  1.00  0.00     0.000 HD 
HETATM    3  C   UNL     1      -9.373  14.705  68.561  1.00  0.00    -0.201 C  
HETATM    4  H1  UNL     1      -9.536  16.158  70.014  1.00  0.00     0.000 HD 
HETATM    5  N   UNL     1      -9.270  13.440  68.335  1.00  0.00    -0.288 N  
HETATM    6  C   UNL     1      -9.206  13.031  67.029  1.00  0.00    -0.232 C  
HETATM    7  H   UNL     1      -9.238  12.768  69.101  1.00  0.00     0.000 HD 
HETATM    8  N   UNL     1      -9.744  13.865  66.089  1.00  0.00    -0.290 N  
HETATM    9  O   UNL     1      -8.678  11.969  66.727  1.00  0.00    -0.192 OA 
HETATM   10  N   UNL     1      -9.387  15.631  67.574  1.00  0.00    -0.205 NA 
HETATM   11  C   UNL     1      -9.593  15.181  66.388  1.00  0.00    -0.284 C  
ENDROOT
BRANCH   8  12
HETATM   12  C1* UNL     1      -9.865  13.486  64.699  1.00  0.00     0.097 C  
HETATM   13  O4* UNL     1     -10.943  14.276  64.143  1.00  0.00    -0.137 OA 
HETATM   14  C4* UNL     1     -12.164  13.503  64.250  1.00  0.00    -0.396 C  
HETATM   15  C3* UNL     1     -11.762  12.037  64.162  1.00  0.00    -0.372 C  
HETATM   16  H2* UNL     1      -9.883  10.807  62.768  1.00  0.00     0.000 HD 
HETATM   17  C2* UNL     1     -10.236  12.038  64.295  1.00  0.00    -0.318 C  
HETATM   18  O3* UNL     1     -12.211  11.491  62.918  1.00  0.00    -0.942 OA 
HETATM   19  O2* UNL     1      -9.654  11.695  63.015  1.00  0.00    -0.392 OA 
HETATM   20  H3* UNL     1     -11.960  10.576  62.863  1.00  0.00     0.000 HD 
BRANCH  14  21
HETATM   21  C5* UNL     1     -12.881  13.800  65.578  1.00  0.00    -0.419 C  
HETATM   22  O5* UNL     1     -13.767  14.905  65.433  1.00  0.00     0.138 OA 
HETATM   23  H5* UNL     1     -14.210  15.088  66.254  1.00  0.00     0.000 HD 
ENDBRANCH  14  21
ENDBRANCH   8  12
TORSDOF 2
ENDMDL
MODEL       80
REMARK 921   NORMALIZED FREE ENERGY PREDICTED BY IDOCK:   -4.33 KCAL/MOL
REMARK 922        TOTAL FREE ENERGY PREDICTED BY IDOCK:   -4.81 KCAL/MOL
REMARK 923 INTER-LIGAND FREE ENERGY PREDICTED BY IDOCK:   -4.83 KCAL/MOL
REMARK 924 INTRA-LIGAND FREE ENERGY PREDICTED BY IDOCK:    0.02 KCAL/MOL
REMARK 927      BINDING AFFINITY PREDICTED BY RF-SCORE:    0.00 PKD
ROOT
HETATM    1  N   UNL     1      -7.243  17.070  66.642  1.00  0.00    -0.230 NA 
HETATM    2  H2  UNL     1      -6.285  16.718  66.668  1.00  0.00     0.000 HD 
HETATM    3  C   UNL     1      -8.284  16.208  66.726  1.00  0.00    -0.269 C  
HETATM    4  H1  UNL     1      -7.417  18.070  66.551  1.00  0.00     0.000 HD 
HETATM    5  N   UNL     1      -8.063  14.944  66.841  1.00  0.00    -0.340 N  
HETATM    6  C   UNL     1      -9.150  14.115  66.938  1.00  0.00    -0.245 C  
HETATM    7  H   UNL     1      -7.113  14.573  66.859  1.00  0.00     0.000 HD 
HETATM    8  N   UNL     1     -10.311  14.664  67.405  1.00  0.00    -0.241 N  
HETATM    9  O   UNL     1      -9.076  12.938  66.607  1.00  0.00    -0.225 OA 
HETATM   10  N   UNL     1      -9.529  16.736  66.667  1.00  0.00    -0.245 NA 
HETATM   11  C   UNL     1     -10.484  15.957  67.027  1.00  0.00    -0.306 C  
ENDROOT
BRANCH   8  12
HETATM   12  C1* UNL     1     -11.484  13.867  67.686  1.00  0.00    -0.324 C  
HETATM   13  O4* UNL     1     -12.364  14.688  68.489  1.00  0.00    -0.141 OA 
HETATM   14  C4* UNL     1     -12.088  14.407  69.884  1.00  0.00    -0.344 C  
HETATM   15  C3* UNL     1     -11.624  12.958  69.953  1.00  0.00    -0.176 C  
HETATM   16  H2* UNL     1     -12.345  10.810  68.592  1.00  0.00     0.000 HD 
HETATM   17  C2* UNL     1     -11.381  12.552  68.497  1.00  0.00    -0.297 C  
HETATM   18  O3* UNL     1     -12.627  12.164  70.592  1.00  0.00    -0.266 OA 
HETATM   19  O2* UNL     1     -12.409  11.616  68.094  1.00  0.00    -0.429 OA 
HETATM   20  H3* UNL     1     -12.338  11.260  70.636  1.00  0.00     0.000 HD 
BRANCH  14  21
HETATM   21  C5* UNL     1     -11.010  15.359  70.428  1.00  0.00    -0.323 C  
HETATM   22  O5* UNL     1     -11.321  16.709  70.101  1.00  0.00    -0.431 OA 
HETATM   23  H5* UNL     1     -10.655  17.296  70.437  1.00  0.00     0.000 HD 
ENDBRANCH  14  21
ENDBRANCH   8  12
TORSDOF 2
ENDMDL
MODEL       81
REMARK 921   NORMALIZED FREE ENERGY PREDICTED BY IDOCK:   -4.32 KCAL/MOL
REMARK 922        TOTAL FREE ENERGY PREDICTED BY IDOCK:   -4.80 KCAL/MOL
REMARK 923 INTER-LIGAND FREE ENERGY PREDICTED BY IDOCK:   -5.61 KCAL/MOL
REMARK 924 INTRA-LIGAND FREE ENERGY PREDICTED BY IDOCK:    0.80 KCAL/MOL
REMARK 927      BINDING AFFINITY PREDICTED BY RF-SCORE:    0.00 PKD
ROOT
HETATM    1  N   UNL     1     -12.637   9.799  70.446  1.00  0.00    -0.504 NA 
HETATM    2  H2  UNL     1     -13.004   9.855  71.397  1.00  0.00     0.000 HD 
HETATM    3  C   UNL     1     -12.208  10.918  69.818  1.00  0.00    -0.311 C  
HETATM    4  H1  UNL     1     -12.592   8.899  69.968  1.00  0.00     0.000 HD 
HETATM    5  N   UNL     1     -12.264  12.055  70.421  1.00  0.00    -0.325 N  
HETATM    6  C   UNL     1     -11.805  13.156  69.749  1.00  0.00    -0.316 C  
HETATM    7  H   UNL     1     -12.637  12.132  71.368  1.00  0.00     0.000 HD 
HETATM    8  N   UNL     1     -10.892  12.941  68.754  1.00  0.00    -0.253 N  
HETATM    9  O   UNL     1     -12.208  14.278  70.026  1.00  0.00    -0.323 OA 
HETATM   10  N   UNL     1     -11.750  10.779  68.551  1.00  0.00    -0.432 NA 
HETATM   11  C   UNL     1     -11.096  11.779  68.080  1.00  0.00    -0.243 C  
ENDROOT
BRANCH   8  12
HETATM   12  C1* UNL     1     -10.228  14.026  68.066  1.00  0.00    -0.238 C  
HETATM   13  O4* UNL     1     -11.267  14.904  67.571  1.00  0.00    -0.307 OA 
HETATM   14  C4* UNL     1     -11.581  14.504  66.214  1.00  0.00    -0.360 C  
HETATM   15  C3* UNL     1     -10.301  13.927  65.623  1.00  0.00    -0.325 C  
HETATM   16  H2* UNL     1      -7.760  14.583  65.944  1.00  0.00     0.000 HD 
HETATM   17  C2* UNL     1      -9.355  13.763  66.816  1.00  0.00    -0.266 C  
HETATM   18  O3* UNL     1      -9.790  14.817  64.626  1.00  0.00    -0.466 OA 
HETATM   19  O2* UNL     1      -8.296  14.744  66.711  1.00  0.00    -0.200 OA 
HETATM   20  H3* UNL     1      -8.992  14.457  64.257  1.00  0.00     0.000 HD 
BRANCH  14  21
HETATM   21  C5* UNL     1     -12.713  13.464  66.201  1.00  0.00    -0.078 C  
HETATM   22  O5* UNL     1     -12.674  12.697  65.002  1.00  0.00    -0.658 OA 
HETATM   23  H5* UNL     1     -13.374  12.054  64.994  1.00  0.00     0.000 HD 
ENDBRANCH  14  21
ENDBRANCH   8  12
TORSDOF 2
ENDMDL
MODEL       82
REMARK 921   NORMALIZED FREE ENERGY PREDICTED BY IDOCK:   -4.32 KCAL/MOL
REMARK 922        TOTAL FREE ENERGY PREDICTED BY IDOCK:   -4.80 KCAL/MOL
REMARK 923 INTER-LIGAND FREE ENERGY PREDICTED BY IDOCK:   -4.79 KCAL/MOL
REMARK 924 INTRA-LIGAND FREE ENERGY PREDICTED BY IDOCK:   -0.01 KCAL/MOL
REMARK 927      BINDING AFFINITY PREDICTED BY RF-SCORE:    0.00 PKD
ROOT
HETATM    1  N   UNL     1      -9.815  13.045  67.935  1.00  0.00    -0.218 NA 
HETATM    2  H2  UNL     1      -9.880  12.731  68.904  1.00  0.00     0.000 HD 
HETATM    3  C   UNL     1      -9.918  14.362  67.640  1.00  0.00    -0.224 C  
HETATM    4  H1  UNL     1      -9.673  12.366  67.188  1.00  0.00     0.000 HD 
HETATM    5  N   UNL     1     -10.097  15.220  68.585  1.00  0.00    -0.216 N  
HETATM    6  C   UNL     1     -10.180  16.542  68.237  1.00  0.00    -0.268 C  
HETATM    7  H   UNL     1     -10.174  14.924  69.558  1.00  0.00     0.000 HD 
HETATM    8  N   UNL     1      -9.586  16.914  67.063  1.00  0.00    -0.241 N  
HETATM    9  O   UNL     1     -10.771  17.345  68.947  1.00  0.00    -0.284 OA 
HETATM   10  N   UNL     1      -9.842  14.710  66.334  1.00  0.00    -0.272 NA 
HETATM   11  C   UNL     1      -9.658  15.960  66.098  1.00  0.00    -0.333 C  
ENDROOT
BRANCH   8  12
HETATM   12  C1* UNL     1      -9.482  18.297  66.654  1.00  0.00    -0.308 C  
HETATM   13  O4* UNL     1      -8.338  18.386  65.772  1.00  0.00    -0.478 OA 
HETATM   14  C4* UNL     1      -7.185  18.746  66.572  1.00  0.00    -0.230 C  
HETATM   15  C3* UNL     1      -7.704  19.584  67.734  1.00  0.00    -0.286 C  
HETATM   16  H2* UNL     1      -9.662  21.353  67.893  1.00  0.00     0.000 HD 
HETATM   17  C2* UNL     1      -9.225  19.418  67.690  1.00  0.00    -0.309 C  
HETATM   18  O3* UNL     1      -7.287  20.942  67.569  1.00  0.00    -0.335 OA 
HETATM   19  O2* UNL     1      -9.820  20.665  67.257  1.00  0.00    -0.471 OA 
HETATM   20  H3* UNL     1      -7.611  21.465  68.293  1.00  0.00     0.000 HD 
BRANCH  14  21
HETATM   21  C5* UNL     1      -6.460  17.488  67.080  1.00  0.00    -0.167 C  
HETATM   22  O5* UNL     1      -5.677  17.791  68.230  1.00  0.00    -0.154 OA 
HETATM   23  H5* UNL     1      -5.229  17.014  68.543  1.00  0.00     0.000 HD 
ENDBRANCH  14  21
ENDBRANCH   8  12
TORSDOF 2
ENDMDL
MODEL       83
REMARK 921   NORMALIZED FREE ENERGY PREDICTED BY IDOCK:   -4.29 KCAL/MOL
REMARK 922        TOTAL FREE ENERGY PREDICTED BY IDOCK:   -4.77 KCAL/MOL
REMARK 923 INTER-LIGAND FREE ENERGY PREDICTED BY IDOCK:   -4.78 KCAL/MOL
REMARK 924 INTRA-LIGAND FREE ENERGY PREDICTED BY IDOCK:    0.01 KCAL/MOL
REMARK 927      BINDING AFFINITY PREDICTED BY RF-SCORE:    0.00 PKD
ROOT
HETATM    1  N   UNL     1      -9.470   8.500  70.458  1.00  0.00    -0.165 NA 
HETATM    2  H2  UNL     1      -9.180   8.805  71.388  1.00  0.00     0.000 HD 
HETATM    3  C   UNL     1     -10.150   9.345  69.648  1.00  0.00    -0.206 C  
HETATM    4  H1  UNL     1      -9.248   7.557  70.138  1.00  0.00     0.000 HD 
HETATM    5  N   UNL     1     -10.430  10.536  70.053  1.00  0.00    -0.449 N  
HETATM    6  C   UNL     1     -11.106  11.359  69.192  1.00  0.00    -0.258 C  
HETATM    7  H   UNL     1     -10.157  10.855  70.983  1.00  0.00     0.000 HD 
HETATM    8  N   UNL     1     -10.997  11.086  67.857  1.00  0.00    -0.242 N  
HETATM    9  O   UNL     1     -11.785  12.288  69.610  1.00  0.00    -0.301 OA 
HETATM   10  N   UNL     1     -10.521   8.874  68.435  1.00  0.00    -0.207 NA 
HETATM   11  C   UNL     1     -10.906   9.758  67.586  1.00  0.00    -0.239 C  
ENDROOT
BRANCH   8  12
HETATM   12  C1* UNL     1     -11.545  11.958  66.842  1.00  0.00    -0.285 C  
HETATM   13  O4* UNL     1     -11.160  11.402  65.563  1.00  0.00    -0.239 OA 
HETATM   14  C4* UNL     1      -9.923  12.037  65.153  1.00  0.00    -0.239 C  
HETATM   15  C3* UNL     1      -9.937  13.441  65.746  1.00  0.00    -0.252 C  
HETATM   16  H2* UNL     1     -11.899  15.167  66.144  1.00  0.00     0.000 HD 
HETATM   17  C2* UNL     1     -11.102  13.438  66.739  1.00  0.00    -0.292 C  
HETATM   18  O3* UNL     1     -10.099  14.401  64.699  1.00  0.00    -0.558 OA 
HETATM   19  O2* UNL     1     -12.170  14.258  66.208  1.00  0.00    -0.436 OA 
HETATM   20  H3* UNL     1     -10.107  15.276  65.069  1.00  0.00     0.000 HD 
BRANCH  14  21
HETATM   21  C5* UNL     1      -8.709  11.238  65.654  1.00  0.00    -0.076 C  
HETATM   22  O5* UNL     1      -7.765  12.100  66.280  1.00  0.00    -0.333 OA 
HETATM   23  H5* UNL     1      -7.015  11.606  66.589  1.00  0.00     0.000 HD 
ENDBRANCH  14  21
ENDBRANCH   8  12
TORSDOF 2
ENDMDL
MODEL       84
REMARK 921   NORMALIZED FREE ENERGY PREDICTED BY IDOCK:   -4.27 KCAL/MOL
REMARK 922        TOTAL FREE ENERGY PREDICTED BY IDOCK:   -4.74 KCAL/MOL
REMARK 923 INTER-LIGAND FREE ENERGY PREDICTED BY IDOCK:   -4.82 KCAL/MOL
REMARK 924 INTRA-LIGAND FREE ENERGY PREDICTED BY IDOCK:    0.08 KCAL/MOL
REMARK 927      BINDING AFFINITY PREDICTED BY RF-SCORE:    0.00 PKD
ROOT
HETATM    1  N   UNL     1     -11.319   4.241  65.266  1.00  0.00    -0.905 NA 
HETATM    2  H2  UNL     1     -12.248   4.450  64.897  1.00  0.00     0.000 HD 
HETATM    3  C   UNL     1     -10.688   5.136  66.061  1.00  0.00    -0.140 C  
HETATM    4  H1  UNL     1     -10.866   3.357  65.036  1.00  0.00     0.000 HD 
HETATM    5  N   UNL     1     -11.261   6.253  66.351  1.00  0.00    -0.632 N  
HETATM    6  C   UNL     1     -10.588   7.120  67.171  1.00  0.00    -0.347 C  
HETATM    7  H   UNL     1     -12.185   6.484  65.983  1.00  0.00     0.000 HD 
HETATM    8  N   UNL     1      -9.648   6.582  68.006  1.00  0.00    -0.120 N  
HETATM    9  O   UNL     1     -10.817   8.322  67.142  1.00  0.00    -0.244 OA 
HETATM   10  N   UNL     1      -9.452   4.806  66.502  1.00  0.00    -0.143 NA 
HETATM   11  C   UNL     1      -8.993   5.523  67.465  1.00  0.00    -0.107 C  
ENDROOT
BRANCH   8  12
HETATM   12  C1* UNL     1      -8.971   7.367  69.014  1.00  0.00    -0.131 C  
HETATM   13  O4* UNL     1      -8.934   6.560  70.215  1.00  0.00    -0.152 OA 
HETATM   14  C4* UNL     1     -10.093   6.899  71.017  1.00  0.00    -0.193 C  
HETATM   15  C3* UNL     1     -10.415   8.358  70.723  1.00  0.00    -0.197 C  
HETATM   16  H2* UNL     1      -8.863  10.439  70.222  1.00  0.00     0.000 HD 
HETATM   17  C2* UNL     1      -9.558   8.713  69.505  1.00  0.00    -0.170 C  
HETATM   18  O3* UNL     1     -10.110   9.156  71.870  1.00  0.00    -0.322 OA 
HETATM   19  O2* UNL     1      -8.503   9.613  69.921  1.00  0.00    -0.162 OA 
HETATM   20  H3* UNL     1     -10.311  10.067  71.687  1.00  0.00     0.000 HD 
BRANCH  14  21
HETATM   21  C5* UNL     1     -11.282   5.989  70.667  1.00  0.00    -0.277 C  
HETATM   22  O5* UNL     1     -12.413   6.767  70.291  1.00  0.00    -0.579 OA 
HETATM   23  H5* UNL     1     -13.149   6.205  70.075  1.00  0.00     0.000 HD 
ENDBRANCH  14  21
ENDBRANCH   8  12
TORSDOF 2
ENDMDL
MODEL       85
REMARK 921   NORMALIZED FREE ENERGY PREDICTED BY IDOCK:   -4.18 KCAL/MOL
REMARK 922        TOTAL FREE ENERGY PREDICTED BY IDOCK:   -4.64 KCAL/MOL
REMARK 923 INTER-LIGAND FREE ENERGY PREDICTED BY IDOCK:   -4.62 KCAL/MOL
REMARK 924 INTRA-LIGAND FREE ENERGY PREDICTED BY IDOCK:   -0.02 KCAL/MOL
REMARK 927      BINDING AFFINITY PREDICTED BY RF-SCORE:    0.00 PKD
ROOT
HETATM    1  N   UNL     1     -11.022   5.739  70.428  1.00  0.00    -0.291 NA 
HETATM    2  H2  UNL     1     -11.612   5.029  69.993  1.00  0.00     0.000 HD 
HETATM    3  C   UNL     1     -10.619   6.816  69.714  1.00  0.00    -0.228 C  
HETATM    4  H1  UNL     1     -10.735   5.638  71.402  1.00  0.00     0.000 HD 
HETATM    5  N   UNL     1     -10.982   6.944  68.484  1.00  0.00    -0.446 N  
HETATM    6  C   UNL     1     -10.560   8.059  67.809  1.00  0.00    -0.170 C  
HETATM    7  H   UNL     1     -11.563   6.239  68.030  1.00  0.00     0.000 HD 
HETATM    8  N   UNL     1     -10.244   9.157  68.558  1.00  0.00    -0.193 N  
HETATM    9  O   UNL     1     -10.463   8.057  66.588  1.00  0.00    -0.303 OA 
HETATM   10  N   UNL     1      -9.823   7.712  70.344  1.00  0.00    -0.183 NA 
HETATM   11  C   UNL     1      -9.685   8.847  69.757  1.00  0.00    -0.175 C  
ENDROOT
BRANCH   8  12
HETATM   12  C1* UNL     1      -9.922  10.434  67.960  1.00  0.00    -0.155 C  
HETATM   13  O4* UNL     1      -9.856  11.395  69.040  1.00  0.00    -0.153 OA 
HETATM   14  C4* UNL     1     -11.161  12.012  69.169  1.00  0.00    -0.246 C  
HETATM   15  C3* UNL     1     -11.784  12.012  67.779  1.00  0.00    -0.309 C  
HETATM   16  H2* UNL     1     -10.728  12.326  65.376  1.00  0.00     0.000 HD 
HETATM   17  C2* UNL     1     -10.879  11.102  66.943  1.00  0.00    -0.279 C  
HETATM   18  O3* UNL     1     -11.842  13.351  67.280  1.00  0.00    -0.352 OA 
HETATM   19  O2* UNL     1     -10.141  11.916  66.000  1.00  0.00    -0.219 OA 
HETATM   20  H3* UNL     1     -12.230  13.350  66.412  1.00  0.00     0.000 HD 
BRANCH  14  21
HETATM   21  C5* UNL     1     -12.036  11.233  70.166  1.00  0.00    -0.369 C  
HETATM   22  O5* UNL     1     -13.101  10.575  69.490  1.00  0.00    -0.545 OA 
HETATM   23  H5* UNL     1     -13.642  10.094  70.106  1.00  0.00     0.000 HD 
ENDBRANCH  14  21
ENDBRANCH   8  12
TORSDOF 2
ENDMDL
MODEL       86
REMARK 921   NORMALIZED FREE ENERGY PREDICTED BY IDOCK:   -4.18 KCAL/MOL
REMARK 922        TOTAL FREE ENERGY PREDICTED BY IDOCK:   -4.64 KCAL/MOL
REMARK 923 INTER-LIGAND FREE ENERGY PREDICTED BY IDOCK:   -5.87 KCAL/MOL
REMARK 924 INTRA-LIGAND FREE ENERGY PREDICTED BY IDOCK:    1.23 KCAL/MOL
REMARK 927      BINDING AFFINITY PREDICTED BY RF-SCORE:    0.00 PKD
ROOT
HETATM    1  N   UNL     1     -12.386  11.795  62.914  1.00  0.00    -0.810 NA 
HETATM    2  H2  UNL     1     -13.194  12.240  62.477  1.00  0.00     0.000 HD 
HETATM    3  C   UNL     1     -12.048  12.106  64.187  1.00  0.00    -0.409 C  
HETATM    4  H1  UNL     1     -11.833  11.116  62.392  1.00  0.00     0.000 HD 
HETATM    5  N   UNL     1     -12.747  12.964  64.847  1.00  0.00    -0.701 N  
HETATM    6  C   UNL     1     -12.373  13.233  66.137  1.00  0.00    -0.358 C  
HETATM    7  H   UNL     1     -13.552  13.426  64.423  1.00  0.00     0.000 HD 
HETATM    8  N   UNL     1     -11.657  12.269  66.791  1.00  0.00    -0.372 N  
HETATM    9  O   UNL     1     -12.662  14.298  66.668  1.00  0.00    -0.197 OA 
HETATM   10  N   UNL     1     -10.955  11.495  64.702  1.00  0.00    -0.310 NA 
HETATM   11  C   UNL     1     -10.815  11.581  65.977  1.00  0.00    -0.276 C  
ENDROOT
BRANCH   8  12
HETATM   12  C1* UNL     1     -11.324  12.372  68.194  1.00  0.00    -0.291 C  
HETATM   13  O4* UNL     1     -10.021  11.765  68.359  1.00  0.00    -0.194 OA 
HETATM   14  C4* UNL     1     -10.219  10.374  68.716  1.00  0.00    -0.187 C  
HETATM   15  C3* UNL     1     -11.534  10.303  69.482  1.00  0.00    -0.210 C  
HETATM   16  H2* UNL     1     -12.676  11.974  71.181  1.00  0.00     0.000 HD 
HETATM   17  C2* UNL     1     -12.186  11.672  69.272  1.00  0.00    -0.164 C  
HETATM   18  O3* UNL     1     -11.271  10.016  70.858  1.00  0.00    -0.323 OA 
HETATM   19  O2* UNL     1     -12.147  12.405  70.519  1.00  0.00    -0.363 OA 
HETATM   20  H3* UNL     1     -12.091   9.971  71.336  1.00  0.00     0.000 HD 
BRANCH  14  21
HETATM   21  C5* UNL     1     -10.264   9.491  67.458  1.00  0.00    -0.228 C  
HETATM   22  O5* UNL     1     -11.128   8.378  67.658  1.00  0.00    -0.478 OA 
HETATM   23  H5* UNL     1     -11.156   7.832  66.881  1.00  0.00     0.000 HD 
ENDBRANCH  14  21
ENDBRANCH   8  12
TORSDOF 2
ENDMDL
MODEL       87
REMARK 921   NORMALIZED FREE ENERGY PREDICTED BY IDOCK:   -4.17 KCAL/MOL
REMARK 922        TOTAL FREE ENERGY PREDICTED BY IDOCK:   -4.63 KCAL/MOL
REMARK 923 INTER-LIGAND FREE ENERGY PREDICTED BY IDOCK:   -5.38 KCAL/MOL
REMARK 924 INTRA-LIGAND FREE ENERGY PREDICTED BY IDOCK:    0.75 KCAL/MOL
REMARK 927      BINDING AFFINITY PREDICTED BY RF-SCORE:    0.00 PKD
ROOT
HETATM    1  N   UNL     1     -12.864  11.212  71.796  1.00  0.00    -0.416 NA 
HETATM    2  H2  UNL     1     -13.069  10.231  71.987  1.00  0.00     0.000 HD 
HETATM    3  C   UNL     1     -12.399  11.583  70.580  1.00  0.00    -0.364 C  
HETATM    4  H1  UNL     1     -13.009  11.914  72.521  1.00  0.00     0.000 HD 
HETATM    5  N   UNL     1     -12.216  10.696  69.664  1.00  0.00    -0.514 N  
HETATM    6  C   UNL     1     -11.757  11.124  68.446  1.00  0.00    -0.279 C  
HETATM    7  H   UNL     1     -12.406   9.709  69.840  1.00  0.00     0.000 HD 
HETATM    8  N   UNL     1     -12.000  12.427  68.113  1.00  0.00    -0.306 N  
HETATM    9  O   UNL     1     -11.149  10.367  67.701  1.00  0.00    -0.310 OA 
HETATM   10  N   UNL     1     -12.128  12.898  70.397  1.00  0.00    -0.353 NA 
HETATM   11  C   UNL     1     -11.963  13.269  69.178  1.00  0.00    -0.296 C  
ENDROOT
BRANCH   8  12
HETATM   12  C1* UNL     1     -11.693  12.961  66.805  1.00  0.00    -0.383 C  
HETATM   13  O4* UNL     1     -10.423  12.392  66.410  1.00  0.00    -0.237 OA 
HETATM   14  C4* UNL     1      -9.377  13.313  66.808  1.00  0.00    -0.252 C  
HETATM   15  C3* UNL     1      -9.983  14.710  66.754  1.00  0.00    -0.261 C  
HETATM   16  H2* UNL     1     -11.752  15.801  65.120  1.00  0.00     0.000 HD 
HETATM   17  C2* UNL     1     -11.488  14.480  66.591  1.00  0.00    -0.366 C  
HETATM   18  O3* UNL     1      -9.410  15.439  65.665  1.00  0.00    -0.352 OA 
HETATM   19  O2* UNL     1     -11.878  14.868  65.252  1.00  0.00    -0.313 OA 
HETATM   20  H3* UNL     1      -9.788  16.310  65.632  1.00  0.00     0.000 HD 
BRANCH  14  21
HETATM   21  C5* UNL     1      -8.872  12.985  68.223  1.00  0.00    -0.172 C  
HETATM   22  O5* UNL     1      -8.113  14.069  68.748  1.00  0.00    -0.208 OA 
HETATM   23  H5* UNL     1      -7.801  13.866  69.622  1.00  0.00     0.000 HD 
ENDBRANCH  14  21
ENDBRANCH   8  12
TORSDOF 2
ENDMDL
MODEL       88
REMARK 921   NORMALIZED FREE ENERGY PREDICTED BY IDOCK:   -4.14 KCAL/MOL
REMARK 922        TOTAL FREE ENERGY PREDICTED BY IDOCK:   -4.60 KCAL/MOL
REMARK 923 INTER-LIGAND FREE ENERGY PREDICTED BY IDOCK:   -5.43 KCAL/MOL
REMARK 924 INTRA-LIGAND FREE ENERGY PREDICTED BY IDOCK:    0.82 KCAL/MOL
REMARK 927      BINDING AFFINITY PREDICTED BY RF-SCORE:    0.00 PKD
ROOT
HETATM    1  N   UNL     1     -12.642  13.614  64.286  1.00  0.00    -0.664 NA 
HETATM    2  H2  UNL     1     -13.442  13.062  64.598  1.00  0.00     0.000 HD 
HETATM    3  C   UNL     1     -11.884  14.278  65.190  1.00  0.00    -0.384 C  
HETATM    4  H1  UNL     1     -12.413  13.667  63.294  1.00  0.00     0.000 HD 
HETATM    5  N   UNL     1     -12.174  14.211  66.444  1.00  0.00    -0.459 N  
HETATM    6  C   UNL     1     -11.367  14.889  67.321  1.00  0.00    -0.349 C  
HETATM    7  H   UNL     1     -12.975  13.672  66.773  1.00  0.00     0.000 HD 
HETATM    8  N   UNL     1     -10.088  15.148  66.915  1.00  0.00    -0.252 N  
HETATM    9  O   UNL     1     -11.788  15.251  68.412  1.00  0.00    -0.339 OA 
HETATM   10  N   UNL     1     -10.849  15.008  64.712  1.00  0.00    -0.390 NA 
HETATM   11  C   UNL     1      -9.986  15.392  65.583  1.00  0.00    -0.362 C  
ENDROOT
BRANCH   8  12
HETATM   12  C1* UNL     1      -9.101  15.729  67.797  1.00  0.00    -0.188 C  
HETATM   13  O4* UNL     1      -9.721  16.881  68.416  1.00  0.00    -0.244 OA 
HETATM   14  C4* UNL     1      -9.397  18.046  67.617  1.00  0.00    -0.259 C  
HETATM   15  C3* UNL     1      -8.036  17.777  66.986  1.00  0.00    -0.219 C  
HETATM   16  H2* UNL     1      -5.895  16.517  67.886  1.00  0.00     0.000 HD 
HETATM   17  C2* UNL     1      -7.769  16.292  67.244  1.00  0.00    -0.178 C  
HETATM   18  O3* UNL     1      -7.055  18.631  67.580  1.00  0.00    -0.209 OA 
HETATM   19  O2* UNL     1      -6.712  16.171  68.225  1.00  0.00    -0.118 OA 
HETATM   20  H3* UNL     1      -6.207  18.464  67.186  1.00  0.00     0.000 HD 
BRANCH  14  21
HETATM   21  C5* UNL     1     -10.468  18.282  66.539  1.00  0.00    -0.356 C  
HETATM   22  O5* UNL     1     -10.729  19.673  66.389  1.00  0.00    -0.458 OA 
HETATM   23  H5* UNL     1     -11.392  19.819  65.723  1.00  0.00     0.000 HD 
ENDBRANCH  14  21
ENDBRANCH   8  12
TORSDOF 2
ENDMDL
MODEL       89
REMARK 921   NORMALIZED FREE ENERGY PREDICTED BY IDOCK:   -4.14 KCAL/MOL
REMARK 922        TOTAL FREE ENERGY PREDICTED BY IDOCK:   -4.60 KCAL/MOL
REMARK 923 INTER-LIGAND FREE ENERGY PREDICTED BY IDOCK:   -4.88 KCAL/MOL
REMARK 924 INTRA-LIGAND FREE ENERGY PREDICTED BY IDOCK:    0.28 KCAL/MOL
REMARK 927      BINDING AFFINITY PREDICTED BY RF-SCORE:    0.00 PKD
ROOT
HETATM    1  N   UNL     1     -11.594  12.836  69.314  1.00  0.00    -0.300 NA 
HETATM    2  H2  UNL     1     -10.905  12.083  69.296  1.00  0.00     0.000 HD 
HETATM    3  C   UNL     1     -11.188  14.127  69.296  1.00  0.00    -0.269 C  
HETATM    4  H1  UNL     1     -12.590  12.616  69.345  1.00  0.00     0.000 HD 
HETATM    5  N   UNL     1      -9.930  14.404  69.256  1.00  0.00    -0.417 N  
HETATM    6  C   UNL     1      -9.570  15.725  69.224  1.00  0.00    -0.270 C  
HETATM    7  H   UNL     1      -9.227  13.665  69.248  1.00  0.00     0.000 HD 
HETATM    8  N   UNL     1     -10.493  16.610  68.739  1.00  0.00    -0.301 N  
HETATM    9  O   UNL     1      -8.472  16.089  69.625  1.00  0.00    -0.119 OA 
HETATM   10  N   UNL     1     -12.150  15.078  69.340  1.00  0.00    -0.281 NA 
HETATM   11  C   UNL     1     -11.773  16.269  69.040  1.00  0.00    -0.165 C  
ENDROOT
BRANCH   8  12
HETATM   12  C1* UNL     1     -10.186  18.006  68.524  1.00  0.00    -0.385 C  
HETATM   13  O4* UNL     1     -10.657  18.336  67.196  1.00  0.00    -0.395 OA 
HETATM   14  C4* UNL     1      -9.554  18.160  66.273  1.00  0.00    -0.239 C  
HETATM   15  C3* UNL     1      -8.280  18.452  67.056  1.00  0.00    -0.247 C  
HETATM   16  H2* UNL     1      -7.751  20.191  68.975  1.00  0.00     0.000 HD 
HETATM   17  C2* UNL     1      -8.723  18.510  68.521  1.00  0.00    -0.326 C  
HETATM   18  O3* UNL     1      -7.707  19.680  66.598  1.00  0.00    -0.252 OA 
HETATM   19  O2* UNL     1      -8.649  19.882  68.977  1.00  0.00    -0.131 OA 
HETATM   20  H3* UNL     1      -6.913  19.862  67.086  1.00  0.00     0.000 HD 
BRANCH  14  21
HETATM   21  C5* UNL     1      -9.539  16.730  65.709  1.00  0.00    -0.079 C  
HETATM   22  O5* UNL     1     -10.672  16.508  64.877  1.00  0.00    -0.702 OA 
HETATM   23  H5* UNL     1     -10.663  15.624  64.528  1.00  0.00     0.000 HD 
ENDBRANCH  14  21
ENDBRANCH   8  12
TORSDOF 2
ENDMDL
MODEL       90
REMARK 921   NORMALIZED FREE ENERGY PREDICTED BY IDOCK:   -4.09 KCAL/MOL
REMARK 922        TOTAL FREE ENERGY PREDICTED BY IDOCK:   -4.55 KCAL/MOL
REMARK 923 INTER-LIGAND FREE ENERGY PREDICTED BY IDOCK:   -5.35 KCAL/MOL
REMARK 924 INTRA-LIGAND FREE ENERGY PREDICTED BY IDOCK:    0.81 KCAL/MOL
REMARK 927      BINDING AFFINITY PREDICTED BY RF-SCORE:    0.00 PKD
ROOT
HETATM    1  N   UNL     1     -10.171  11.906  65.736  1.00  0.00    -0.234 NA 
HETATM    2  H2  UNL     1      -9.500  11.145  65.852  1.00  0.00     0.000 HD 
HETATM    3  C   UNL     1      -9.855  13.156  66.148  1.00  0.00    -0.280 C  
HETATM    4  H1  UNL     1     -11.079  11.725  65.310  1.00  0.00     0.000 HD 
HETATM    5  N   UNL     1      -8.707  13.384  66.687  1.00  0.00    -0.441 N  
HETATM    6  C   UNL     1      -8.430  14.669  67.074  1.00  0.00    -0.210 C  
HETATM    7  H   UNL     1      -8.028  12.634  66.820  1.00  0.00     0.000 HD 
HETATM    8  N   UNL     1      -9.113  15.670  66.442  1.00  0.00    -0.293 N  
HETATM    9  O   UNL     1      -7.613  14.899  67.956  1.00  0.00    -0.105 OA 
HETATM   10  N   UNL     1     -10.795  14.117  65.983  1.00  0.00    -0.293 NA 
HETATM   11  C   UNL     1     -10.386  15.327  66.113  1.00  0.00    -0.302 C  
ENDROOT
BRANCH   8  12
HETATM   12  C1* UNL     1      -8.812  17.067  66.658  1.00  0.00    -0.254 C  
HETATM   13  O4* UNL     1      -8.551  17.223  68.073  1.00  0.00    -0.221 OA 
HETATM   14  C4* UNL     1      -9.793  17.599  68.718  1.00  0.00    -0.334 C  
HETATM   15  C3* UNL     1     -10.599  18.383  67.690  1.00  0.00    -0.408 C  
HETATM   16  H2* UNL     1      -9.866  20.076  65.797  1.00  0.00     0.000 HD 
HETATM   17  C2* UNL     1      -9.863  18.165  66.365  1.00  0.00    -0.353 C  
HETATM   18  O3* UNL     1     -10.657  19.759  68.075  1.00  0.00    -0.418 OA 
HETATM   19  O2* UNL     1      -9.221  19.403  65.977  1.00  0.00    -0.407 OA 
HETATM   20  H3* UNL     1     -11.159  20.248  67.434  1.00  0.00     0.000 HD 
BRANCH  14  21
HETATM   21  C5* UNL     1     -10.562  16.353  69.188  1.00  0.00    -0.308 C  
HETATM   22  O5* UNL     1     -11.288  16.631  70.380  1.00  0.00    -0.493 OA 
HETATM   23  H5* UNL     1     -11.762  15.861  70.670  1.00  0.00     0.000 HD 
ENDBRANCH  14  21
ENDBRANCH   8  12
TORSDOF 2
ENDMDL
MODEL       91
REMARK 921   NORMALIZED FREE ENERGY PREDICTED BY IDOCK:   -4.09 KCAL/MOL
REMARK 922        TOTAL FREE ENERGY PREDICTED BY IDOCK:   -4.54 KCAL/MOL
REMARK 923 INTER-LIGAND FREE ENERGY PREDICTED BY IDOCK:   -4.56 KCAL/MOL
REMARK 924 INTRA-LIGAND FREE ENERGY PREDICTED BY IDOCK:    0.01 KCAL/MOL
REMARK 927      BINDING AFFINITY PREDICTED BY RF-SCORE:    0.00 PKD
ROOT
HETATM    1  N   UNL     1     -10.695   3.742  73.309  1.00  0.00    -0.186 NA 
HETATM    2  H2  UNL     1     -10.871   2.927  72.721  1.00  0.00     0.000 HD 
HETATM    3  C   UNL     1     -10.449   4.946  72.743  1.00  0.00    -0.205 C  
HETATM    4  H1  UNL     1     -10.705   3.650  74.325  1.00  0.00     0.000 HD 
HETATM    5  N   UNL     1     -10.437   5.062  71.459  1.00  0.00    -0.189 N  
HETATM    6  C   UNL     1     -10.197   6.305  70.935  1.00  0.00    -0.193 C  
HETATM    7  H   UNL     1     -10.601   4.257  70.855  1.00  0.00     0.000 HD 
HETATM    8  N   UNL     1     -10.484   7.381  71.728  1.00  0.00    -0.197 N  
HETATM    9  O   UNL     1      -9.735   6.435  69.808  1.00  0.00    -0.153 OA 
HETATM   10  N   UNL     1     -10.205   5.984  73.578  1.00  0.00    -0.204 NA 
HETATM   11  C   UNL     1     -10.253   7.152  73.047  1.00  0.00    -0.251 C  
ENDROOT
BRANCH   8  12
HETATM   12  C1* UNL     1     -10.409   8.740  71.242  1.00  0.00    -0.261 C  
HETATM   13  O4* UNL     1     -11.190   9.551  72.151  1.00  0.00    -0.066 OA 
HETATM   14  C4* UNL     1     -12.534   9.650  71.618  1.00  0.00    -0.407 C  
HETATM   15  C3* UNL     1     -12.410   9.566  70.102  1.00  0.00     0.346 C  
HETATM   16  H2* UNL     1     -10.571  10.468  68.432  1.00  0.00     0.000 HD 
HETATM   17  C2* UNL     1     -10.966   9.123  69.850  1.00  0.00    -0.204 C  
HETATM   18  O3* UNL     1     -12.711  10.839  69.525  1.00  0.00    -0.572 OA 
HETATM   19  O2* UNL     1     -10.228  10.234  69.287  1.00  0.00    -0.201 OA 
HETATM   20  H3* UNL     1     -12.634  10.786  68.580  1.00  0.00     0.000 HD 
BRANCH  14  21
HETATM   21  C5* UNL     1     -13.421   8.518  72.164  1.00  0.00    -0.358 C  
HETATM   22  O5* UNL     1     -14.050   8.915  73.377  1.00  0.00    -1.256 OA 
HETATM   23  H5* UNL     1     -14.598   8.215  73.714  1.00  0.00     0.000 HD 
ENDBRANCH  14  21
ENDBRANCH   8  12
TORSDOF 2
ENDMDL
MODEL       92
REMARK 921   NORMALIZED FREE ENERGY PREDICTED BY IDOCK:   -4.09 KCAL/MOL
REMARK 922        TOTAL FREE ENERGY PREDICTED BY IDOCK:   -4.54 KCAL/MOL
REMARK 923 INTER-LIGAND FREE ENERGY PREDICTED BY IDOCK:   -4.75 KCAL/MOL
REMARK 924 INTRA-LIGAND FREE ENERGY PREDICTED BY IDOCK:    0.21 KCAL/MOL
REMARK 927      BINDING AFFINITY PREDICTED BY RF-SCORE:    0.00 PKD
ROOT
HETATM    1  N   UNL     1     -11.330   6.889  73.330  1.00  0.00    -0.508 NA 
HETATM    2  H2  UNL     1     -10.612   6.237  73.647  1.00  0.00     0.000 HD 
HETATM    3  C   UNL     1     -11.013   7.873  72.456  1.00  0.00    -0.350 C  
HETATM    4  H1  UNL     1     -12.287   6.801  73.670  1.00  0.00     0.000 HD 
HETATM    5  N   UNL     1      -9.803   7.985  72.025  1.00  0.00    -0.194 N  
HETATM    6  C   UNL     1      -9.536   8.988  71.131  1.00  0.00    -0.286 C  
HETATM    7  H   UNL     1      -9.071   7.349  72.339  1.00  0.00     0.000 HD 
HETATM    8  N   UNL     1     -10.585   9.455  70.389  1.00  0.00    -0.240 N  
HETATM    9  O   UNL     1      -8.407   9.447  71.018  1.00  0.00    -0.294 OA 
HETATM   10  N   UNL     1     -12.006   8.717  72.088  1.00  0.00    -0.367 NA 
HETATM   11  C   UNL     1     -11.764   9.453  71.063  1.00  0.00    -0.323 C  
ENDROOT
BRANCH   8  12
HETATM   12  C1* UNL     1     -10.408  10.409  69.317  1.00  0.00    -0.230 C  
HETATM   13  O4* UNL     1     -11.273   9.986  68.236  1.00  0.00    -0.229 OA 
HETATM   14  C4* UNL     1     -10.497   9.147  67.345  1.00  0.00    -0.271 C  
HETATM   15  C3* UNL     1      -9.057   9.635  67.429  1.00  0.00    -0.130 C  
HETATM   16  H2* UNL     1      -8.031  12.054  67.720  1.00  0.00     0.000 HD 
HETATM   17  C2* UNL     1      -9.034  10.589  68.627  1.00  0.00    -0.162 C  
HETATM   18  O3* UNL     1      -8.695  10.274  66.202  1.00  0.00    -0.145 OA 
HETATM   19  O2* UNL     1      -8.875  11.944  68.143  1.00  0.00    -0.166 OA 
HETATM   20  H3* UNL     1      -7.797  10.579  66.255  1.00  0.00     0.000 HD 
BRANCH  14  21
HETATM   21  C5* UNL     1     -10.604   7.669  67.758  1.00  0.00    -0.196 C  
HETATM   22  O5* UNL     1     -11.401   6.945  66.827  1.00  0.00    -0.661 OA 
HETATM   23  H5* UNL     1     -11.467   6.032  67.083  1.00  0.00     0.000 HD 
ENDBRANCH  14  21
ENDBRANCH   8  12
TORSDOF 2
ENDMDL
MODEL       93
REMARK 921   NORMALIZED FREE ENERGY PREDICTED BY IDOCK:   -4.08 KCAL/MOL
REMARK 922        TOTAL FREE ENERGY PREDICTED BY IDOCK:   -4.53 KCAL/MOL
REMARK 923 INTER-LIGAND FREE ENERGY PREDICTED BY IDOCK:   -4.54 KCAL/MOL
REMARK 924 INTRA-LIGAND FREE ENERGY PREDICTED BY IDOCK:    0.01 KCAL/MOL
REMARK 927      BINDING AFFINITY PREDICTED BY RF-SCORE:    0.00 PKD
ROOT
HETATM    1  N   UNL     1     -14.004   9.179  71.444  1.00  0.00    -0.439 NA 
HETATM    2  H2  UNL     1     -14.873   8.793  71.814  1.00  0.00     0.000 HD 
HETATM    3  C   UNL     1     -12.885   8.417  71.409  1.00  0.00    -0.245 C  
HETATM    4  H1  UNL     1     -13.976  10.138  71.100  1.00  0.00     0.000 HD 
HETATM    5  N   UNL     1     -12.920   7.204  71.843  1.00  0.00    -0.505 N  
HETATM    6  C   UNL     1     -11.766   6.470  71.772  1.00  0.00    -0.324 C  
HETATM    7  H   UNL     1     -13.777   6.805  72.226  1.00  0.00     0.000 HD 
HETATM    8  N   UNL     1     -10.845   6.847  70.835  1.00  0.00    -0.237 N  
HETATM    9  O   UNL     1     -11.572   5.526  72.528  1.00  0.00    -0.283 OA 
HETATM   10  N   UNL     1     -11.760   8.994  70.923  1.00  0.00    -0.284 NA 
HETATM   11  C   UNL     1     -10.800   8.190  70.636  1.00  0.00    -0.233 C  
ENDROOT
BRANCH   8  12
HETATM   12  C1* UNL     1      -9.654   6.072  70.566  1.00  0.00    -0.169 C  
HETATM   13  O4* UNL     1      -9.102   6.574  69.326  1.00  0.00    -0.137 OA 
HETATM   14  C4* UNL     1      -9.628   5.766  68.243  1.00  0.00    -0.121 C  
HETATM   15  C3* UNL     1      -9.873   4.376  68.816  1.00  0.00    -0.079 C  
HETATM   16  H2* UNL     1      -8.562   2.956  70.619  1.00  0.00     0.000 HD 
HETATM   17  C2* UNL     1      -9.733   4.544  70.332  1.00  0.00    -0.217 C  
HETATM   18  O3* UNL     1      -8.925   3.457  68.268  1.00  0.00    -0.110 OA 
HETATM   19  O2* UNL     1      -8.513   3.894  70.763  1.00  0.00    -0.069 OA 
HETATM   20  H3* UNL     1      -9.078   2.590  68.625  1.00  0.00     0.000 HD 
BRANCH  14  21
HETATM   21  C5* UNL     1     -10.928   6.373  67.692  1.00  0.00    -0.349 C  
HETATM   22  O5* UNL     1     -11.242   5.817  66.420  1.00  0.00    -0.743 OA 
HETATM   23  H5* UNL     1     -12.045   6.193  66.080  1.00  0.00     0.000 HD 
ENDBRANCH  14  21
ENDBRANCH   8  12
TORSDOF 2
ENDMDL
MODEL       94
REMARK 921   NORMALIZED FREE ENERGY PREDICTED BY IDOCK:   -4.06 KCAL/MOL
REMARK 922        TOTAL FREE ENERGY PREDICTED BY IDOCK:   -4.51 KCAL/MOL
REMARK 923 INTER-LIGAND FREE ENERGY PREDICTED BY IDOCK:   -5.22 KCAL/MOL
REMARK 924 INTRA-LIGAND FREE ENERGY PREDICTED BY IDOCK:    0.71 KCAL/MOL
REMARK 927      BINDING AFFINITY PREDICTED BY RF-SCORE:    0.00 PKD
ROOT
HETATM    1  N   UNL     1      -8.621  20.208  65.463  1.00  0.00    -0.432 NA 
HETATM    2  H2  UNL     1      -8.680  21.191  65.732  1.00  0.00     0.000 HD 
HETATM    3  C   UNL     1      -9.084  19.248  66.297  1.00  0.00    -0.329 C  
HETATM    4  H1  UNL     1      -8.213  19.948  64.565  1.00  0.00     0.000 HD 
HETATM    5  N   UNL     1      -9.600  19.576  67.431  1.00  0.00    -0.321 N  
HETATM    6  C   UNL     1     -10.068  18.569  68.233  1.00  0.00    -0.390 C  
HETATM    7  H   UNL     1      -9.658  20.553  67.722  1.00  0.00     0.000 HD 
HETATM    8  N   UNL     1     -10.423  17.400  67.620  1.00  0.00    -0.361 N  
HETATM    9  O   UNL     1     -10.149  18.716  69.446  1.00  0.00    -0.202 OA 
HETATM   10  N   UNL     1      -8.960  17.963  65.889  1.00  0.00    -0.500 NA 
HETATM   11  C   UNL     1      -9.646  17.099  66.547  1.00  0.00    -0.279 C  
ENDROOT
BRANCH   8  12
HETATM   12  C1* UNL     1     -11.059  16.315  68.334  1.00  0.00    -0.362 C  
HETATM   13  O4* UNL     1     -10.382  16.201  69.608  1.00  0.00    -0.263 OA 
HETATM   14  C4* UNL     1      -9.326  15.219  69.466  1.00  0.00    -0.195 C  
HETATM   15  C3* UNL     1      -9.796  14.222  68.414  1.00  0.00    -0.233 C  
HETATM   16  H2* UNL     1     -12.189  13.250  67.853  1.00  0.00     0.000 HD 
HETATM   17  C2* UNL     1     -11.030  14.870  67.780  1.00  0.00    -0.293 C  
HETATM   18  O3* UNL     1     -10.085  12.968  69.039  1.00  0.00    -0.426 OA 
HETATM   19  O2* UNL     1     -12.207  14.137  68.193  1.00  0.00    -0.306 OA 
HETATM   20  H3* UNL     1     -10.377  12.346  68.383  1.00  0.00     0.000 HD 
BRANCH  14  21
HETATM   21  C5* UNL     1      -8.011  15.892  69.039  1.00  0.00    -0.222 C  
HETATM   22  O5* UNL     1      -7.160  14.959  68.382  1.00  0.00    -0.103 OA 
HETATM   23  H5* UNL     1      -6.348  15.375  68.119  1.00  0.00     0.000 HD 
ENDBRANCH  14  21
ENDBRANCH   8  12
TORSDOF 2
ENDMDL
MODEL       95
REMARK 921   NORMALIZED FREE ENERGY PREDICTED BY IDOCK:   -4.02 KCAL/MOL
REMARK 922        TOTAL FREE ENERGY PREDICTED BY IDOCK:   -4.47 KCAL/MOL
REMARK 923 INTER-LIGAND FREE ENERGY PREDICTED BY IDOCK:   -5.06 KCAL/MOL
REMARK 924 INTRA-LIGAND FREE ENERGY PREDICTED BY IDOCK:    0.60 KCAL/MOL
REMARK 927      BINDING AFFINITY PREDICTED BY RF-SCORE:    0.00 PKD
ROOT
HETATM    1  N   UNL     1      -8.980   9.651  66.826  1.00  0.00    -0.137 NA 
HETATM    2  H2  UNL     1      -9.477   8.848  66.441  1.00  0.00     0.000 HD 
HETATM    3  C   UNL     1      -9.613  10.840  66.962  1.00  0.00    -0.169 C  
HETATM    4  H1  UNL     1      -8.005   9.560  67.110  1.00  0.00     0.000 HD 
HETATM    5  N   UNL     1     -10.846  10.955  66.603  1.00  0.00    -0.233 N  
HETATM    6  C   UNL     1     -11.447  12.174  66.774  1.00  0.00    -0.356 C  
HETATM    7  H   UNL     1     -11.356  10.166  66.207  1.00  0.00     0.000 HD 
HETATM    8  N   UNL     1     -10.920  12.999  67.728  1.00  0.00    -0.244 N  
HETATM    9  O   UNL     1     -12.406  12.505  66.089  1.00  0.00    -0.596 OA 
HETATM   10  N   UNL     1      -8.892  11.870  67.462  1.00  0.00    -0.162 NA 
HETATM   11  C   UNL     1      -9.570  12.893  67.844  1.00  0.00    -0.215 C  
ENDROOT
BRANCH   8  12
HETATM   12  C1* UNL     1     -11.545  14.248  68.100  1.00  0.00    -0.332 C  
HETATM   13  O4* UNL     1     -11.868  14.936  66.869  1.00  0.00    -0.315 OA 
HETATM   14  C4* UNL     1     -10.765  15.818  66.547  1.00  0.00    -0.283 C  
HETATM   15  C3* UNL     1     -10.142  16.239  67.871  1.00  0.00    -0.247 C  
HETATM   16  H2* UNL     1     -11.207  16.743  70.238  1.00  0.00     0.000 HD 
HETATM   17  C2* UNL     1     -10.774  15.315  68.915  1.00  0.00    -0.245 C  
HETATM   18  O3* UNL     1     -10.417  17.622  68.112  1.00  0.00    -0.364 OA 
HETATM   19  O2* UNL     1     -11.680  16.088  69.738  1.00  0.00    -0.319 OA 
HETATM   20  H3* UNL     1     -10.029  17.884  68.938  1.00  0.00     0.000 HD 
BRANCH  14  21
HETATM   21  C5* UNL     1      -9.736  15.100  65.657  1.00  0.00    -0.316 C  
HETATM   22  O5* UNL     1     -10.369  14.541  64.511  1.00  0.00    -0.527 OA 
HETATM   23  H5* UNL     1      -9.733  14.097  63.961  1.00  0.00     0.000 HD 
ENDBRANCH  14  21
ENDBRANCH   8  12
TORSDOF 2
ENDMDL
MODEL       96
REMARK 921   NORMALIZED FREE ENERGY PREDICTED BY IDOCK:   -4.01 KCAL/MOL
REMARK 922        TOTAL FREE ENERGY PREDICTED BY IDOCK:   -4.45 KCAL/MOL
REMARK 923 INTER-LIGAND FREE ENERGY PREDICTED BY IDOCK:   -4.56 KCAL/MOL
REMARK 924 INTRA-LIGAND FREE ENERGY PREDICTED BY IDOCK:    0.10 KCAL/MOL
REMARK 927      BINDING AFFINITY PREDICTED BY RF-SCORE:    0.00 PKD
ROOT
HETATM    1  N   UNL     1      -8.897   7.555  65.617  1.00  0.00    -0.346 NA 
HETATM    2  H2  UNL     1      -7.935   7.894  65.563  1.00  0.00     0.000 HD 
HETATM    3  C   UNL     1      -9.359   7.006  66.764  1.00  0.00    -0.156 C  
HETATM    4  H1  UNL     1      -9.510   7.630  64.806  1.00  0.00     0.000 HD 
HETATM    5  N   UNL     1      -8.583   6.911  67.789  1.00  0.00    -0.122 N  
HETATM    6  C   UNL     1      -9.102   6.361  68.931  1.00  0.00    -0.129 C  
HETATM    7  H   UNL     1      -7.616   7.235  67.751  1.00  0.00     0.000 HD 
HETATM    8  N   UNL     1     -10.458   6.419  69.089  1.00  0.00    -0.206 N  
HETATM    9  O   UNL     1      -8.375   5.833  69.763  1.00  0.00    -0.109 OA 
HETATM   10  N   UNL     1     -10.637   6.559  66.765  1.00  0.00    -0.265 NA 
HETATM   11  C   UNL     1     -11.140   6.307  67.919  1.00  0.00    -0.258 C  
ENDROOT
BRANCH   8  12
HETATM   12  C1* UNL     1     -11.113   6.003  70.309  1.00  0.00    -0.345 C  
HETATM   13  O4* UNL     1     -12.286   6.837  70.458  1.00  0.00    -0.326 OA 
HETATM   14  C4* UNL     1     -11.924   7.974  71.280  1.00  0.00    -0.296 C  
HETATM   15  C3* UNL     1     -10.827   7.499  72.223  1.00  0.00    -0.258 C  
HETATM   16  H2* UNL     1     -10.424   5.184  73.433  1.00  0.00     0.000 HD 
HETATM   17  C2* UNL     1     -10.405   6.132  71.679  1.00  0.00    -0.216 C  
HETATM   18  O3* UNL     1     -11.337   7.434  73.558  1.00  0.00    -0.601 OA 
HETATM   19  O2* UNL     1     -10.859   5.104  72.592  1.00  0.00    -0.227 OA 
HETATM   20  H3* UNL     1     -10.652   7.138  74.146  1.00  0.00     0.000 HD 
BRANCH  14  21
HETATM   21  C5* UNL     1     -11.435   9.142  70.407  1.00  0.00    -0.194 C  
HETATM   22  O5* UNL     1     -12.510  10.024  70.101  1.00  0.00    -0.502 OA 
HETATM   23  H5* UNL     1     -12.207  10.745  69.562  1.00  0.00     0.000 HD 
ENDBRANCH  14  21
ENDBRANCH   8  12
TORSDOF 2
ENDMDL
MODEL       97
REMARK 921   NORMALIZED FREE ENERGY PREDICTED BY IDOCK:   -4.01 KCAL/MOL
REMARK 922        TOTAL FREE ENERGY PREDICTED BY IDOCK:   -4.45 KCAL/MOL
REMARK 923 INTER-LIGAND FREE ENERGY PREDICTED BY IDOCK:   -5.15 KCAL/MOL
REMARK 924 INTRA-LIGAND FREE ENERGY PREDICTED BY IDOCK:    0.70 KCAL/MOL
REMARK 927      BINDING AFFINITY PREDICTED BY RF-SCORE:    0.00 PKD
ROOT
HETATM    1  N   UNL     1      -7.554  18.855  68.951  1.00  0.00    -0.324 NA 
HETATM    2  H2  UNL     1      -7.751  19.270  69.862  1.00  0.00     0.000 HD 
HETATM    3  C   UNL     1      -8.486  18.085  68.341  1.00  0.00    -0.298 C  
HETATM    4  H1  UNL     1      -6.656  19.020  68.498  1.00  0.00     0.000 HD 
HETATM    5  N   UNL     1      -9.622  17.877  68.912  1.00  0.00    -0.258 N  
HETATM    6  C   UNL     1     -10.536  17.103  68.248  1.00  0.00    -0.375 C  
HETATM    7  H   UNL     1      -9.833  18.275  69.828  1.00  0.00     0.000 HD 
HETATM    8  N   UNL     1     -10.418  17.030  66.888  1.00  0.00    -0.299 N  
HETATM    9  O   UNL     1     -11.410  16.498  68.856  1.00  0.00    -0.300 OA 
HETATM   10  N   UNL     1      -8.156  17.549  67.142  1.00  0.00    -0.205 NA 
HETATM   11  C   UNL     1      -9.130  17.067  66.458  1.00  0.00    -0.264 C  
ENDROOT
BRANCH   8  12
HETATM   12  C1* UNL     1     -11.400  16.364  66.062  1.00  0.00     0.504 C  
HETATM   13  O4* UNL     1     -11.769  15.147  66.753  1.00  0.00    -0.229 OA 
HETATM   14  C4* UNL     1     -10.924  14.078  66.258  1.00  0.00    -0.300 C  
HETATM   15  C3* UNL     1     -10.585  14.423  64.814  1.00  0.00    -0.393 C  
HETATM   16  H2* UNL     1     -11.990  15.593  62.905  1.00  0.00     0.000 HD 
HETATM   17  C2* UNL     1     -11.043  15.874  64.638  1.00  0.00    -0.354 C  
HETATM   18  O3* UNL     1     -11.255  13.516  63.934  1.00  0.00    -0.567 OA 
HETATM   19  O2* UNL     1     -12.209  15.894  63.779  1.00  0.00    -0.817 OA 
HETATM   20  H3* UNL     1     -11.043  13.732  63.034  1.00  0.00     0.000 HD 
BRANCH  14  21
HETATM   21  C5* UNL     1      -9.650  13.954  67.110  1.00  0.00    -0.247 C  
HETATM   22  O5* UNL     1      -8.575  13.440  66.331  1.00  0.00    -0.422 OA 
HETATM   23  H5* UNL     1      -7.788  13.362  66.858  1.00  0.00     0.000 HD 
ENDBRANCH  14  21
ENDBRANCH   8  12
TORSDOF 2
ENDMDL
MODEL       98
REMARK 921   NORMALIZED FREE ENERGY PREDICTED BY IDOCK:   -3.98 KCAL/MOL
REMARK 922        TOTAL FREE ENERGY PREDICTED BY IDOCK:   -4.42 KCAL/MOL
REMARK 923 INTER-LIGAND FREE ENERGY PREDICTED BY IDOCK:   -4.32 KCAL/MOL
REMARK 924 INTRA-LIGAND FREE ENERGY PREDICTED BY IDOCK:   -0.10 KCAL/MOL
REMARK 927      BINDING AFFINITY PREDICTED BY RF-SCORE:    0.00 PKD
ROOT
HETATM    1  N   UNL     1      -8.754   3.180  74.485  1.00  0.00    -0.075 NA 
HETATM    2  H2  UNL     1      -7.764   3.276  74.713  1.00  0.00     0.000 HD 
HETATM    3  C   UNL     1      -9.477   4.267  74.131  1.00  0.00    -0.106 C  
HETATM    4  H1  UNL     1      -9.200   2.263  74.524  1.00  0.00     0.000 HD 
HETATM    5  N   UNL     1      -8.914   5.425  74.081  1.00  0.00    -0.119 N  
HETATM    6  C   UNL     1      -9.685   6.492  73.703  1.00  0.00    -0.192 C  
HETATM    7  H   UNL     1      -7.928   5.543  74.315  1.00  0.00     0.000 HD 
HETATM    8  N   UNL     1     -10.790   6.223  72.944  1.00  0.00    -0.245 N  
HETATM    9  O   UNL     1      -9.395   7.632  74.044  1.00  0.00    -0.262 OA 
HETATM   10  N   UNL     1     -10.790   4.075  73.859  1.00  0.00    -0.241 NA 
HETATM   11  C   UNL     1     -11.385   5.044  73.261  1.00  0.00    -0.317 C  
ENDROOT
BRANCH   8  12
HETATM   12  C1* UNL     1     -11.604   7.269  72.366  1.00  0.00    -0.268 C  
HETATM   13  O4* UNL     1     -12.380   6.657  71.310  1.00  0.00    -0.352 OA 
HETATM   14  C4* UNL     1     -11.650   6.818  70.068  1.00  0.00    -0.310 C  
HETATM   15  C3* UNL     1     -10.853   8.110  70.194  1.00  0.00    -0.241 C  
HETATM   16  H2* UNL     1     -11.405  10.412  71.370  1.00  0.00     0.000 HD 
HETATM   17  C2* UNL     1     -10.956   8.493  71.673  1.00  0.00    -0.292 C  
HETATM   18  O3* UNL     1     -11.405   9.100  69.323  1.00  0.00    -0.436 OA 
HETATM   19  O2* UNL     1     -11.802   9.661  71.796  1.00  0.00    -0.386 OA 
HETATM   20  H3* UNL     1     -10.908   9.906  69.402  1.00  0.00     0.000 HD 
BRANCH  14  21
HETATM   21  C5* UNL     1     -10.720   5.617  69.825  1.00  0.00    -0.331 C  
HETATM   22  O5* UNL     1      -9.364   6.041  69.749  1.00  0.00    -0.147 OA 
HETATM   23  H5* UNL     1      -8.789   5.300  69.599  1.00  0.00     0.000 HD 
ENDBRANCH  14  21
ENDBRANCH   8  12
TORSDOF 2
ENDMDL
MODEL       99
REMARK 921   NORMALIZED FREE ENERGY PREDICTED BY IDOCK:   -3.98 KCAL/MOL
REMARK 922        TOTAL FREE ENERGY PREDICTED BY IDOCK:   -4.42 KCAL/MOL
REMARK 923 INTER-LIGAND FREE ENERGY PREDICTED BY IDOCK:   -5.32 KCAL/MOL
REMARK 924 INTRA-LIGAND FREE ENERGY PREDICTED BY IDOCK:    0.90 KCAL/MOL
REMARK 927      BINDING AFFINITY PREDICTED BY RF-SCORE:    0.00 PKD
ROOT
HETATM    1  N   UNL     1     -12.174   9.719  71.754  1.00  0.00    -0.388 NA 
HETATM    2  H2  UNL     1     -13.150   9.979  71.900  1.00  0.00     0.000 HD 
HETATM    3  C   UNL     1     -11.549  10.053  70.600  1.00  0.00    -0.340 C  
HETATM    4  H1  UNL     1     -11.668   9.208  72.477  1.00  0.00     0.000 HD 
HETATM    5  N   UNL     1     -12.188  10.699  69.687  1.00  0.00    -0.514 N  
HETATM    6  C   UNL     1     -11.508  11.026  68.544  1.00  0.00    -0.309 C  
HETATM    7  H   UNL     1     -13.167  10.959  69.812  1.00  0.00     0.000 HD 
HETATM    8  N   UNL     1     -10.147  11.113  68.634  1.00  0.00    -0.194 N  
HETATM    9  O   UNL     1     -12.102  11.219  67.491  1.00  0.00    -0.530 OA 
HETATM   10  N   UNL     1     -10.260   9.662  70.461  1.00  0.00    -0.281 NA 
HETATM   11  C   UNL     1      -9.608  10.220  69.504  1.00  0.00    -0.202 C  
ENDROOT
BRANCH   8  12
HETATM   12  C1* UNL     1      -9.329  11.585  67.540  1.00  0.00    -0.166 C  
HETATM   13  O4* UNL     1      -8.863  12.905  67.906  1.00  0.00    -0.171 OA 
HETATM   14  C4* UNL     1      -9.793  13.874  67.362  1.00  0.00    -0.237 C  
HETATM   15  C3* UNL     1     -10.369  13.261  66.092  1.00  0.00    -0.290 C  
HETATM   16  H2* UNL     1      -9.294  11.712  64.240  1.00  0.00     0.000 HD 
HETATM   17  C2* UNL     1      -9.928  11.795  66.128  1.00  0.00    -0.226 C  
HETATM   18  O3* UNL     1      -9.870  13.965  64.951  1.00  0.00    -0.606 OA 
HETATM   19  O2* UNL     1      -8.925  11.583  65.106  1.00  0.00    -0.059 OA 
HETATM   20  H3* UNL     1     -10.229  13.582  64.159  1.00  0.00     0.000 HD 
BRANCH  14  21
HETATM   21  C5* UNL     1     -10.906  14.189  68.376  1.00  0.00    -0.254 C  
HETATM   22  O5* UNL     1     -12.185  14.106  67.758  1.00  0.00    -0.548 OA 
HETATM   23  H5* UNL     1     -12.873  14.301  68.384  1.00  0.00     0.000 HD 
ENDBRANCH  14  21
ENDBRANCH   8  12
TORSDOF 2
ENDMDL
MODEL      100
REMARK 921   NORMALIZED FREE ENERGY PREDICTED BY IDOCK:   -3.97 KCAL/MOL
REMARK 922        TOTAL FREE ENERGY PREDICTED BY IDOCK:   -4.41 KCAL/MOL
REMARK 923 INTER-LIGAND FREE ENERGY PREDICTED BY IDOCK:   -4.42 KCAL/MOL
REMARK 924 INTRA-LIGAND FREE ENERGY PREDICTED BY IDOCK:    0.00 KCAL/MOL
REMARK 927      BINDING AFFINITY PREDICTED BY RF-SCORE:    0.00 PKD
ROOT
HETATM    1  N   UNL     1     -10.433   7.886  72.999  1.00  0.00    -0.357 NA 
HETATM    2  H2  UNL     1     -10.743   8.340  73.859  1.00  0.00     0.000 HD 
HETATM    3  C   UNL     1     -10.757   8.418  71.797  1.00  0.00    -0.285 C  
HETATM    4  H1  UNL     1      -9.878   7.032  73.044  1.00  0.00     0.000 HD 
HETATM    5  N   UNL     1     -11.458   9.498  71.740  1.00  0.00    -0.359 N  
HETATM    6  C   UNL     1     -11.748  10.004  70.500  1.00  0.00    -0.318 C  
HETATM    7  H   UNL     1     -11.785   9.960  72.589  1.00  0.00     0.000 HD 
HETATM    8  N   UNL     1     -10.904   9.667  69.479  1.00  0.00    -0.232 N  
HETATM    9  O   UNL     1     -12.728  10.716  70.324  1.00  0.00    -0.319 OA 
HETATM   10  N   UNL     1     -10.331   7.757  70.694  1.00  0.00    -0.201 NA 
HETATM   11  C   UNL     1     -10.400   8.411  69.590  1.00  0.00    -0.218 C  
ENDROOT
BRANCH   8  12
HETATM   12  C1* UNL     1     -11.019  10.246  68.159  1.00  0.00    -0.274 C  
HETATM   13  O4* UNL     1      -9.748  10.036  67.499  1.00  0.00    -0.154 OA 
HETATM   14  C4* UNL     1      -8.929  11.211  67.723  1.00  0.00    -0.139 C  
HETATM   15  C3* UNL     1      -9.884  12.391  67.847  1.00  0.00    -0.202 C  
HETATM   16  H2* UNL     1     -12.169  12.943  66.639  1.00  0.00     0.000 HD 
HETATM   17  C2* UNL     1     -11.274  11.762  67.972  1.00  0.00    -0.263 C  
HETATM   18  O3* UNL     1      -9.756  13.234  66.698  1.00  0.00    -0.255 OA 
HETATM   19  O2* UNL     1     -12.013  12.013  66.753  1.00  0.00    -0.616 OA 
HETATM   20  H3* UNL     1     -10.351  13.970  66.775  1.00  0.00     0.000 HD 
BRANCH  14  21
HETATM   21  C5* UNL     1      -8.082  11.050  68.996  1.00  0.00    -0.104 C  
HETATM   22  O5* UNL     1      -7.088  12.066  69.069  1.00  0.00    -0.119 OA 
HETATM   23  H5* UNL     1      -6.565  11.966  69.855  1.00  0.00     0.000 HD 
ENDBRANCH  14  21
ENDBRANCH   8  12
TORSDOF 2
ENDMDL
MODEL      101
REMARK 921   NORMALIZED FREE ENERGY PREDICTED BY IDOCK:   -3.97 KCAL/MOL
REMARK 922        TOTAL FREE ENERGY PREDICTED BY IDOCK:   -4.41 KCAL/MOL
REMARK 923 INTER-LIGAND FREE ENERGY PREDICTED BY IDOCK:   -4.44 KCAL/MOL
REMARK 924 INTRA-LIGAND FREE ENERGY PREDICTED BY IDOCK:    0.03 KCAL/MOL
REMARK 927      BINDING AFFINITY PREDICTED BY RF-SCORE:    0.00 PKD
ROOT
HETATM    1  N   UNL     1     -12.286  11.136  70.401  1.00  0.00    -0.339 NA 
HETATM    2  H2  UNL     1     -12.047  11.358  69.434  1.00  0.00     0.000 HD 
HETATM    3  C   UNL     1     -12.115   9.878  70.870  1.00  0.00    -0.341 C  
HETATM    4  H1  UNL     1     -12.654  11.862  71.016  1.00  0.00     0.000 HD 
HETATM    5  N   UNL     1     -11.651   8.961  70.094  1.00  0.00    -0.462 N  
HETATM    6  C   UNL     1     -11.483   7.707  70.619  1.00  0.00    -0.258 C  
HETATM    7  H   UNL     1     -11.416   9.162  69.121  1.00  0.00     0.000 HD 
HETATM    8  N   UNL     1     -11.325   7.617  71.974  1.00  0.00    -0.265 N  
HETATM    9  O   UNL     1     -11.486   6.716  69.900  1.00  0.00    -0.358 OA 
HETATM   10  N   UNL     1     -12.469   9.645  72.156  1.00  0.00    -0.321 NA 
HETATM   11  C   UNL     1     -12.044   8.542  72.661  1.00  0.00    -0.235 C  
ENDROOT
BRANCH   8  12
HETATM   12  C1* UNL     1     -11.001   6.371  72.633  1.00  0.00    -0.253 C  
HETATM   13  O4* UNL     1     -10.581   6.707  73.976  1.00  0.00    -0.323 OA 
HETATM   14  C4* UNL     1      -9.139   6.847  73.972  1.00  0.00    -0.195 C  
HETATM   15  C3* UNL     1      -8.612   5.908  72.894  1.00  0.00    -0.121 C  
HETATM   16  H2* UNL     1      -9.419   3.523  72.088  1.00  0.00     0.000 HD 
HETATM   17  C2* UNL     1      -9.855   5.469  72.114  1.00  0.00    -0.163 C  
HETATM   18  O3* UNL     1      -7.924   4.814  73.507  1.00  0.00    -0.100 OA 
HETATM   19  O2* UNL     1     -10.123   4.077  72.407  1.00  0.00    -0.164 OA 
HETATM   20  H3* UNL     1      -7.596   4.229  72.834  1.00  0.00     0.000 HD 
BRANCH  14  21
HETATM   21  C5* UNL     1      -8.733   8.302  73.682  1.00  0.00    -0.174 C  
HETATM   22  O5* UNL     1      -7.663   8.703  74.531  1.00  0.00    -0.368 OA 
HETATM   23  H5* UNL     1      -7.413   9.602  74.352  1.00  0.00     0.000 HD 
ENDBRANCH  14  21
ENDBRANCH   8  12
TORSDOF 2
ENDMDL
MODEL      102
REMARK 921   NORMALIZED FREE ENERGY PREDICTED BY IDOCK:   -3.96 KCAL/MOL
REMARK 922        TOTAL FREE ENERGY PREDICTED BY IDOCK:   -4.40 KCAL/MOL
REMARK 923 INTER-LIGAND FREE ENERGY PREDICTED BY IDOCK:   -5.00 KCAL/MOL
REMARK 924 INTRA-LIGAND FREE ENERGY PREDICTED BY IDOCK:    0.60 KCAL/MOL
REMARK 927      BINDING AFFINITY PREDICTED BY RF-SCORE:    0.00 PKD
ROOT
HETATM    1  N   UNL     1      -9.703   7.412  67.096  1.00  0.00    -0.158 NA 
HETATM    2  H2  UNL     1      -9.258   6.721  66.491  1.00  0.00     0.000 HD 
HETATM    3  C   UNL     1      -9.870   8.684  66.663  1.00  0.00    -0.266 C  
HETATM    4  H1  UNL     1     -10.023   7.146  68.027  1.00  0.00     0.000 HD 
HETATM    5  N   UNL     1      -9.465   9.020  65.487  1.00  0.00    -0.424 N  
HETATM    6  C   UNL     1      -9.670  10.315  65.090  1.00  0.00    -0.300 C  
HETATM    7  H   UNL     1      -9.009   8.345  64.873  1.00  0.00     0.000 HD 
HETATM    8  N   UNL     1     -10.685  10.999  65.699  1.00  0.00    -0.195 N  
HETATM    9  O   UNL     1      -8.962  10.831  64.235  1.00  0.00    -0.190 OA 
HETATM   10  N   UNL     1     -10.450   9.557  67.520  1.00  0.00    -0.259 NA 
HETATM   11  C   UNL     1     -10.852  10.663  67.004  1.00  0.00    -0.238 C  
ENDROOT
BRANCH   8  12
HETATM   12  C1* UNL     1     -11.091  12.320  65.273  1.00  0.00    -0.316 C  
HETATM   13  O4* UNL     1      -9.881  13.098  65.115  1.00  0.00    -0.181 OA 
HETATM   14  C4* UNL     1      -9.634  13.797  66.361  1.00  0.00    -0.272 C  
HETATM   15  C3* UNL     1     -10.995  14.059  66.992  1.00  0.00    -0.297 C  
HETATM   16  H2* UNL     1     -13.345  14.642  65.932  1.00  0.00     0.000 HD 
HETATM   17  C2* UNL     1     -11.976  13.212  66.175  1.00  0.00    -0.422 C  
HETATM   18  O3* UNL     1     -11.287  15.458  66.937  1.00  0.00    -0.271 OA 
HETATM   19  O2* UNL     1     -12.802  14.094  65.377  1.00  0.00    -0.637 OA 
HETATM   20  H3* UNL     1     -12.136  15.621  67.331  1.00  0.00     0.000 HD 
BRANCH  14  21
HETATM   21  C5* UNL     1      -8.747  12.953  67.291  1.00  0.00    -0.204 C  
HETATM   22  O5* UNL     1      -7.680  12.356  66.562  1.00  0.00    -0.372 OA 
HETATM   23  H5* UNL     1      -7.133  11.835  67.138  1.00  0.00     0.000 HD 
ENDBRANCH  14  21
ENDBRANCH   8  12
TORSDOF 2
ENDMDL
MODEL      103
REMARK 921   NORMALIZED FREE ENERGY PREDICTED BY IDOCK:   -3.96 KCAL/MOL
REMARK 922        TOTAL FREE ENERGY PREDICTED BY IDOCK:   -4.40 KCAL/MOL
REMARK 923 INTER-LIGAND FREE ENERGY PREDICTED BY IDOCK:   -5.35 KCAL/MOL
REMARK 924 INTRA-LIGAND FREE ENERGY PREDICTED BY IDOCK:    0.95 KCAL/MOL
REMARK 927      BINDING AFFINITY PREDICTED BY RF-SCORE:    0.00 PKD
ROOT
HETATM    1  N   UNL     1      -6.369  16.458  69.069  1.00  0.00    -0.154 NA 
HETATM    2  H2  UNL     1      -5.854  17.331  68.946  1.00  0.00     0.000 HD 
HETATM    3  C   UNL     1      -7.375  16.140  68.222  1.00  0.00    -0.140 C  
HETATM    4  H1  UNL     1      -6.124  15.824  69.829  1.00  0.00     0.000 HD 
HETATM    5  N   UNL     1      -7.683  16.941  67.260  1.00  0.00    -0.161 N  
HETATM    6  C   UNL     1      -8.700  16.567  66.422  1.00  0.00    -0.322 C  
HETATM    7  H   UNL     1      -7.187  17.822  67.128  1.00  0.00     0.000 HD 
HETATM    8  N   UNL     1      -8.966  15.229  66.325  1.00  0.00    -0.302 N  
HETATM    9  O   UNL     1      -9.342  17.402  65.799  1.00  0.00    -0.518 OA 
HETATM   10  N   UNL     1      -8.029  14.976  68.449  1.00  0.00    -0.126 NA 
HETATM   11  C   UNL     1      -8.776  14.558  67.491  1.00  0.00    -0.188 C  
ENDROOT
BRANCH   8  12
HETATM   12  C1* UNL     1      -9.916  14.697  65.373  1.00  0.00    -0.330 C  
HETATM   13  O4* UNL     1     -11.184  15.337  65.648  1.00  0.00    -0.323 OA 
HETATM   14  C4* UNL     1     -11.926  14.487  66.557  1.00  0.00    -0.340 C  
HETATM   15  C3* UNL     1     -11.496  13.056  66.265  1.00  0.00    -0.337 C  
HETATM   16  H2* UNL     1     -10.846  11.835  64.013  1.00  0.00     0.000 HD 
HETATM   17  C2* UNL     1     -10.270  13.191  65.357  1.00  0.00    -0.290 C  
HETATM   18  O3* UNL     1     -12.573  12.348  65.646  1.00  0.00    -0.575 OA 
HETATM   19  O2* UNL     1     -10.628  12.760  64.022  1.00  0.00    -0.392 OA 
HETATM   20  H3* UNL     1     -12.304  11.455  65.464  1.00  0.00     0.000 HD 
BRANCH  14  21
HETATM   21  C5* UNL     1     -11.632  14.866  68.018  1.00  0.00    -0.341 C  
HETATM   22  O5* UNL     1     -12.406  14.068  68.908  1.00  0.00    -0.512 OA 
HETATM   23  H5* UNL     1     -12.224  14.302  69.810  1.00  0.00     0.000 HD 
ENDBRANCH  14  21
ENDBRANCH   8  12
TORSDOF 2
ENDMDL
MODEL      104
REMARK 921   NORMALIZED FREE ENERGY PREDICTED BY IDOCK:   -3.94 KCAL/MOL
REMARK 922        TOTAL FREE ENERGY PREDICTED BY IDOCK:   -4.38 KCAL/MOL
REMARK 923 INTER-LIGAND FREE ENERGY PREDICTED BY IDOCK:   -4.38 KCAL/MOL
REMARK 924 INTRA-LIGAND FREE ENERGY PREDICTED BY IDOCK:    0.00 KCAL/MOL
REMARK 927      BINDING AFFINITY PREDICTED BY RF-SCORE:    0.00 PKD
ROOT
HETATM    1  N   UNL     1     -12.135  15.928  69.208  1.00  0.00    -0.457 NA 
HETATM    2  H2  UNL     1     -11.640  16.664  69.714  1.00  0.00     0.000 HD 
HETATM    3  C   UNL     1     -11.477  14.811  68.821  1.00  0.00    -0.301 C  
HETATM    4  H1  UNL     1     -13.126  16.035  68.995  1.00  0.00     0.000 HD 
HETATM    5  N   UNL     1     -10.224  14.677  69.091  1.00  0.00    -0.317 N  
HETATM    6  C   UNL     1      -9.607  13.522  68.690  1.00  0.00    -0.075 C  
HETATM    7  H   UNL     1      -9.710  15.406  69.587  1.00  0.00     0.000 HD 
HETATM    8  N   UNL     1     -10.400  12.424  68.507  1.00  0.00    -0.231 N  
HETATM    9  O   UNL     1      -8.398  13.488  68.496  1.00  0.00    -0.155 OA 
HETATM   10  N   UNL     1     -12.186  13.882  68.138  1.00  0.00    -0.263 NA 
HETATM   11  C   UNL     1     -11.634  12.727  68.027  1.00  0.00    -0.341 C  
ENDROOT
BRANCH   8  12
HETATM   12  C1* UNL     1      -9.855  11.115  68.222  1.00  0.00    -0.189 C  
HETATM   13  O4* UNL     1     -10.946  10.173  68.350  1.00  0.00    -0.242 OA 
HETATM   14  C4* UNL     1     -10.936   9.659  69.705  1.00  0.00    -0.240 C  
HETATM   15  C3* UNL     1      -9.485   9.681  70.170  1.00  0.00    -0.253 C  
HETATM   16  H2* UNL     1      -7.217   9.241  68.885  1.00  0.00     0.000 HD 
HETATM   17  C2* UNL     1      -8.745  10.503  69.110  1.00  0.00    -0.147 C  
HETATM   18  O3* UNL     1      -8.997   8.341  70.277  1.00  0.00    -0.139 OA 
HETATM   19  O2* UNL     1      -7.898   9.617  68.339  1.00  0.00    -0.085 OA 
HETATM   20  H3* UNL     1      -8.092   8.355  70.566  1.00  0.00     0.000 HD 
BRANCH  14  21
HETATM   21  C5* UNL     1     -11.821  10.521  70.620  1.00  0.00    -0.360 C  
HETATM   22  O5* UNL     1     -13.197  10.214  70.420  1.00  0.00    -0.587 OA 
HETATM   23  H5* UNL     1     -13.744  10.747  70.986  1.00  0.00     0.000 HD 
ENDBRANCH  14  21
ENDBRANCH   8  12
TORSDOF 2
ENDMDL
MODEL      105
REMARK 921   NORMALIZED FREE ENERGY PREDICTED BY IDOCK:   -3.93 KCAL/MOL
REMARK 922        TOTAL FREE ENERGY PREDICTED BY IDOCK:   -4.36 KCAL/MOL
REMARK 923 INTER-LIGAND FREE ENERGY PREDICTED BY IDOCK:   -4.44 KCAL/MOL
REMARK 924 INTRA-LIGAND FREE ENERGY PREDICTED BY IDOCK:    0.07 KCAL/MOL
REMARK 927      BINDING AFFINITY PREDICTED BY RF-SCORE:    0.00 PKD
ROOT
HETATM    1  N   UNL     1     -11.357   6.748  66.856  1.00  0.00    -0.792 NA 
HETATM    2  H2  UNL     1     -11.050   7.493  66.229  1.00  0.00     0.000 HD 
HETATM    3  C   UNL     1     -10.670   6.496  67.995  1.00  0.00    -0.283 C  
HETATM    4  H1  UNL     1     -12.180   6.194  66.625  1.00  0.00     0.000 HD 
HETATM    5  N   UNL     1      -9.629   7.197  68.287  1.00  0.00    -0.135 N  
HETATM    6  C   UNL     1      -8.978   6.912  69.458  1.00  0.00    -0.143 C  
HETATM    7  H   UNL     1      -9.302   7.939  67.668  1.00  0.00     0.000 HD 
HETATM    8  N   UNL     1      -9.706   6.305  70.443  1.00  0.00    -0.164 N  
HETATM    9  O   UNL     1      -7.793   7.183  69.602  1.00  0.00    -0.113 OA 
HETATM   10  N   UNL     1     -11.118   5.483  68.774  1.00  0.00     0.087 NA 
HETATM   11  C   UNL     1     -10.639   5.440  69.965  1.00  0.00    -0.284 C  
ENDROOT
BRANCH   8  12
HETATM   12  C1* UNL     1      -9.176   6.079  71.769  1.00  0.00    -0.145 C  
HETATM   13  O4* UNL     1     -10.303   6.093  72.676  1.00  0.00    -0.187 OA 
HETATM   14  C4* UNL     1     -10.452   7.442  73.185  1.00  0.00    -0.356 C  
HETATM   15  C3* UNL     1      -9.058   8.056  73.206  1.00  0.00    -0.282 C  
HETATM   16  H2* UNL     1      -6.682   7.016  73.721  1.00  0.00     0.000 HD 
HETATM   17  C2* UNL     1      -8.185   7.079  72.412  1.00  0.00    -0.105 C  
HETATM   18  O3* UNL     1      -8.625   8.214  74.560  1.00  0.00    -0.426 OA 
HETATM   19  O2* UNL     1      -7.290   6.402  73.326  1.00  0.00    -0.086 OA 
HETATM   20  H3* UNL     1      -7.756   8.597  74.574  1.00  0.00     0.000 HD 
BRANCH  14  21
HETATM   21  C5* UNL     1     -11.400   8.258  72.292  1.00  0.00    -0.378 C  
HETATM   22  O5* UNL     1     -12.670   8.410  72.917  1.00  0.00    -0.647 OA 
HETATM   23  H5* UNL     1     -13.256   8.915  72.365  1.00  0.00     0.000 HD 
ENDBRANCH  14  21
ENDBRANCH   8  12
TORSDOF 2
ENDMDL
MODEL      106
REMARK 921   NORMALIZED FREE ENERGY PREDICTED BY IDOCK:   -3.91 KCAL/MOL
REMARK 922        TOTAL FREE ENERGY PREDICTED BY IDOCK:   -4.35 KCAL/MOL
REMARK 923 INTER-LIGAND FREE ENERGY PREDICTED BY IDOCK:   -4.26 KCAL/MOL
REMARK 924 INTRA-LIGAND FREE ENERGY PREDICTED BY IDOCK:   -0.09 KCAL/MOL
REMARK 927      BINDING AFFINITY PREDICTED BY RF-SCORE:    0.00 PKD
ROOT
HETATM    1  N   UNL     1      -7.982   3.183  71.714  1.00  0.00    -0.057 NA 
HETATM    2  H2  UNL     1      -7.718   2.907  72.661  1.00  0.00     0.000 HD 
HETATM    3  C   UNL     1      -9.069   3.965  71.514  1.00  0.00    -0.113 C  
HETATM    4  H1  UNL     1      -7.426   2.872  70.918  1.00  0.00     0.000 HD 
HETATM    5  N   UNL     1      -9.771   4.359  72.520  1.00  0.00    -0.147 N  
HETATM    6  C   UNL     1     -10.853   5.159  72.266  1.00  0.00    -0.176 C  
HETATM    7  H   UNL     1      -9.529   4.084  73.472  1.00  0.00     0.000 HD 
HETATM    8  N   UNL     1     -10.833   5.882  71.106  1.00  0.00    -0.268 N  
HETATM    9  O   UNL     1     -11.796   5.210  73.046  1.00  0.00    -0.273 OA 
HETATM   10  N   UNL     1      -9.375   4.281  70.233  1.00  0.00    -0.138 NA 
HETATM   11  C   UNL     1     -10.222   5.235  70.081  1.00  0.00    -0.280 C  
ENDROOT
BRANCH   8  12
HETATM   12  C1* UNL     1     -11.845   6.866  70.792  1.00  0.00    -0.377 C  
HETATM   13  O4* UNL     1     -11.248   7.793  69.855  1.00  0.00    -0.190 OA 
HETATM   14  C4* UNL     1     -10.695   8.899  70.610  1.00  0.00    -0.234 C  
HETATM   15  C3* UNL     1     -11.558   9.050  71.857  1.00  0.00    -0.370 C  
HETATM   16  H2* UNL     1     -14.151   8.724  72.254  1.00  0.00     0.000 HD 
HETATM   17  C2* UNL     1     -12.427   7.790  71.888  1.00  0.00    -0.314 C  
HETATM   18  O3* UNL     1     -12.325  10.254  71.765  1.00  0.00    -0.377 OA 
HETATM   19  O2* UNL     1     -13.794   8.157  71.581  1.00  0.00    -0.365 OA 
HETATM   20  H3* UNL     1     -12.863  10.348  72.542  1.00  0.00     0.000 HD 
BRANCH  14  21
HETATM   21  C5* UNL     1      -9.229   8.624  70.985  1.00  0.00    -0.203 C  
HETATM   22  O5* UNL     1      -9.034   8.769  72.387  1.00  0.00    -0.379 OA 
HETATM   23  H5* UNL     1      -8.128   8.599  72.618  1.00  0.00     0.000 HD 
ENDBRANCH  14  21
ENDBRANCH   8  12
TORSDOF 2
ENDMDL
MODEL      107
REMARK 921   NORMALIZED FREE ENERGY PREDICTED BY IDOCK:   -3.91 KCAL/MOL
REMARK 922        TOTAL FREE ENERGY PREDICTED BY IDOCK:   -4.34 KCAL/MOL
REMARK 923 INTER-LIGAND FREE ENERGY PREDICTED BY IDOCK:   -4.27 KCAL/MOL
REMARK 924 INTRA-LIGAND FREE ENERGY PREDICTED BY IDOCK:   -0.07 KCAL/MOL
REMARK 927      BINDING AFFINITY PREDICTED BY RF-SCORE:    0.00 PKD
ROOT
HETATM    1  N   UNL     1      -9.277  11.547  65.645  1.00  0.00    -0.316 NA 
HETATM    2  H2  UNL     1      -9.975  11.640  64.907  1.00  0.00     0.000 HD 
HETATM    3  C   UNL     1      -9.665  11.281  66.915  1.00  0.00    -0.192 C  
HETATM    4  H1  UNL     1      -8.287  11.653  65.428  1.00  0.00     0.000 HD 
HETATM    5  N   UNL     1     -10.917  11.147  67.189  1.00  0.00    -0.280 N  
HETATM    6  C   UNL     1     -11.257  10.864  68.486  1.00  0.00    -0.274 C  
HETATM    7  H   UNL     1     -11.629  11.247  66.466  1.00  0.00     0.000 HD 
HETATM    8  N   UNL     1     -10.306  10.261  69.261  1.00  0.00    -0.216 N  
HETATM    9  O   UNL     1     -12.363  11.154  68.924  1.00  0.00    -0.512 OA 
HETATM   10  N   UNL     1      -8.691  11.187  67.851  1.00  0.00    -0.132 NA 
HETATM   11  C   UNL     1      -9.042  10.664  68.971  1.00  0.00    -0.166 C  
ENDROOT
BRANCH   8  12
HETATM   12  C1* UNL     1     -10.587   9.786  70.598  1.00  0.00    -0.313 C  
HETATM   13  O4* UNL     1      -9.446   8.994  71.006  1.00  0.00    -0.229 OA 
HETATM   14  C4* UNL     1      -9.722   7.610  70.674  1.00  0.00    -0.174 C  
HETATM   15  C3* UNL     1     -11.232   7.432  70.766  1.00  0.00    -0.271 C  
HETATM   16  H2* UNL     1     -13.035   8.482  72.390  1.00  0.00     0.000 HD 
HETATM   17  C2* UNL     1     -11.790   8.854  70.877  1.00  0.00    -0.240 C  
HETATM   18  O3* UNL     1     -11.551   6.619  71.899  1.00  0.00    -0.272 OA 
HETATM   19  O2* UNL     1     -12.296   9.054  72.219  1.00  0.00    -0.364 OA 
HETATM   20  H3* UNL     1     -12.493   6.508  71.956  1.00  0.00     0.000 HD 
BRANCH  14  21
HETATM   21  C5* UNL     1      -9.212   7.277  69.263  1.00  0.00    -0.144 C  
HETATM   22  O5* UNL     1     -10.291   6.896  68.417  1.00  0.00    -0.172 OA 
HETATM   23  H5* UNL     1      -9.976   6.690  67.544  1.00  0.00     0.000 HD 
ENDBRANCH  14  21
ENDBRANCH   8  12
TORSDOF 2
ENDMDL
MODEL      108
REMARK 921   NORMALIZED FREE ENERGY PREDICTED BY IDOCK:   -3.90 KCAL/MOL
REMARK 922        TOTAL FREE ENERGY PREDICTED BY IDOCK:   -4.33 KCAL/MOL
REMARK 923 INTER-LIGAND FREE ENERGY PREDICTED BY IDOCK:   -4.23 KCAL/MOL
REMARK 924 INTRA-LIGAND FREE ENERGY PREDICTED BY IDOCK:   -0.10 KCAL/MOL
REMARK 927      BINDING AFFINITY PREDICTED BY RF-SCORE:    0.00 PKD
ROOT
HETATM    1  N   UNL     1     -10.856   1.828  72.707  1.00  0.00    -0.149 NA 
HETATM    2  H2  UNL     1     -10.455   1.228  71.985  1.00  0.00     0.000 HD 
HETATM    3  C   UNL     1     -10.433   3.108  72.835  1.00  0.00    -0.150 C  
HETATM    4  H1  UNL     1     -11.575   1.465  73.332  1.00  0.00     0.000 HD 
HETATM    5  N   UNL     1      -9.524   3.566  72.045  1.00  0.00    -0.123 N  
HETATM    6  C   UNL     1      -9.141   4.872  72.205  1.00  0.00    -0.130 C  
HETATM    7  H   UNL     1      -9.106   2.978  71.324  1.00  0.00     0.000 HD 
HETATM    8  N   UNL     1     -10.039   5.716  72.796  1.00  0.00    -0.176 N  
HETATM    9  O   UNL     1      -8.035   5.253  71.843  1.00  0.00    -0.108 OA 
HETATM   10  N   UNL     1     -10.990   3.847  73.824  1.00  0.00    -0.244 NA 
HETATM   11  C   UNL     1     -10.792   5.114  73.754  1.00  0.00    -0.287 C  
ENDROOT
BRANCH   8  12
HETATM   12  C1* UNL     1      -9.812   7.140  72.895  1.00  0.00    -0.185 C  
HETATM   13  O4* UNL     1     -11.088   7.745  73.209  1.00  0.00    -0.373 OA 
HETATM   14  C4* UNL     1     -11.716   8.137  71.963  1.00  0.00    -0.332 C  
HETATM   15  C3* UNL     1     -10.589   8.467  70.992  1.00  0.00    -0.214 C  
HETATM   16  H2* UNL     1      -8.225   9.592  71.354  1.00  0.00     0.000 HD 
HETATM   17  C2* UNL     1      -9.318   7.956  71.676  1.00  0.00    -0.148 C  
HETATM   18  O3* UNL     1     -10.563   9.876  70.750  1.00  0.00    -0.304 OA 
HETATM   19  O2* UNL     1      -8.528   9.091  72.102  1.00  0.00    -0.365 OA 
HETATM   20  H3* UNL     1      -9.861  10.082  70.144  1.00  0.00     0.000 HD 
BRANCH  14  21
HETATM   21  C5* UNL     1     -12.599   7.002  71.418  1.00  0.00    -0.386 C  
HETATM   22  O5* UNL     1     -12.130   6.568  70.146  1.00  0.00    -0.553 OA 
HETATM   23  H5* UNL     1     -12.676   5.867  69.810  1.00  0.00     0.000 HD 
ENDBRANCH  14  21
ENDBRANCH   8  12
TORSDOF 2
ENDMDL
MODEL      109
REMARK 921   NORMALIZED FREE ENERGY PREDICTED BY IDOCK:   -3.89 KCAL/MOL
REMARK 922        TOTAL FREE ENERGY PREDICTED BY IDOCK:   -4.32 KCAL/MOL
REMARK 923 INTER-LIGAND FREE ENERGY PREDICTED BY IDOCK:   -4.24 KCAL/MOL
REMARK 924 INTRA-LIGAND FREE ENERGY PREDICTED BY IDOCK:   -0.08 KCAL/MOL
REMARK 927      BINDING AFFINITY PREDICTED BY RF-SCORE:    0.00 PKD
ROOT
HETATM    1  N   UNL     1     -14.396   7.591  70.982  1.00  0.00    -0.605 NA 
HETATM    2  H2  UNL     1     -14.846   6.685  70.841  1.00  0.00     0.000 HD 
HETATM    3  C   UNL     1     -13.187   7.660  71.586  1.00  0.00    -0.352 C  
HETATM    4  H1  UNL     1     -14.858   8.444  70.669  1.00  0.00     0.000 HD 
HETATM    5  N   UNL     1     -12.604   6.581  71.982  1.00  0.00    -0.508 N  
HETATM    6  C   UNL     1     -11.375   6.702  72.574  1.00  0.00    -0.253 C  
HETATM    7  H   UNL     1     -13.042   5.668  71.858  1.00  0.00     0.000 HD 
HETATM    8  N   UNL     1     -10.643   7.815  72.266  1.00  0.00    -0.239 N  
HETATM    9  O   UNL     1     -10.963   5.851  73.352  1.00  0.00    -0.260 OA 
HETATM   10  N   UNL     1     -12.653   8.892  71.761  1.00  0.00    -0.338 NA 
HETATM   11  C   UNL     1     -11.406   8.922  72.070  1.00  0.00    -0.357 C  
ENDROOT
BRANCH   8  12
HETATM   12  C1* UNL     1      -9.280   7.992  72.713  1.00  0.00    -0.252 C  
HETATM   13  O4* UNL     1      -8.702   9.031  71.889  1.00  0.00    -0.363 OA 
HETATM   14  C4* UNL     1      -8.039   8.396  70.768  1.00  0.00    -0.111 C  
HETATM   15  C3* UNL     1      -7.561   7.035  71.258  1.00  0.00    -0.086 C  
HETATM   16  H2* UNL     1      -6.628   6.233  73.598  1.00  0.00     0.000 HD 
HETATM   17  C2* UNL     1      -8.251   6.840  72.611  1.00  0.00    -0.107 C  
HETATM   18  O3* UNL     1      -6.134   7.035  71.355  1.00  0.00    -0.036 OA 
HETATM   19  O2* UNL     1      -7.259   6.940  73.661  1.00  0.00    -0.078 OA 
HETATM   20  H3* UNL     1      -5.837   6.186  71.661  1.00  0.00     0.000 HD 
BRANCH  14  21
HETATM   21  C5* UNL     1      -9.002   8.247  69.578  1.00  0.00    -0.150 C  
HETATM   22  O5* UNL     1      -9.295   6.875  69.339  1.00  0.00    -0.147 OA 
HETATM   23  H5* UNL     1      -9.890   6.783  68.604  1.00  0.00     0.000 HD 
ENDBRANCH  14  21
ENDBRANCH   8  12
TORSDOF 2
ENDMDL
MODEL      110
REMARK 921   NORMALIZED FREE ENERGY PREDICTED BY IDOCK:   -3.88 KCAL/MOL
REMARK 922        TOTAL FREE ENERGY PREDICTED BY IDOCK:   -4.31 KCAL/MOL
REMARK 923 INTER-LIGAND FREE ENERGY PREDICTED BY IDOCK:   -4.25 KCAL/MOL
REMARK 924 INTRA-LIGAND FREE ENERGY PREDICTED BY IDOCK:   -0.05 KCAL/MOL
REMARK 927      BINDING AFFINITY PREDICTED BY RF-SCORE:    0.00 PKD
ROOT
HETATM    1  N   UNL     1      -9.758   3.886  69.153  1.00  0.00    -0.142 NA 
HETATM    2  H2  UNL     1     -10.312   3.432  68.425  1.00  0.00     0.000 HD 
HETATM    3  C   UNL     1      -9.757   5.235  69.260  1.00  0.00    -0.170 C  
HETATM    4  H1  UNL     1      -9.206   3.324  69.800  1.00  0.00     0.000 HD 
HETATM    5  N   UNL     1     -10.455   5.946  68.442  1.00  0.00    -0.215 N  
HETATM    6  C   UNL     1     -10.431   7.306  68.601  1.00  0.00    -0.194 C  
HETATM    7  H   UNL     1     -11.006   5.510  67.703  1.00  0.00     0.000 HD 
HETATM    8  N   UNL     1     -10.119   7.782  69.844  1.00  0.00    -0.199 N  
HETATM    9  O   UNL     1     -10.670   8.054  67.661  1.00  0.00    -0.216 OA 
HETATM   10  N   UNL     1      -8.987   5.777  70.234  1.00  0.00    -0.140 NA 
HETATM   11  C   UNL     1      -9.212   7.013  70.501  1.00  0.00    -0.159 C  
ENDROOT
BRANCH   8  12
HETATM   12  C1* UNL     1     -10.197   9.187  70.175  1.00  0.00    -0.205 C  
HETATM   13  O4* UNL     1     -10.429   9.266  71.601  1.00  0.00    -0.344 OA 
HETATM   14  C4* UNL     1     -11.859   9.343  71.818  1.00  0.00    -0.382 C  
HETATM   15  C3* UNL     1     -12.448  10.046  70.602  1.00  0.00    -0.236 C  
HETATM   16  H2* UNL     1     -11.530  12.004  69.083  1.00  0.00     0.000 HD 
HETATM   17  C2* UNL     1     -11.308  10.086  69.581  1.00  0.00    -0.202 C  
HETATM   18  O3* UNL     1     -12.907  11.347  70.976  1.00  0.00    -0.347 OA 
HETATM   19  O2* UNL     1     -10.848  11.452  69.448  1.00  0.00    -0.226 OA 
HETATM   20  H3* UNL     1     -13.274  11.786  70.217  1.00  0.00     0.000 HD 
BRANCH  14  21
HETATM   21  C5* UNL     1     -12.460   7.938  71.988  1.00  0.00    -0.304 C  
HETATM   22  O5* UNL     1     -13.302   7.616  70.887  1.00  0.00    -0.575 OA 
HETATM   23  H5* UNL     1     -13.674   6.748  70.992  1.00  0.00     0.000 HD 
ENDBRANCH  14  21
ENDBRANCH   8  12
TORSDOF 2
ENDMDL
MODEL      111
REMARK 921   NORMALIZED FREE ENERGY PREDICTED BY IDOCK:   -3.88 KCAL/MOL
REMARK 922        TOTAL FREE ENERGY PREDICTED BY IDOCK:   -4.31 KCAL/MOL
REMARK 923 INTER-LIGAND FREE ENERGY PREDICTED BY IDOCK:   -4.27 KCAL/MOL
REMARK 924 INTRA-LIGAND FREE ENERGY PREDICTED BY IDOCK:   -0.04 KCAL/MOL
REMARK 927      BINDING AFFINITY PREDICTED BY RF-SCORE:    0.00 PKD
ROOT
HETATM    1  N   UNL     1     -11.252   5.558  73.475  1.00  0.00    -0.465 NA 
HETATM    2  H2  UNL     1     -11.446   5.903  74.416  1.00  0.00     0.000 HD 
HETATM    3  C   UNL     1     -11.435   6.368  72.406  1.00  0.00    -0.282 C  
HETATM    4  H1  UNL     1     -10.921   4.603  73.339  1.00  0.00     0.000 HD 
HETATM    5  N   UNL     1     -11.853   7.574  72.578  1.00  0.00    -0.500 N  
HETATM    6  C   UNL     1     -12.008   8.359  71.465  1.00  0.00    -0.299 C  
HETATM    7  H   UNL     1     -12.061   7.933  73.510  1.00  0.00     0.000 HD 
HETATM    8  N   UNL     1     -11.268   8.029  70.364  1.00  0.00    -0.258 N  
HETATM    9  O   UNL     1     -12.786   9.304  71.464  1.00  0.00    -0.318 OA 
HETATM   10  N   UNL     1     -11.178   5.844  71.184  1.00  0.00    -0.252 NA 
HETATM   11  C   UNL     1     -11.083   6.691  70.222  1.00  0.00    -0.326 C  
ENDROOT
BRANCH   8  12
HETATM   12  C1* UNL     1     -11.235   8.857  69.179  1.00  0.00     0.259 C  
HETATM   13  O4* UNL     1     -10.110   8.407  68.388  1.00  0.00    -0.186 OA 
HETATM   14  C4* UNL     1      -8.963   9.219  68.740  1.00  0.00    -0.132 C  
HETATM   15  C3* UNL     1      -9.503  10.584  69.147  1.00  0.00    -0.191 C  
HETATM   16  H2* UNL     1     -11.539  12.012  68.251  1.00  0.00     0.000 HD 
HETATM   17  C2* UNL     1     -11.016  10.386  69.279  1.00  0.00    -0.242 C  
HETATM   18  O3* UNL     1      -9.153  11.553  68.155  1.00  0.00    -0.167 OA 
HETATM   19  O2* UNL     1     -11.675  11.073  68.189  1.00  0.00    -0.497 OA 
HETATM   20  H3* UNL     1      -9.490  12.404  68.409  1.00  0.00     0.000 HD 
BRANCH  14  21
HETATM   21  C5* UNL     1      -8.172   8.574  69.890  1.00  0.00    -0.121 C  
HETATM   22  O5* UNL     1      -8.342   9.315  71.093  1.00  0.00    -0.291 OA 
HETATM   23  H5* UNL     1      -7.853   8.916  71.804  1.00  0.00     0.000 HD 
ENDBRANCH  14  21
ENDBRANCH   8  12
TORSDOF 2
ENDMDL
MODEL      112
REMARK 921   NORMALIZED FREE ENERGY PREDICTED BY IDOCK:   -3.87 KCAL/MOL
REMARK 922        TOTAL FREE ENERGY PREDICTED BY IDOCK:   -4.30 KCAL/MOL
REMARK 923 INTER-LIGAND FREE ENERGY PREDICTED BY IDOCK:   -4.24 KCAL/MOL
REMARK 924 INTRA-LIGAND FREE ENERGY PREDICTED BY IDOCK:   -0.06 KCAL/MOL
REMARK 927      BINDING AFFINITY PREDICTED BY RF-SCORE:    0.00 PKD
ROOT
HETATM    1  N   UNL     1      -6.447  13.464  67.367  1.00  0.00    -0.390 NA 
HETATM    2  H2  UNL     1      -5.781  13.882  68.019  1.00  0.00     0.000 HD 
HETATM    3  C   UNL     1      -7.249  12.452  67.773  1.00  0.00    -0.119 C  
HETATM    4  H1  UNL     1      -6.509  13.809  66.410  1.00  0.00     0.000 HD 
HETATM    5  N   UNL     1      -7.171  12.017  68.983  1.00  0.00    -0.241 N  
HETATM    6  C   UNL     1      -8.014  11.001  69.349  1.00  0.00     0.047 C  
HETATM    7  H   UNL     1      -6.505  12.415  69.645  1.00  0.00     0.000 HD 
HETATM    8  N   UNL     1      -9.172  10.865  68.634  1.00  0.00    -0.180 N  
HETATM    9  O   UNL     1      -7.729  10.247  70.271  1.00  0.00    -0.183 OA 
HETATM   10  N   UNL     1      -8.097  11.931  66.856  1.00  0.00    -0.165 NA 
HETATM   11  C   UNL     1      -9.032  11.181  67.321  1.00  0.00    -0.147 C  
ENDROOT
BRANCH   8  12
HETATM   12  C1* UNL     1     -10.205   9.926  69.009  1.00  0.00    -0.200 C  
HETATM   13  O4* UNL     1     -11.433  10.395  68.403  1.00  0.00    -0.259 OA 
HETATM   14  C4* UNL     1     -12.120  11.227  69.370  1.00  0.00    -0.315 C  
HETATM   15  C3* UNL     1     -11.747  10.693  70.747  1.00  0.00    -0.335 C  
HETATM   16  H2* UNL     1     -11.306   8.240  71.626  1.00  0.00     0.000 HD 
HETATM   17  C2* UNL     1     -10.594   9.717  70.492  1.00  0.00    -0.312 C  
HETATM   18  O3* UNL     1     -12.886  10.066  71.343  1.00  0.00    -0.352 OA 
HETATM   19  O2* UNL     1     -11.067   8.368  70.716  1.00  0.00    -0.249 OA 
HETATM   20  H3* UNL     1     -12.653   9.734  72.202  1.00  0.00     0.000 HD 
BRANCH  14  21
HETATM   21  C5* UNL     1     -11.703  12.698  69.217  1.00  0.00    -0.322 C  
HETATM   22  O5* UNL     1     -11.574  13.319  70.491  1.00  0.00    -0.523 OA 
HETATM   23  H5* UNL     1     -11.316  14.228  70.396  1.00  0.00     0.000 HD 
ENDBRANCH  14  21
ENDBRANCH   8  12
TORSDOF 2
ENDMDL
MODEL      113
REMARK 921   NORMALIZED FREE ENERGY PREDICTED BY IDOCK:   -3.85 KCAL/MOL
REMARK 922        TOTAL FREE ENERGY PREDICTED BY IDOCK:   -4.28 KCAL/MOL
REMARK 923 INTER-LIGAND FREE ENERGY PREDICTED BY IDOCK:   -4.21 KCAL/MOL
REMARK 924 INTRA-LIGAND FREE ENERGY PREDICTED BY IDOCK:   -0.07 KCAL/MOL
REMARK 927      BINDING AFFINITY PREDICTED BY RF-SCORE:    0.00 PKD
ROOT
HETATM    1  N   UNL     1     -12.275  15.535  68.865  1.00  0.00    -0.608 NA 
HETATM    2  H2  UNL     1     -11.797  16.121  69.550  1.00  0.00     0.000 HD 
HETATM    3  C   UNL     1     -11.563  14.709  68.064  1.00  0.00    -0.340 C  
HETATM    4  H1  UNL     1     -13.291  15.571  68.784  1.00  0.00     0.000 HD 
HETATM    5  N   UNL     1     -10.279  14.664  68.167  1.00  0.00    -0.227 N  
HETATM    6  C   UNL     1      -9.605  13.801  67.343  1.00  0.00    -0.229 C  
HETATM    7  H   UNL     1      -9.783  15.249  68.839  1.00  0.00     0.000 HD 
HETATM    8  N   UNL     1     -10.302  12.730  66.860  1.00  0.00    -0.237 N  
HETATM    9  O   UNL     1      -8.432  13.997  67.051  1.00  0.00    -0.207 OA 
HETATM   10  N   UNL     1     -12.256  13.972  67.164  1.00  0.00    -0.388 NA 
HETATM   11  C   UNL     1     -11.610  13.005  66.618  1.00  0.00    -0.359 C  
ENDROOT
BRANCH   8  12
HETATM   12  C1* UNL     1      -9.669  11.676  66.099  1.00  0.00    -0.229 C  
HETATM   13  O4* UNL     1     -10.568  10.542  66.129  1.00  0.00    -0.200 OA 
HETATM   14  C4* UNL     1     -10.183   9.695  67.239  1.00  0.00    -0.233 C  
HETATM   15  C3* UNL     1      -8.680   9.869  67.419  1.00  0.00    -0.128 C  
HETATM   16  H2* UNL     1      -6.727  10.235  65.676  1.00  0.00     0.000 HD 
HETATM   17  C2* UNL     1      -8.316  11.072  66.545  1.00  0.00    -0.163 C  
HETATM   18  O3* UNL     1      -8.008   8.669  67.025  1.00  0.00    -0.095 OA 
HETATM   19  O2* UNL     1      -7.558  10.606  65.402  1.00  0.00    -0.127 OA 
HETATM   20  H3* UNL     1      -7.071   8.778  67.138  1.00  0.00     0.000 HD 
BRANCH  14  21
HETATM   21  C5* UNL     1     -10.942  10.092  68.516  1.00  0.00    -0.232 C  
HETATM   22  O5* UNL     1     -10.083  10.027  69.650  1.00  0.00    -0.210 OA 
HETATM   23  H5* UNL     1     -10.553  10.272  70.439  1.00  0.00     0.000 HD 
ENDBRANCH  14  21
ENDBRANCH   8  12
TORSDOF 2
ENDMDL
MODEL      114
REMARK 921   NORMALIZED FREE ENERGY PREDICTED BY IDOCK:   -3.82 KCAL/MOL
REMARK 922        TOTAL FREE ENERGY PREDICTED BY IDOCK:   -4.24 KCAL/MOL
REMARK 923 INTER-LIGAND FREE ENERGY PREDICTED BY IDOCK:   -4.22 KCAL/MOL
REMARK 924 INTRA-LIGAND FREE ENERGY PREDICTED BY IDOCK:   -0.02 KCAL/MOL
REMARK 927      BINDING AFFINITY PREDICTED BY RF-SCORE:    0.00 PKD
ROOT
HETATM    1  N   UNL     1      -8.222   9.301  70.618  1.00  0.00    -0.181 NA 
HETATM    2  H2  UNL     1      -8.679   9.126  71.514  1.00  0.00     0.000 HD 
HETATM    3  C   UNL     1      -8.883   9.957  69.637  1.00  0.00    -0.208 C  
HETATM    4  H1  UNL     1      -7.266   8.982  70.462  1.00  0.00     0.000 HD 
HETATM    5  N   UNL     1     -10.091  10.360  69.834  1.00  0.00    -0.421 N  
HETATM    6  C   UNL     1     -10.713  11.032  68.815  1.00  0.00    -0.203 C  
HETATM    7  H   UNL     1     -10.567  10.186  70.720  1.00  0.00     0.000 HD 
HETATM    8  N   UNL     1      -9.910  11.660  67.904  1.00  0.00    -0.179 N  
HETATM    9  O   UNL     1     -11.934  11.054  68.727  1.00  0.00    -0.457 OA 
HETATM   10  N   UNL     1      -8.228  10.141  68.466  1.00  0.00    -0.107 NA 
HETATM   11  C   UNL     1      -8.751  10.995  67.661  1.00  0.00    -0.128 C  
ENDROOT
BRANCH   8  12
HETATM   12  C1* UNL     1     -10.441  12.516  66.867  1.00  0.00    -0.228 C  
HETATM   13  O4* UNL     1      -9.312  13.193  66.266  1.00  0.00    -0.223 OA 
HETATM   14  C4* UNL     1      -9.140  14.462  66.944  1.00  0.00    -0.251 C  
HETATM   15  C3* UNL     1     -10.524  14.901  67.407  1.00  0.00    -0.255 C  
HETATM   16  H2* UNL     1     -12.915  14.633  66.312  1.00  0.00     0.000 HD 
HETATM   17  C2* UNL     1     -11.414  13.671  67.206  1.00  0.00    -0.343 C  
HETATM   18  O3* UNL     1     -10.951  16.029  66.639  1.00  0.00    -0.234 OA 
HETATM   19  O2* UNL     1     -12.318  13.923  66.103  1.00  0.00    -0.452 OA 
HETATM   20  H3* UNL     1     -11.814  16.302  66.928  1.00  0.00     0.000 HD 
BRANCH  14  21
HETATM   21  C5* UNL     1      -8.180  14.317  68.137  1.00  0.00    -0.146 C  
HETATM   22  O5* UNL     1      -8.509  15.248  69.162  1.00  0.00    -0.203 OA 
HETATM   23  H5* UNL     1      -7.915  15.158  69.898  1.00  0.00     0.000 HD 
ENDBRANCH  14  21
ENDBRANCH   8  12
TORSDOF 2
ENDMDL
MODEL      115
REMARK 921   NORMALIZED FREE ENERGY PREDICTED BY IDOCK:   -3.81 KCAL/MOL
REMARK 922        TOTAL FREE ENERGY PREDICTED BY IDOCK:   -4.23 KCAL/MOL
REMARK 923 INTER-LIGAND FREE ENERGY PREDICTED BY IDOCK:   -4.25 KCAL/MOL
REMARK 924 INTRA-LIGAND FREE ENERGY PREDICTED BY IDOCK:    0.02 KCAL/MOL
REMARK 927      BINDING AFFINITY PREDICTED BY RF-SCORE:    0.00 PKD
ROOT
HETATM    1  N   UNL     1     -11.280   4.872  65.719  1.00  0.00    -0.893 NA 
HETATM    2  H2  UNL     1     -11.160   4.813  64.707  1.00  0.00     0.000 HD 
HETATM    3  C   UNL     1     -10.427   5.617  66.461  1.00  0.00    -0.249 C  
HETATM    4  H1  UNL     1     -12.044   4.371  66.172  1.00  0.00     0.000 HD 
HETATM    5  N   UNL     1      -9.462   6.251  65.887  1.00  0.00    -0.374 N  
HETATM    6  C   UNL     1      -8.635   7.001  66.680  1.00  0.00    -0.124 C  
HETATM    7  H   UNL     1      -9.320   6.195  64.879  1.00  0.00     0.000 HD 
HETATM    8  N   UNL     1      -9.142   7.438  67.871  1.00  0.00    -0.130 N  
HETATM    9  O   UNL     1      -7.489   7.256  66.331  1.00  0.00    -0.080 OA 
HETATM   10  N   UNL     1     -10.630   5.639  67.799  1.00  0.00    -0.222 NA 
HETATM   11  C   UNL     1     -10.002   6.556  68.444  1.00  0.00    -0.141 C  
ENDROOT
BRANCH   8  12
HETATM   12  C1* UNL     1      -8.422   8.351  68.730  1.00  0.00    -0.124 C  
HETATM   13  O4* UNL     1      -9.383   8.884  69.671  1.00  0.00    -0.157 OA 
HETATM   14  C4* UNL     1      -9.902  10.123  69.128  1.00  0.00    -0.214 C  
HETATM   15  C3* UNL     1      -8.788  10.729  68.283  1.00  0.00    -0.139 C  
HETATM   16  H2* UNL     1      -6.162  10.755  68.587  1.00  0.00     0.000 HD 
HETATM   17  C2* UNL     1      -7.742   9.617  68.156  1.00  0.00    -0.086 C  
HETATM   18  O3* UNL     1      -8.280  11.900  68.928  1.00  0.00    -0.339 OA 
HETATM   19  O2* UNL     1      -6.579   9.978  68.940  1.00  0.00    -0.048 OA 
HETATM   20  H3* UNL     1      -7.586  12.278  68.401  1.00  0.00     0.000 HD 
BRANCH  14  21
HETATM   21  C5* UNL     1     -11.157   9.862  68.280  1.00  0.00    -0.150 C  
HETATM   22  O5* UNL     1     -12.084  10.935  68.412  1.00  0.00    -0.776 OA 
HETATM   23  H5* UNL     1     -12.860  10.774  67.889  1.00  0.00     0.000 HD 
ENDBRANCH  14  21
ENDBRANCH   8  12
TORSDOF 2
ENDMDL
MODEL      116
REMARK 921   NORMALIZED FREE ENERGY PREDICTED BY IDOCK:   -3.78 KCAL/MOL
REMARK 922        TOTAL FREE ENERGY PREDICTED BY IDOCK:   -4.20 KCAL/MOL
REMARK 923 INTER-LIGAND FREE ENERGY PREDICTED BY IDOCK:   -4.18 KCAL/MOL
REMARK 924 INTRA-LIGAND FREE ENERGY PREDICTED BY IDOCK:   -0.01 KCAL/MOL
REMARK 927      BINDING AFFINITY PREDICTED BY RF-SCORE:    0.00 PKD
ROOT
HETATM    1  N   UNL     1      -5.770  20.716  69.505  1.00  0.00    -0.360 NA 
HETATM    2  H2  UNL     1      -5.754  20.875  70.513  1.00  0.00     0.000 HD 
HETATM    3  C   UNL     1      -5.996  19.474  69.018  1.00  0.00    -0.243 C  
HETATM    4  H1  UNL     1      -5.616  21.494  68.863  1.00  0.00     0.000 HD 
HETATM    5  N   UNL     1      -6.191  18.492  69.828  1.00  0.00    -0.232 N  
HETATM    6  C   UNL     1      -6.430  17.257  69.286  1.00  0.00    -0.243 C  
HETATM    7  H   UNL     1      -6.169  18.629  70.839  1.00  0.00     0.000 HD 
HETATM    8  N   UNL     1      -6.937  17.223  68.017  1.00  0.00    -0.172 N  
HETATM    9  O   UNL     1      -6.186  16.235  69.914  1.00  0.00    -0.200 OA 
HETATM   10  N   UNL     1      -5.987  19.327  67.672  1.00  0.00    -0.201 NA 
HETATM   11  C   UNL     1      -6.474  18.225  67.226  1.00  0.00    -0.178 C  
ENDROOT
BRANCH   8  12
HETATM   12  C1* UNL     1      -7.363  15.992  67.388  1.00  0.00    -0.184 C  
HETATM   13  O4* UNL     1      -8.074  16.364  66.184  1.00  0.00    -0.314 OA 
HETATM   14  C4* UNL     1      -9.484  16.450  66.506  1.00  0.00    -0.272 C  
HETATM   15  C3* UNL     1      -9.737  15.451  67.628  1.00  0.00    -0.211 C  
HETATM   16  H2* UNL     1      -8.708  13.069  68.131  1.00  0.00     0.000 HD 
HETATM   17  C2* UNL     1      -8.343  15.029  68.100  1.00  0.00    -0.142 C  
HETATM   18  O3* UNL     1     -10.512  14.357  67.130  1.00  0.00    -0.261 OA 
HETATM   19  O2* UNL     1      -8.106  13.660  67.694  1.00  0.00    -0.149 OA 
HETATM   20  H3* UNL     1     -10.669  13.734  67.830  1.00  0.00     0.000 HD 
BRANCH  14  21
HETATM   21  C5* UNL     1      -9.857  17.877  66.943  1.00  0.00    -0.321 C  
HETATM   22  O5* UNL     1      -9.795  18.771  65.837  1.00  0.00    -0.496 OA 
HETATM   23  H5* UNL     1     -10.025  19.653  66.107  1.00  0.00     0.000 HD 
ENDBRANCH  14  21
ENDBRANCH   8  12
TORSDOF 2
ENDMDL
MODEL      117
REMARK 921   NORMALIZED FREE ENERGY PREDICTED BY IDOCK:   -3.78 KCAL/MOL
REMARK 922        TOTAL FREE ENERGY PREDICTED BY IDOCK:   -4.19 KCAL/MOL
REMARK 923 INTER-LIGAND FREE ENERGY PREDICTED BY IDOCK:   -4.78 KCAL/MOL
REMARK 924 INTRA-LIGAND FREE ENERGY PREDICTED BY IDOCK:    0.58 KCAL/MOL
REMARK 927      BINDING AFFINITY PREDICTED BY RF-SCORE:    0.00 PKD
ROOT
HETATM    1  N   UNL     1     -10.515  10.920  62.584  1.00  0.00    -0.723 NA 
HETATM    2  H2  UNL     1     -11.068  11.562  62.015  1.00  0.00     0.000 HD 
HETATM    3  C   UNL     1     -10.511  11.042  63.932  1.00  0.00    -0.354 C  
HETATM    4  H1  UNL     1      -9.966  10.186  62.138  1.00  0.00     0.000 HD 
HETATM    5  N   UNL     1     -11.205  11.969  64.496  1.00  0.00    -0.321 N  
HETATM    6  C   UNL     1     -11.179  12.042  65.863  1.00  0.00    -0.337 C  
HETATM    7  H   UNL     1     -11.755  12.626  63.942  1.00  0.00     0.000 HD 
HETATM    8  N   UNL     1     -10.869  10.896  66.541  1.00  0.00    -0.214 N  
HETATM    9  O   UNL     1     -11.413  13.094  66.443  1.00  0.00    -0.308 OA 
HETATM   10  N   UNL     1      -9.743  10.171  64.628  1.00  0.00    -0.314 NA 
HETATM   11  C   UNL     1      -9.966  10.116  65.892  1.00  0.00    -0.267 C  
ENDROOT
BRANCH   8  12
HETATM   12  C1* UNL     1     -10.945  10.806  67.982  1.00  0.00    -0.283 C  
HETATM   13  O4* UNL     1     -10.264  11.969  68.509  1.00  0.00    -0.215 OA 
HETATM   14  C4* UNL     1      -8.885  11.603  68.761  1.00  0.00    -0.011 C  
HETATM   15  C3* UNL     1      -8.883  10.119  69.106  1.00  0.00    -0.175 C  
HETATM   16  H2* UNL     1     -10.607   8.616  70.431  1.00  0.00     0.000 HD 
HETATM   17  C2* UNL     1     -10.288   9.630  68.744  1.00  0.00    -0.213 C  
HETATM   18  O3* UNL     1      -8.574   9.950  70.492  1.00  0.00    -0.328 OA 
HETATM   19  O2* UNL     1     -11.010   9.338  69.964  1.00  0.00    -0.231 OA 
HETATM   20  H3* UNL     1      -8.573   9.024  70.706  1.00  0.00     0.000 HD 
BRANCH  14  21
HETATM   21  C5* UNL     1      -8.013  11.884  67.526  1.00  0.00    -0.155 C  
HETATM   22  O5* UNL     1      -8.281  13.183  67.008  1.00  0.00    -0.328 OA 
HETATM   23  H5* UNL     1      -7.742  13.356  66.245  1.00  0.00     0.000 HD 
ENDBRANCH  14  21
ENDBRANCH   8  12
TORSDOF 2
ENDMDL
MODEL      118
REMARK 921   NORMALIZED FREE ENERGY PREDICTED BY IDOCK:   -3.75 KCAL/MOL
REMARK 922        TOTAL FREE ENERGY PREDICTED BY IDOCK:   -4.16 KCAL/MOL
REMARK 923 INTER-LIGAND FREE ENERGY PREDICTED BY IDOCK:   -5.45 KCAL/MOL
REMARK 924 INTRA-LIGAND FREE ENERGY PREDICTED BY IDOCK:    1.29 KCAL/MOL
REMARK 927      BINDING AFFINITY PREDICTED BY RF-SCORE:    0.00 PKD
ROOT
HETATM    1  N   UNL     1     -10.783  20.174  65.208  1.00  0.00    -0.104 NA 
HETATM    2  H2  UNL     1     -11.206  21.081  65.408  1.00  0.00     0.000 HD 
HETATM    3  C   UNL     1     -10.386  19.372  66.224  1.00  0.00    -0.493 C  
HETATM    4  H1  UNL     1     -10.660  19.870  64.242  1.00  0.00     0.000 HD 
HETATM    5  N   UNL     1     -10.543  19.756  67.444  1.00  0.00    -0.438 N  
HETATM    6  C   UNL     1     -10.138  18.903  68.436  1.00  0.00    -0.392 C  
HETATM    7  H   UNL     1     -10.953  20.664  67.663  1.00  0.00     0.000 HD 
HETATM    8  N   UNL     1     -10.082  17.573  68.128  1.00  0.00    -0.321 N  
HETATM    9  O   UNL     1      -9.832  19.325  69.544  1.00  0.00    -0.231 OA 
HETATM   10  N   UNL     1      -9.817  18.190  65.891  1.00  0.00    -0.547 NA 
HETATM   11  C   UNL     1      -9.708  17.334  66.844  1.00  0.00    -0.273 C  
ENDROOT
BRANCH   8  12
HETATM   12  C1* UNL     1      -9.807  16.560  69.122  1.00  0.00    -0.254 C  
HETATM   13  O4* UNL     1      -9.080  15.504  68.452  1.00  0.00    -0.182 OA 
HETATM   14  C4* UNL     1     -10.039  14.515  68.003  1.00  0.00    -0.226 C  
HETATM   15  C3* UNL     1     -11.197  14.550  68.993  1.00  0.00    -0.268 C  
HETATM   16  H2* UNL     1     -11.270  14.947  71.605  1.00  0.00     0.000 HD 
HETATM   17  C2* UNL     1     -10.957  15.807  69.834  1.00  0.00    -0.333 C  
HETATM   18  O3* UNL     1     -11.198  13.351  69.772  1.00  0.00    -0.460 OA 
HETATM   19  O2* UNL     1     -10.564  15.409  71.169  1.00  0.00    -0.136 OA 
HETATM   20  H3* UNL     1     -11.921  13.373  70.388  1.00  0.00     0.000 HD 
BRANCH  14  21
HETATM   21  C5* UNL     1     -10.521  14.832  66.578  1.00  0.00    -0.291 C  
HETATM   22  O5* UNL     1      -9.639  14.268  65.613  1.00  0.00    -0.503 OA 
HETATM   23  H5* UNL     1      -9.937  14.465  64.733  1.00  0.00     0.000 HD 
ENDBRANCH  14  21
ENDBRANCH   8  12
TORSDOF 2
ENDMDL
MODEL      119
REMARK 921   NORMALIZED FREE ENERGY PREDICTED BY IDOCK:   -3.74 KCAL/MOL
REMARK 922        TOTAL FREE ENERGY PREDICTED BY IDOCK:   -4.15 KCAL/MOL
REMARK 923 INTER-LIGAND FREE ENERGY PREDICTED BY IDOCK:   -4.17 KCAL/MOL
REMARK 924 INTRA-LIGAND FREE ENERGY PREDICTED BY IDOCK:    0.01 KCAL/MOL
REMARK 927      BINDING AFFINITY PREDICTED BY RF-SCORE:    0.00 PKD
ROOT
HETATM    1  N   UNL     1      -9.633   5.445  66.385  1.00  0.00    -0.152 NA 
HETATM    2  H2  UNL     1      -8.859   4.845  66.096  1.00  0.00     0.000 HD 
HETATM    3  C   UNL     1     -10.073   5.414  67.664  1.00  0.00    -0.175 C  
HETATM    4  H1  UNL     1     -10.075   6.069  65.710  1.00  0.00     0.000 HD 
HETATM    5  N   UNL     1      -9.514   4.627  68.517  1.00  0.00    -0.138 N  
HETATM    6  C   UNL     1      -9.986   4.643  69.803  1.00  0.00    -0.225 C  
HETATM    7  H   UNL     1      -8.746   4.013  68.244  1.00  0.00     0.000 HD 
HETATM    8  N   UNL     1     -10.619   5.781  70.218  1.00  0.00    -0.276 N  
HETATM    9  O   UNL     1      -9.850   3.672  70.536  1.00  0.00    -0.176 OA 
HETATM   10  N   UNL     1     -11.114   6.221  67.979  1.00  0.00    -0.329 NA 
HETATM   11  C   UNL     1     -11.331   6.389  69.234  1.00  0.00    -0.338 C  
ENDROOT
BRANCH   8  12
HETATM   12  C1* UNL     1     -11.037   5.976  71.589  1.00  0.00    -0.275 C  
HETATM   13  O4* UNL     1     -11.447   7.359  71.706  1.00  0.00    -0.252 OA 
HETATM   14  C4* UNL     1     -10.304   8.127  72.157  1.00  0.00    -0.274 C  
HETATM   15  C3* UNL     1      -9.457   7.191  73.009  1.00  0.00    -0.158 C  
HETATM   16  H2* UNL     1     -10.114   5.246  74.675  1.00  0.00     0.000 HD 
HETATM   17  C2* UNL     1     -10.040   5.797  72.760  1.00  0.00    -0.179 C  
HETATM   18  O3* UNL     1      -9.533   7.589  74.380  1.00  0.00    -0.414 OA 
HETATM   19  O2* UNL     1     -10.725   5.356  73.956  1.00  0.00    -0.281 OA 
HETATM   20  H3* UNL     1      -9.004   7.005  74.911  1.00  0.00     0.000 HD 
BRANCH  14  21
HETATM   21  C5* UNL     1      -9.501   8.663  70.960  1.00  0.00    -0.207 C  
HETATM   22  O5* UNL     1      -8.255   9.198  71.391  1.00  0.00    -0.316 OA 
HETATM   23  H5* UNL     1      -7.759   9.529  70.651  1.00  0.00     0.000 HD 
ENDBRANCH  14  21
ENDBRANCH   8  12
TORSDOF 2
ENDMDL
MODEL      120
REMARK 921   NORMALIZED FREE ENERGY PREDICTED BY IDOCK:   -3.67 KCAL/MOL
REMARK 922        TOTAL FREE ENERGY PREDICTED BY IDOCK:   -4.08 KCAL/MOL
REMARK 923 INTER-LIGAND FREE ENERGY PREDICTED BY IDOCK:   -4.20 KCAL/MOL
REMARK 924 INTRA-LIGAND FREE ENERGY PREDICTED BY IDOCK:    0.13 KCAL/MOL
REMARK 927      BINDING AFFINITY PREDICTED BY RF-SCORE:    0.00 PKD
ROOT
HETATM    1  N   UNL     1      -6.687  11.485  67.717  1.00  0.00    -0.068 NA 
HETATM    2  H2  UNL     1      -6.244  12.284  68.173  1.00  0.00     0.000 HD 
HETATM    3  C   UNL     1      -7.239  10.500  68.463  1.00  0.00    -0.085 C  
HETATM    4  H1  UNL     1      -6.714  11.428  66.700  1.00  0.00     0.000 HD 
HETATM    5  N   UNL     1      -7.205  10.572  69.750  1.00  0.00    -0.168 N  
HETATM    6  C   UNL     1      -7.790   9.557  70.460  1.00  0.00    -0.157 C  
HETATM    7  H   UNL     1      -6.758  11.357  70.222  1.00  0.00     0.000 HD 
HETATM    8  N   UNL     1      -8.769   8.841  69.829  1.00  0.00    -0.129 N  
HETATM    9  O   UNL     1      -7.437   9.304  71.604  1.00  0.00    -0.339 OA 
HETATM   10  N   UNL     1      -7.795   9.459  67.799  1.00  0.00    -0.095 NA 
HETATM   11  C   UNL     1      -8.550   8.689  68.497  1.00  0.00    -0.135 C  
ENDROOT
BRANCH   8  12
HETATM   12  C1* UNL     1      -9.558   7.841  70.514  1.00  0.00    -0.167 C  
HETATM   13  O4* UNL     1     -10.888   7.900  69.947  1.00  0.00    -0.247 OA 
HETATM   14  C4* UNL     1     -11.683   8.795  70.764  1.00  0.00    -0.219 C  
HETATM   15  C3* UNL     1     -11.130   8.699  72.181  1.00  0.00    -0.364 C  
HETATM   16  H2* UNL     1     -10.131   6.669  73.548  1.00  0.00     0.000 HD 
HETATM   17  C2* UNL     1      -9.812   7.932  72.038  1.00  0.00    -0.192 C  
HETATM   18  O3* UNL     1     -12.076   8.030  73.019  1.00  0.00    -0.646 OA 
HETATM   19  O2* UNL     1      -9.974   6.613  72.612  1.00  0.00    -0.169 OA 
HETATM   20  H3* UNL     1     -11.731   7.970  73.903  1.00  0.00     0.000 HD 
BRANCH  14  21
HETATM   21  C5* UNL     1     -11.596  10.236  70.235  1.00  0.00    -0.316 C  
HETATM   22  O5* UNL     1     -12.486  10.422  69.140  1.00  0.00    -0.705 OA 
HETATM   23  H5* UNL     1     -12.432  11.312  68.813  1.00  0.00     0.000 HD 
ENDBRANCH  14  21
ENDBRANCH   8  12
TORSDOF 2
ENDMDL
MODEL      121
REMARK 921   NORMALIZED FREE ENERGY PREDICTED BY IDOCK:   -3.67 KCAL/MOL
REMARK 922        TOTAL FREE ENERGY PREDICTED BY IDOCK:   -4.07 KCAL/MOL
REMARK 923 INTER-LIGAND FREE ENERGY PREDICTED BY IDOCK:   -3.99 KCAL/MOL
REMARK 924 INTRA-LIGAND FREE ENERGY PREDICTED BY IDOCK:   -0.08 KCAL/MOL
REMARK 927      BINDING AFFINITY PREDICTED BY RF-SCORE:    0.00 PKD
ROOT
HETATM    1  N   UNL     1      -9.008   7.592  74.564  1.00  0.00    -0.434 NA 
HETATM    2  H2  UNL     1      -8.040   7.830  74.784  1.00  0.00     0.000 HD 
HETATM    3  C   UNL     1      -9.516   7.883  73.344  1.00  0.00    -0.275 C  
HETATM    4  H1  UNL     1      -9.593   7.135  75.263  1.00  0.00     0.000 HD 
HETATM    5  N   UNL     1      -8.777   8.461  72.461  1.00  0.00    -0.214 N  
HETATM    6  C   UNL     1      -9.333   8.721  71.237  1.00  0.00    -0.250 C  
HETATM    7  H   UNL     1      -7.810   8.714  72.666  1.00  0.00     0.000 HD 
HETATM    8  N   UNL     1     -10.392   7.944  70.857  1.00  0.00    -0.200 N  
HETATM    9  O   UNL     1      -8.901   9.619  70.526  1.00  0.00    -0.225 OA 
HETATM   10  N   UNL     1     -10.812   7.559  73.122  1.00  0.00    -0.395 NA 
HETATM   11  C   UNL     1     -11.191   7.581  71.894  1.00  0.00    -0.248 C  
ENDROOT
BRANCH   8  12
HETATM   12  C1* UNL     1     -10.976   8.025  69.537  1.00  0.00    -0.054 C  
HETATM   13  O4* UNL     1     -11.708   6.794  69.329  1.00  0.00    -0.104 OA 
HETATM   14  C4* UNL     1     -10.826   5.857  68.661  1.00  0.00    -0.261 C  
HETATM   15  C3* UNL     1      -9.870   6.686  67.812  1.00  0.00    -0.124 C  
HETATM   16  H2* UNL     1     -10.214   8.926  66.452  1.00  0.00     0.000 HD 
HETATM   17  C2* UNL     1     -10.084   8.130  68.276  1.00  0.00    -0.197 C  
HETATM   18  O3* UNL     1     -10.171   6.495  66.427  1.00  0.00    -0.398 OA 
HETATM   19  O2* UNL     1     -10.761   8.862  67.226  1.00  0.00    -0.273 OA 
HETATM   20  H3* UNL     1      -9.575   7.012  65.898  1.00  0.00     0.000 HD 
BRANCH  14  21
HETATM   21  C5* UNL     1     -10.058   5.007  69.687  1.00  0.00    -0.251 C  
HETATM   22  O5* UNL     1      -8.672   4.964  69.364  1.00  0.00    -0.086 OA 
HETATM   23  H5* UNL     1      -8.197   4.439  69.998  1.00  0.00     0.000 HD 
ENDBRANCH  14  21
ENDBRANCH   8  12
TORSDOF 2
ENDMDL
MODEL      122
REMARK 921   NORMALIZED FREE ENERGY PREDICTED BY IDOCK:   -3.65 KCAL/MOL
REMARK 922        TOTAL FREE ENERGY PREDICTED BY IDOCK:   -4.05 KCAL/MOL
REMARK 923 INTER-LIGAND FREE ENERGY PREDICTED BY IDOCK:   -4.00 KCAL/MOL
REMARK 924 INTRA-LIGAND FREE ENERGY PREDICTED BY IDOCK:   -0.05 KCAL/MOL
REMARK 927      BINDING AFFINITY PREDICTED BY RF-SCORE:    0.00 PKD
ROOT
HETATM    1  N   UNL     1      -8.936  18.715  67.952  1.00  0.00    -0.282 NA 
HETATM    2  H2  UNL     1      -8.643  19.271  67.148  1.00  0.00     0.000 HD 
HETATM    3  C   UNL     1      -9.462  17.481  67.768  1.00  0.00    -0.269 C  
HETATM    4  H1  UNL     1      -8.834  19.088  68.896  1.00  0.00     0.000 HD 
HETATM    5  N   UNL     1      -9.590  17.009  66.576  1.00  0.00    -0.266 N  
HETATM    6  C   UNL     1     -10.114  15.750  66.443  1.00  0.00    -0.291 C  
HETATM    7  H   UNL     1      -9.312  17.554  65.760  1.00  0.00     0.000 HD 
HETATM    8  N   UNL     1      -9.992  14.910  67.514  1.00  0.00    -0.219 N  
HETATM    9  O   UNL     1     -10.674  15.407  65.410  1.00  0.00    -0.347 OA 
HETATM   10  N   UNL     1      -9.848  16.803  68.874  1.00  0.00    -0.255 NA 
HETATM   11  C   UNL     1     -10.075  15.549  68.710  1.00  0.00    -0.211 C  
ENDROOT
BRANCH   8  12
HETATM   12  C1* UNL     1     -10.376  13.517  67.451  1.00  0.00    -0.237 C  
HETATM   13  O4* UNL     1      -9.782  12.869  68.600  1.00  0.00    -0.160 OA 
HETATM   14  C4* UNL     1      -8.502  12.325  68.194  1.00  0.00    -0.176 C  
HETATM   15  C3* UNL     1      -8.626  11.973  66.717  1.00  0.00    -0.177 C  
HETATM   16  H2* UNL     1     -10.644  11.031  65.294  1.00  0.00     0.000 HD 
HETATM   17  C2* UNL     1      -9.938  12.622  66.267  1.00  0.00    -0.258 C  
HETATM   18  O3* UNL     1      -8.625  10.552  66.562  1.00  0.00    -0.132 OA 
HETATM   19  O2* UNL     1     -10.914  11.581  66.021  1.00  0.00    -0.291 OA 
HETATM   20  H3* UNL     1      -8.702  10.333  65.640  1.00  0.00     0.000 HD 
BRANCH  14  21
HETATM   21  C5* UNL     1      -7.378  13.348  68.425  1.00  0.00    -0.112 C  
HETATM   22  O5* UNL     1      -7.259  13.658  69.810  1.00  0.00    -0.317 OA 
HETATM   23  H5* UNL     1      -6.564  14.290  69.952  1.00  0.00     0.000 HD 
ENDBRANCH  14  21
ENDBRANCH   8  12
TORSDOF 2
ENDMDL
MODEL      123
REMARK 921   NORMALIZED FREE ENERGY PREDICTED BY IDOCK:   -3.64 KCAL/MOL
REMARK 922        TOTAL FREE ENERGY PREDICTED BY IDOCK:   -4.04 KCAL/MOL
REMARK 923 INTER-LIGAND FREE ENERGY PREDICTED BY IDOCK:   -4.62 KCAL/MOL
REMARK 924 INTRA-LIGAND FREE ENERGY PREDICTED BY IDOCK:    0.58 KCAL/MOL
REMARK 927      BINDING AFFINITY PREDICTED BY RF-SCORE:    0.00 PKD
ROOT
HETATM    1  N   UNL     1      -7.733   9.916  69.983  1.00  0.00    -0.167 NA 
HETATM    2  H2  UNL     1      -8.090   9.200  70.617  1.00  0.00     0.000 HD 
HETATM    3  C   UNL     1      -8.594  10.670  69.260  1.00  0.00    -0.085 C  
HETATM    4  H1  UNL     1      -6.728  10.065  69.895  1.00  0.00     0.000 HD 
HETATM    5  N   UNL     1      -9.863  10.483  69.373  1.00  0.00    -0.336 N  
HETATM    6  C   UNL     1     -10.693  11.281  68.631  1.00  0.00    -0.205 C  
HETATM    7  H   UNL     1     -10.238   9.765  69.994  1.00  0.00     0.000 HD 
HETATM    8  N   UNL     1     -10.201  12.495  68.239  1.00  0.00    -0.230 N  
HETATM    9  O   UNL     1     -11.819  10.910  68.327  1.00  0.00    -0.530 OA 
HETATM   10  N   UNL     1      -8.056  11.590  68.425  1.00  0.00    -0.143 NA 
HETATM   11  C   UNL     1      -8.870  12.473  67.968  1.00  0.00    -0.187 C  
ENDROOT
BRANCH   8  12
HETATM   12  C1* UNL     1     -11.021  13.483  67.575  1.00  0.00    -0.268 C  
HETATM   13  O4* UNL     1     -11.769  12.785  66.552  1.00  0.00    -0.361 OA 
HETATM   14  C4* UNL     1     -11.020  12.871  65.314  1.00  0.00    -0.283 C  
HETATM   15  C3* UNL     1     -10.246  14.182  65.362  1.00  0.00    -0.358 C  
HETATM   16  H2* UNL     1     -10.856  16.551  66.364  1.00  0.00     0.000 HD 
HETATM   17  C2* UNL     1     -10.382  14.666  66.809  1.00  0.00    -0.268 C  
HETATM   18  O3* UNL     1     -10.799  15.099  64.414  1.00  0.00    -0.631 OA 
HETATM   19  O2* UNL     1     -11.249  15.825  66.834  1.00  0.00    -0.208 OA 
HETATM   20  H3* UNL     1     -10.317  15.917  64.444  1.00  0.00     0.000 HD 
BRANCH  14  21
HETATM   21  C5* UNL     1     -10.066  11.673  65.171  1.00  0.00    -0.262 C  
HETATM   22  O5* UNL     1     -10.729  10.460  65.513  1.00  0.00    -0.093 OA 
HETATM   23  H5* UNL     1     -10.140   9.720  65.425  1.00  0.00     0.000 HD 
ENDBRANCH  14  21
ENDBRANCH   8  12
TORSDOF 2
ENDMDL
MODEL      124
REMARK 921   NORMALIZED FREE ENERGY PREDICTED BY IDOCK:   -3.63 KCAL/MOL
REMARK 922        TOTAL FREE ENERGY PREDICTED BY IDOCK:   -4.03 KCAL/MOL
REMARK 923 INTER-LIGAND FREE ENERGY PREDICTED BY IDOCK:   -4.05 KCAL/MOL
REMARK 924 INTRA-LIGAND FREE ENERGY PREDICTED BY IDOCK:    0.03 KCAL/MOL
REMARK 927      BINDING AFFINITY PREDICTED BY RF-SCORE:    0.00 PKD
ROOT
HETATM    1  N   UNL     1      -7.424   7.588  66.242  1.00  0.00    -0.082 NA 
HETATM    2  H2  UNL     1      -7.215   6.643  65.918  1.00  0.00     0.000 HD 
HETATM    3  C   UNL     1      -8.479   7.807  67.061  1.00  0.00    -0.124 C  
HETATM    4  H1  UNL     1      -6.836   8.369  65.951  1.00  0.00     0.000 HD 
HETATM    5  N   UNL     1      -9.221   6.820  67.430  1.00  0.00    -0.126 N  
HETATM    6  C   UNL     1     -10.269   7.090  68.270  1.00  0.00    -0.182 C  
HETATM    7  H   UNL     1      -9.035   5.870  67.107  1.00  0.00     0.000 HD 
HETATM    8  N   UNL     1     -10.172   8.214  69.042  1.00  0.00    -0.216 N  
HETATM    9  O   UNL     1     -11.248   6.357  68.312  1.00  0.00    -0.309 OA 
HETATM   10  N   UNL     1      -8.712   9.085  67.441  1.00  0.00    -0.119 NA 
HETATM   11  C   UNL     1      -9.526   9.237  68.423  1.00  0.00    -0.138 C  
ENDROOT
BRANCH   8  12
HETATM   12  C1* UNL     1     -11.141   8.534  70.066  1.00  0.00    -0.151 C  
HETATM   13  O4* UNL     1     -10.488   9.435  70.991  1.00  0.00    -0.283 OA 
HETATM   14  C4* UNL     1      -9.920   8.641  72.062  1.00  0.00    -0.329 C  
HETATM   15  C3* UNL     1     -10.811   7.415  72.217  1.00  0.00    -0.247 C  
HETATM   16  H2* UNL     1     -13.423   7.093  71.970  1.00  0.00     0.000 HD 
HETATM   17  C2* UNL     1     -11.722   7.434  70.986  1.00  0.00    -0.297 C  
HETATM   18  O3* UNL     1     -11.535   7.501  73.447  1.00  0.00    -0.629 OA 
HETATM   19  O2* UNL     1     -13.067   7.769  71.405  1.00  0.00    -0.321 OA 
HETATM   20  H3* UNL     1     -12.090   6.736  73.543  1.00  0.00     0.000 HD 
BRANCH  14  21
HETATM   21  C5* UNL     1      -8.475   8.234  71.730  1.00  0.00    -0.158 C  
HETATM   22  O5* UNL     1      -7.549   9.062  72.426  1.00  0.00    -0.342 OA 
HETATM   23  H5* UNL     1      -6.656   8.810  72.220  1.00  0.00     0.000 HD 
ENDBRANCH  14  21
ENDBRANCH   8  12
TORSDOF 2
ENDMDL
MODEL      125
REMARK 921   NORMALIZED FREE ENERGY PREDICTED BY IDOCK:   -3.61 KCAL/MOL
REMARK 922        TOTAL FREE ENERGY PREDICTED BY IDOCK:   -4.01 KCAL/MOL
REMARK 923 INTER-LIGAND FREE ENERGY PREDICTED BY IDOCK:   -4.12 KCAL/MOL
REMARK 924 INTRA-LIGAND FREE ENERGY PREDICTED BY IDOCK:    0.11 KCAL/MOL
REMARK 927      BINDING AFFINITY PREDICTED BY RF-SCORE:    0.00 PKD
ROOT
HETATM    1  N   UNL     1     -12.501  11.595  63.112  1.00  0.00    -0.949 NA 
HETATM    2  H2  UNL     1     -13.396  12.081  63.179  1.00  0.00     0.000 HD 
HETATM    3  C   UNL     1     -11.713  11.471  64.205  1.00  0.00    -0.079 C  
HETATM    4  H1  UNL     1     -12.200  11.201  62.221  1.00  0.00     0.000 HD 
HETATM    5  N   UNL     1     -12.093  11.969  65.331  1.00  0.00    -0.162 N  
HETATM    6  C   UNL     1     -11.267  11.805  66.411  1.00  0.00    -0.323 C  
HETATM    7  H   UNL     1     -12.980  12.467  65.415  1.00  0.00     0.000 HD 
HETATM    8  N   UNL     1     -10.398  10.750  66.375  1.00  0.00    -0.246 N  
HETATM    9  O   UNL     1     -11.304  12.581  67.357  1.00  0.00    -0.275 OA 
HETATM   10  N   UNL     1     -10.531  10.831  64.045  1.00  0.00    -0.314 NA 
HETATM   11  C   UNL     1      -9.935  10.478  65.127  1.00  0.00    -0.309 C  
ENDROOT
BRANCH   8  12
HETATM   12  C1* UNL     1      -9.575  10.387  67.507  1.00  0.00    -0.156 C  
HETATM   13  O4* UNL     1      -8.847   9.195  67.128  1.00  0.00    -0.119 OA 
HETATM   14  C4* UNL     1      -9.609   8.045  67.571  1.00  0.00    -0.153 C  
HETATM   15  C3* UNL     1     -10.368   8.479  68.818  1.00  0.00    -0.213 C  
HETATM   16  H2* UNL     1      -9.723  10.111  70.795  1.00  0.00     0.000 HD 
HETATM   17  C2* UNL     1     -10.211  10.002  68.864  1.00  0.00    -0.193 C  
HETATM   18  O3* UNL     1      -9.817   7.827  69.966  1.00  0.00    -0.179 OA 
HETATM   19  O2* UNL     1      -9.332  10.348  69.962  1.00  0.00    -0.018 OA 
HETATM   20  H3* UNL     1     -10.291   8.098  70.743  1.00  0.00     0.000 HD 
BRANCH  14  21
HETATM   21  C5* UNL     1     -10.576   7.577  66.471  1.00  0.00     0.183 C  
HETATM   22  O5* UNL     1     -11.068   6.273  66.758  1.00  0.00    -0.617 OA 
HETATM   23  H5* UNL     1     -11.665   5.983  66.078  1.00  0.00     0.000 HD 
ENDBRANCH  14  21
ENDBRANCH   8  12
TORSDOF 2
ENDMDL
MODEL      126
REMARK 921   NORMALIZED FREE ENERGY PREDICTED BY IDOCK:   -3.60 KCAL/MOL
REMARK 922        TOTAL FREE ENERGY PREDICTED BY IDOCK:   -3.99 KCAL/MOL
REMARK 923 INTER-LIGAND FREE ENERGY PREDICTED BY IDOCK:   -4.78 KCAL/MOL
REMARK 924 INTRA-LIGAND FREE ENERGY PREDICTED BY IDOCK:    0.79 KCAL/MOL
REMARK 927      BINDING AFFINITY PREDICTED BY RF-SCORE:    0.00 PKD
ROOT
HETATM    1  N   UNL     1      -8.493  11.901  69.138  1.00  0.00    -0.300 NA 
HETATM    2  H2  UNL     1      -7.600  11.408  69.165  1.00  0.00     0.000 HD 
HETATM    3  C   UNL     1      -8.615  13.044  68.423  1.00  0.00    -0.116 C  
HETATM    4  H1  UNL     1      -9.294  11.534  69.651  1.00  0.00     0.000 HD 
HETATM    5  N   UNL     1      -7.602  13.508  67.775  1.00  0.00    -0.145 N  
HETATM    6  C   UNL     1      -7.781  14.659  67.055  1.00  0.00     0.041 C  
HETATM    7  H   UNL     1      -6.699  13.033  67.798  1.00  0.00     0.000 HD 
HETATM    8  N   UNL     1      -9.055  14.952  66.656  1.00  0.00    -0.268 N  
HETATM    9  O   UNL     1      -6.835  15.392  66.795  1.00  0.00    -0.119 OA 
HETATM   10  N   UNL     1      -9.821  13.660  68.444  1.00  0.00    -0.228 NA 
HETATM   11  C   UNL     1     -10.000  14.568  67.552  1.00  0.00    -0.224 C  
ENDROOT
BRANCH   8  12
HETATM   12  C1* UNL     1      -9.353  16.059  65.775  1.00  0.00    -0.215 C  
HETATM   13  O4* UNL     1      -8.385  17.095  66.064  1.00  0.00    -0.483 OA 
HETATM   14  C4* UNL     1      -8.965  17.986  67.049  1.00  0.00    -0.258 C  
HETATM   15  C3* UNL     1     -10.472  17.967  66.821  1.00  0.00    -0.311 C  
HETATM   16  H2* UNL     1     -11.917  17.788  64.615  1.00  0.00     0.000 HD 
HETATM   17  C2* UNL     1     -10.709  16.801  65.857  1.00  0.00    -0.163 C  
HETATM   18  O3* UNL     1     -10.891  19.226  66.286  1.00  0.00    -0.383 OA 
HETATM   19  O2* UNL     1     -11.085  17.332  64.564  1.00  0.00    -1.082 OA 
HETATM   20  H3* UNL     1     -11.830  19.214  66.144  1.00  0.00     0.000 HD 
BRANCH  14  21
HETATM   21  C5* UNL     1      -8.617  17.523  68.474  1.00  0.00    -0.276 C  
HETATM   22  O5* UNL     1      -7.228  17.696  68.731  1.00  0.00    -0.251 OA 
HETATM   23  H5* UNL     1      -7.013  17.410  69.612  1.00  0.00     0.000 HD 
ENDBRANCH  14  21
ENDBRANCH   8  12
TORSDOF 2
ENDMDL
MODEL      127
REMARK 921   NORMALIZED FREE ENERGY PREDICTED BY IDOCK:   -3.59 KCAL/MOL
REMARK 922        TOTAL FREE ENERGY PREDICTED BY IDOCK:   -3.99 KCAL/MOL
REMARK 923 INTER-LIGAND FREE ENERGY PREDICTED BY IDOCK:   -4.12 KCAL/MOL
REMARK 924 INTRA-LIGAND FREE ENERGY PREDICTED BY IDOCK:    0.13 KCAL/MOL
REMARK 927      BINDING AFFINITY PREDICTED BY RF-SCORE:    0.00 PKD
ROOT
HETATM    1  N   UNL     1     -10.778   6.106  66.434  1.00  0.00    -0.526 NA 
HETATM    2  H2  UNL     1     -11.700   5.841  66.083  1.00  0.00     0.000 HD 
HETATM    3  C   UNL     1     -10.602   6.361  67.751  1.00  0.00    -0.266 C  
HETATM    4  H1  UNL     1      -9.990   6.178  65.792  1.00  0.00     0.000 HD 
HETATM    5  N   UNL     1     -11.599   6.269  68.562  1.00  0.00    -0.341 N  
HETATM    6  C   UNL     1     -11.366   6.523  69.888  1.00  0.00    -0.406 C  
HETATM    7  H   UNL     1     -12.529   6.016  68.228  1.00  0.00     0.000 HD 
HETATM    8  N   UNL     1     -10.086   6.356  70.338  1.00  0.00    -0.183 N  
HETATM    9  O   UNL     1     -12.270   6.893  70.627  1.00  0.00    -0.365 OA 
HETATM   10  N   UNL     1      -9.360   6.724  68.149  1.00  0.00    -0.124 NA 
HETATM   11  C   UNL     1      -9.146   6.687  69.415  1.00  0.00    -0.143 C  
ENDROOT
BRANCH   8  12
HETATM   12  C1* UNL     1      -9.740   6.455  71.738  1.00  0.00    -0.159 C  
HETATM   13  O4* UNL     1      -8.688   5.490  71.977  1.00  0.00    -0.130 OA 
HETATM   14  C4* UNL     1      -9.305   4.258  72.424  1.00  0.00    -0.119 C  
HETATM   15  C3* UNL     1     -10.579   4.650  73.162  1.00  0.00    -0.218 C  
HETATM   16  H2* UNL     1     -11.153   6.713  74.712  1.00  0.00     0.000 HD 
HETATM   17  C2* UNL     1     -10.778   6.135  72.841  1.00  0.00    -0.247 C  
HETATM   18  O3* UNL     1     -10.420   4.399  74.561  1.00  0.00    -0.245 OA 
HETATM   19  O2* UNL     1     -10.516   6.910  74.035  1.00  0.00    -0.374 OA 
HETATM   20  H3* UNL     1     -11.215   4.644  75.020  1.00  0.00     0.000 HD 
BRANCH  14  21
HETATM   21  C5* UNL     1      -9.619   3.341  71.231  1.00  0.00    -0.159 C  
HETATM   22  O5* UNL     1      -9.580   1.973  71.625  1.00  0.00    -0.113 OA 
HETATM   23  H5* UNL     1      -9.774   1.407  70.887  1.00  0.00     0.000 HD 
ENDBRANCH  14  21
ENDBRANCH   8  12
TORSDOF 2
ENDMDL
MODEL      128
REMARK 921   NORMALIZED FREE ENERGY PREDICTED BY IDOCK:   -3.58 KCAL/MOL
REMARK 922        TOTAL FREE ENERGY PREDICTED BY IDOCK:   -3.98 KCAL/MOL
REMARK 923 INTER-LIGAND FREE ENERGY PREDICTED BY IDOCK:   -4.02 KCAL/MOL
REMARK 924 INTRA-LIGAND FREE ENERGY PREDICTED BY IDOCK:    0.04 KCAL/MOL
REMARK 927      BINDING AFFINITY PREDICTED BY RF-SCORE:    0.00 PKD
ROOT
HETATM    1  N   UNL     1     -12.052  10.319  69.792  1.00  0.00    -0.490 NA 
HETATM    2  H2  UNL     1     -12.812  10.223  69.119  1.00  0.00     0.000 HD 
HETATM    3  C   UNL     1     -11.825   9.342  70.702  1.00  0.00    -0.207 C  
HETATM    4  H1  UNL     1     -11.461  11.150  69.781  1.00  0.00     0.000 HD 
HETATM    5  N   UNL     1     -12.571   8.291  70.716  1.00  0.00    -0.481 N  
HETATM    6  C   UNL     1     -12.292   7.325  71.646  1.00  0.00    -0.352 C  
HETATM    7  H   UNL     1     -13.342   8.183  70.057  1.00  0.00     0.000 HD 
HETATM    8  N   UNL     1     -11.014   7.277  72.129  1.00  0.00    -0.231 N  
HETATM    9  O   UNL     1     -13.159   6.551  72.029  1.00  0.00    -0.213 OA 
HETATM   10  N   UNL     1     -10.812   9.538  71.579  1.00  0.00    -0.330 NA 
HETATM   11  C   UNL     1     -10.435   8.501  72.237  1.00  0.00    -0.332 C  
ENDROOT
BRANCH   8  12
HETATM   12  C1* UNL     1     -10.558   6.221  73.005  1.00  0.00    -0.239 C  
HETATM   13  O4* UNL     1      -9.121   6.149  72.857  1.00  0.00    -0.132 OA 
HETATM   14  C4* UNL     1      -8.825   5.158  71.842  1.00  0.00    -0.134 C  
HETATM   15  C3* UNL     1      -9.945   4.126  71.900  1.00  0.00    -0.183 C  
HETATM   16  H2* UNL     1     -11.333   3.146  73.925  1.00  0.00     0.000 HD 
HETATM   17  C2* UNL     1     -11.015   4.758  72.795  1.00  0.00    -0.194 C  
HETATM   18  O3* UNL     1      -9.436   2.896  72.424  1.00  0.00    -0.098 OA 
HETATM   19  O2* UNL     1     -11.052   4.044  74.054  1.00  0.00    -0.198 OA 
HETATM   20  H3* UNL     1     -10.134   2.253  72.460  1.00  0.00     0.000 HD 
BRANCH  14  21
HETATM   21  C5* UNL     1      -8.748   5.809  70.451  1.00  0.00    -0.134 C  
HETATM   22  O5* UNL     1      -7.403   5.833  69.983  1.00  0.00    -0.070 OA 
HETATM   23  H5* UNL     1      -7.356   6.236  69.124  1.00  0.00     0.000 HD 
ENDBRANCH  14  21
ENDBRANCH   8  12
TORSDOF 2
ENDMDL
MODEL      129
REMARK 921   NORMALIZED FREE ENERGY PREDICTED BY IDOCK:   -3.53 KCAL/MOL
REMARK 922        TOTAL FREE ENERGY PREDICTED BY IDOCK:   -3.92 KCAL/MOL
REMARK 923 INTER-LIGAND FREE ENERGY PREDICTED BY IDOCK:   -4.48 KCAL/MOL
REMARK 924 INTRA-LIGAND FREE ENERGY PREDICTED BY IDOCK:    0.56 KCAL/MOL
REMARK 927      BINDING AFFINITY PREDICTED BY RF-SCORE:    0.00 PKD
ROOT
HETATM    1  N   UNL     1     -14.085   6.793  71.992  1.00  0.00    -0.497 NA 
HETATM    2  H2  UNL     1     -14.766   7.286  72.572  1.00  0.00     0.000 HD 
HETATM    3  C   UNL     1     -12.980   7.437  71.549  1.00  0.00    -0.375 C  
HETATM    4  H1  UNL     1     -14.238   5.816  71.745  1.00  0.00     0.000 HD 
HETATM    5  N   UNL     1     -12.787   8.672  71.862  1.00  0.00    -0.348 N  
HETATM    6  C   UNL     1     -11.646   9.274  71.401  1.00  0.00    -0.367 C  
HETATM    7  H   UNL     1     -13.461   9.183  72.432  1.00  0.00     0.000 HD 
HETATM    8  N   UNL     1     -10.590   8.459  71.103  1.00  0.00    -0.208 N  
HETATM    9  O   UNL     1     -11.589  10.488  71.257  1.00  0.00    -0.263 OA 
HETATM   10  N   UNL     1     -12.126   6.733  70.769  1.00  0.00    -0.386 NA 
HETATM   11  C   UNL     1     -10.966   7.256  70.595  1.00  0.00    -0.256 C  
ENDROOT
BRANCH   8  12
HETATM   12  C1* UNL     1      -9.290   8.979  70.744  1.00  0.00    -0.249 C  
HETATM   13  O4* UNL     1      -9.520  10.108  69.868  1.00  0.00    -0.204 OA 
HETATM   14  C4* UNL     1      -9.481   9.629  68.501  1.00  0.00    -0.141 C  
HETATM   15  C3* UNL     1      -8.527   8.442  68.482  1.00  0.00    -0.132 C  
HETATM   16  H2* UNL     1      -6.292   7.956  69.808  1.00  0.00     0.000 HD 
HETATM   17  C2* UNL     1      -8.274   8.116  69.957  1.00  0.00    -0.120 C  
HETATM   18  O3* UNL     1      -7.334   8.798  67.778  1.00  0.00    -0.086 OA 
HETATM   19  O2* UNL     1      -6.915   8.486  70.291  1.00  0.00    -0.038 OA 
HETATM   20  H3* UNL     1      -6.739   8.057  67.766  1.00  0.00     0.000 HD 
BRANCH  14  21
HETATM   21  C5* UNL     1     -10.885   9.216  68.029  1.00  0.00    -0.075 C  
HETATM   22  O5* UNL     1     -11.823  10.259  68.273  1.00  0.00    -0.734 OA 
HETATM   23  H5* UNL     1     -12.690  10.004  67.982  1.00  0.00     0.000 HD 
ENDBRANCH  14  21
ENDBRANCH   8  12
TORSDOF 2
ENDMDL
MODEL      130
REMARK 921   NORMALIZED FREE ENERGY PREDICTED BY IDOCK:   -3.51 KCAL/MOL
REMARK 922        TOTAL FREE ENERGY PREDICTED BY IDOCK:   -3.90 KCAL/MOL
REMARK 923 INTER-LIGAND FREE ENERGY PREDICTED BY IDOCK:   -4.02 KCAL/MOL
REMARK 924 INTRA-LIGAND FREE ENERGY PREDICTED BY IDOCK:    0.12 KCAL/MOL
REMARK 927      BINDING AFFINITY PREDICTED BY RF-SCORE:    0.00 PKD
ROOT
HETATM    1  N   UNL     1     -12.031   9.527  70.054  1.00  0.00    -0.455 NA 
HETATM    2  H2  UNL     1     -12.930   9.363  70.510  1.00  0.00     0.000 HD 
HETATM    3  C   UNL     1     -11.158   8.506  69.890  1.00  0.00    -0.112 C  
HETATM    4  H1  UNL     1     -11.790  10.460  69.721  1.00  0.00     0.000 HD 
HETATM    5  N   UNL     1     -11.463   7.326  70.311  1.00  0.00    -0.434 N  
HETATM    6  C   UNL     1     -10.552   6.323  70.108  1.00  0.00    -0.248 C  
HETATM    7  H   UNL     1     -12.352   7.146  70.778  1.00  0.00     0.000 HD 
HETATM    8  N   UNL     1      -9.663   6.488  69.083  1.00  0.00    -0.136 N  
HETATM    9  O   UNL     1     -10.535   5.333  70.827  1.00  0.00    -0.253 OA 
HETATM   10  N   UNL     1      -9.976   8.793  69.295  1.00  0.00    -0.188 NA 
HETATM   11  C   UNL     1      -9.291   7.781  68.897  1.00  0.00    -0.146 C  
ENDROOT
BRANCH   8  12
HETATM   12  C1* UNL     1      -8.747   5.445  68.679  1.00  0.00    -0.097 C  
HETATM   13  O4* UNL     1      -8.590   5.561  67.245  1.00  0.00    -0.110 OA 
HETATM   14  C4* UNL     1      -9.553   4.679  66.617  1.00  0.00    -0.182 C  
HETATM   15  C3* UNL     1      -9.768   3.515  67.575  1.00  0.00    -0.014 C  
HETATM   16  H2* UNL     1      -8.118   2.246  69.205  1.00  0.00     0.000 HD 
HETATM   17  C2* UNL     1      -9.099   3.952  68.882  1.00  0.00    -0.138 C  
HETATM   18  O3* UNL     1      -9.191   2.327  67.024  1.00  0.00    -0.261 OA 
HETATM   19  O2* UNL     1      -7.902   3.163  69.080  1.00  0.00    -0.050 OA 
HETATM   20  H3* UNL     1      -9.326   1.601  67.622  1.00  0.00     0.000 HD 
BRANCH  14  21
HETATM   21  C5* UNL     1     -10.872   5.420  66.344  1.00  0.00    -0.131 C  
HETATM   22  O5* UNL     1     -11.563   4.826  65.250  1.00  0.00    -1.065 OA 
HETATM   23  H5* UNL     1     -12.378   5.284  65.081  1.00  0.00     0.000 HD 
ENDBRANCH  14  21
ENDBRANCH   8  12
TORSDOF 2
ENDMDL
MODEL      131
REMARK 921   NORMALIZED FREE ENERGY PREDICTED BY IDOCK:   -3.51 KCAL/MOL
REMARK 922        TOTAL FREE ENERGY PREDICTED BY IDOCK:   -3.90 KCAL/MOL
REMARK 923 INTER-LIGAND FREE ENERGY PREDICTED BY IDOCK:   -3.87 KCAL/MOL
REMARK 924 INTRA-LIGAND FREE ENERGY PREDICTED BY IDOCK:   -0.03 KCAL/MOL
REMARK 927      BINDING AFFINITY PREDICTED BY RF-SCORE:    0.00 PKD
ROOT
HETATM    1  N   UNL     1      -7.106   8.144  62.892  1.00  0.00    -0.086 NA 
HETATM    2  H2  UNL     1      -7.586   7.704  62.107  1.00  0.00     0.000 HD 
HETATM    3  C   UNL     1      -7.743   9.075  63.641  1.00  0.00    -0.122 C  
HETATM    4  H1  UNL     1      -6.146   7.883  63.115  1.00  0.00     0.000 HD 
HETATM    5  N   UNL     1      -8.956   9.405  63.360  1.00  0.00    -0.405 N  
HETATM    6  C   UNL     1      -9.562  10.341  64.156  1.00  0.00    -0.315 C  
HETATM    7  H   UNL     1      -9.449   8.983  62.572  1.00  0.00     0.000 HD 
HETATM    8  N   UNL     1      -9.079  10.483  65.427  1.00  0.00    -0.177 N  
HETATM    9  O   UNL     1     -10.487  11.023  63.734  1.00  0.00    -0.363 OA 
HETATM   10  N   UNL     1      -7.044   9.634  64.657  1.00  0.00    -0.113 NA 
HETATM   11  C   UNL     1      -7.737  10.292  65.516  1.00  0.00    -0.149 C  
ENDROOT
BRANCH   8  12
HETATM   12  C1* UNL     1      -9.719  11.332  66.406  1.00  0.00    -0.209 C  
HETATM   13  O4* UNL     1      -9.125  11.013  67.686  1.00  0.00    -0.143 OA 
HETATM   14  C4* UNL     1      -9.948  10.004  68.322  1.00  0.00    -0.153 C  
HETATM   15  C3* UNL     1     -11.373  10.234  67.835  1.00  0.00    -0.105 C  
HETATM   16  H2* UNL     1     -12.707  12.444  67.268  1.00  0.00     0.000 HD 
HETATM   17  C2* UNL     1     -11.239  11.230  66.680  1.00  0.00    -0.177 C  
HETATM   18  O3* UNL     1     -12.172  10.733  68.911  1.00  0.00    -0.748 OA 
HETATM   19  O2* UNL     1     -11.774  12.507  67.100  1.00  0.00    -0.344 OA 
HETATM   20  H3* UNL     1     -13.061  10.876  68.607  1.00  0.00     0.000 HD 
BRANCH  14  21
HETATM   21  C5* UNL     1      -9.460   8.593  67.955  1.00  0.00    -0.139 C  
HETATM   22  O5* UNL     1      -8.126   8.390  68.409  1.00  0.00    -0.119 OA 
HETATM   23  H5* UNL     1      -7.825   7.518  68.182  1.00  0.00     0.000 HD 
ENDBRANCH  14  21
ENDBRANCH   8  12
TORSDOF 2
ENDMDL
MODEL      132
REMARK 921   NORMALIZED FREE ENERGY PREDICTED BY IDOCK:   -3.49 KCAL/MOL
REMARK 922        TOTAL FREE ENERGY PREDICTED BY IDOCK:   -3.88 KCAL/MOL
REMARK 923 INTER-LIGAND FREE ENERGY PREDICTED BY IDOCK:   -4.57 KCAL/MOL
REMARK 924 INTRA-LIGAND FREE ENERGY PREDICTED BY IDOCK:    0.69 KCAL/MOL
REMARK 927      BINDING AFFINITY PREDICTED BY RF-SCORE:    0.00 PKD
ROOT
HETATM    1  N   UNL     1      -7.949  12.880  67.165  1.00  0.00    -0.341 NA 
HETATM    2  H2  UNL     1      -7.397  12.240  67.738  1.00  0.00     0.000 HD 
HETATM    3  C   UNL     1      -7.847  14.217  67.351  1.00  0.00    -0.177 C  
HETATM    4  H1  UNL     1      -8.578  12.513  66.451  1.00  0.00     0.000 HD 
HETATM    5  N   UNL     1      -7.051  14.680  68.253  1.00  0.00    -0.105 N  
HETATM    6  C   UNL     1      -6.972  16.041  68.393  1.00  0.00    -0.121 C  
HETATM    7  H   UNL     1      -6.499  14.056  68.841  1.00  0.00     0.000 HD 
HETATM    8  N   UNL     1      -7.308  16.798  67.306  1.00  0.00    -0.161 N  
HETATM    9  O   UNL     1      -6.625  16.546  69.452  1.00  0.00    -0.197 OA 
HETATM   10  N   UNL     1      -8.619  15.010  66.572  1.00  0.00    -0.217 NA 
HETATM   11  C   UNL     1      -8.308  16.257  66.562  1.00  0.00    -0.308 C  
ENDROOT
BRANCH   8  12
HETATM   12  C1* UNL     1      -7.133  18.233  67.280  1.00  0.00    -0.199 C  
HETATM   13  O4* UNL     1      -7.606  18.734  68.553  1.00  0.00    -0.305 OA 
HETATM   14  C4* UNL     1      -8.999  19.104  68.398  1.00  0.00    -0.349 C  
HETATM   15  C3* UNL     1      -9.176  19.539  66.949  1.00  0.00    -0.338 C  
HETATM   16  H2* UNL     1      -7.575  20.830  65.288  1.00  0.00     0.000 HD 
HETATM   17  C2* UNL     1      -7.883  19.110  66.248  1.00  0.00    -0.293 C  
HETATM   18  O3* UNL     1      -9.396  20.951  66.895  1.00  0.00    -0.652 OA 
HETATM   19  O2* UNL     1      -7.115  20.292  65.922  1.00  0.00    -0.274 OA 
HETATM   20  H3* UNL     1      -9.507  21.222  65.992  1.00  0.00     0.000 HD 
BRANCH  14  21
HETATM   21  C5* UNL     1      -9.918  17.918  68.735  1.00  0.00    -0.376 C  
HETATM   22  O5* UNL     1     -11.156  18.031  68.041  1.00  0.00    -0.161 OA 
HETATM   23  H5* UNL     1     -11.724  17.298  68.249  1.00  0.00     0.000 HD 
ENDBRANCH  14  21
ENDBRANCH   8  12
TORSDOF 2
ENDMDL
MODEL      133
REMARK 921   NORMALIZED FREE ENERGY PREDICTED BY IDOCK:   -3.48 KCAL/MOL
REMARK 922        TOTAL FREE ENERGY PREDICTED BY IDOCK:   -3.86 KCAL/MOL
REMARK 923 INTER-LIGAND FREE ENERGY PREDICTED BY IDOCK:   -4.55 KCAL/MOL
REMARK 924 INTRA-LIGAND FREE ENERGY PREDICTED BY IDOCK:    0.69 KCAL/MOL
REMARK 927      BINDING AFFINITY PREDICTED BY RF-SCORE:    0.00 PKD
ROOT
HETATM    1  N   UNL     1     -11.069   5.140  74.153  1.00  0.00    -0.395 NA 
HETATM    2  H2  UNL     1     -10.480   5.003  74.976  1.00  0.00     0.000 HD 
HETATM    3  C   UNL     1     -10.761   6.101  73.252  1.00  0.00    -0.260 C  
HETATM    4  H1  UNL     1     -11.889   4.552  74.009  1.00  0.00     0.000 HD 
HETATM    5  N   UNL     1      -9.724   6.844  73.434  1.00  0.00    -0.180 N  
HETATM    6  C   UNL     1      -9.447   7.793  72.486  1.00  0.00    -0.181 C  
HETATM    7  H   UNL     1      -9.130   6.728  74.255  1.00  0.00     0.000 HD 
HETATM    8  N   UNL     1      -9.935   7.577  71.228  1.00  0.00    -0.186 N  
HETATM    9  O   UNL     1      -8.799   8.793  72.766  1.00  0.00    -0.382 OA 
HETATM   10  N   UNL     1     -11.592   6.244  72.192  1.00  0.00    -0.308 NA 
HETATM   11  C   UNL     1     -11.141   6.952  71.220  1.00  0.00    -0.258 C  
ENDROOT
BRANCH   8  12
HETATM   12  C1* UNL     1      -9.595   8.429  70.110  1.00  0.00    -0.165 C  
HETATM   13  O4* UNL     1      -9.729   9.794  70.571  1.00  0.00    -0.249 OA 
HETATM   14  C4* UNL     1     -11.068  10.246  70.247  1.00  0.00    -0.319 C  
HETATM   15  C3* UNL     1     -11.487   9.499  68.987  1.00  0.00     0.286 C  
HETATM   16  H2* UNL     1     -10.120   8.722  66.862  1.00  0.00     0.000 HD 
HETATM   17  C2* UNL     1     -10.430   8.406  68.807  1.00  0.00    -0.178 C  
HETATM   18  O3* UNL     1     -11.540  10.410  67.886  1.00  0.00    -0.669 OA 
HETATM   19  O2* UNL     1      -9.608   8.736  67.662  1.00  0.00    -0.139 OA 
HETATM   20  H3* UNL     1     -11.802   9.945  67.100  1.00  0.00     0.000 HD 
BRANCH  14  21
HETATM   21  C5* UNL     1     -12.035   9.957  71.407  1.00  0.00    -0.404 C  
HETATM   22  O5* UNL     1     -13.353   9.734  70.918  1.00  0.00    -0.562 OA 
HETATM   23  H5* UNL     1     -13.950   9.556  71.635  1.00  0.00     0.000 HD 
ENDBRANCH  14  21
ENDBRANCH   8  12
TORSDOF 2
ENDMDL
MODEL      134
REMARK 921   NORMALIZED FREE ENERGY PREDICTED BY IDOCK:   -3.47 KCAL/MOL
REMARK 922        TOTAL FREE ENERGY PREDICTED BY IDOCK:   -3.85 KCAL/MOL
REMARK 923 INTER-LIGAND FREE ENERGY PREDICTED BY IDOCK:   -3.80 KCAL/MOL
REMARK 924 INTRA-LIGAND FREE ENERGY PREDICTED BY IDOCK:   -0.05 KCAL/MOL
REMARK 927      BINDING AFFINITY PREDICTED BY RF-SCORE:    0.00 PKD
ROOT
HETATM    1  N   UNL     1     -11.384   6.624  67.630  1.00  0.00    -0.697 NA 
HETATM    2  H2  UNL     1     -10.920   6.218  66.817  1.00  0.00     0.000 HD 
HETATM    3  C   UNL     1     -11.129   6.140  68.868  1.00  0.00    -0.345 C  
HETATM    4  H1  UNL     1     -12.041   7.395  67.511  1.00  0.00     0.000 HD 
HETATM    5  N   UNL     1     -10.299   5.166  69.019  1.00  0.00    -0.177 N  
HETATM    6  C   UNL     1     -10.064   4.722  70.293  1.00  0.00    -0.234 C  
HETATM    7  H   UNL     1      -9.833   4.741  68.216  1.00  0.00     0.000 HD 
HETATM    8  N   UNL     1     -10.292   5.604  71.311  1.00  0.00    -0.220 N  
HETATM    9  O   UNL     1      -9.676   3.579  70.500  1.00  0.00    -0.185 OA 
HETATM   10  N   UNL     1     -11.791   6.710  69.903  1.00  0.00    -0.284 NA 
HETATM   11  C   UNL     1     -11.337   6.440  71.074  1.00  0.00    -0.328 C  
ENDROOT
BRANCH   8  12
HETATM   12  C1* UNL     1      -9.950   5.305  72.684  1.00  0.00    -0.163 C  
HETATM   13  O4* UNL     1      -9.856   6.573  73.375  1.00  0.00    -0.162 OA 
HETATM   14  C4* UNL     1      -8.473   7.002  73.336  1.00  0.00    -0.128 C  
HETATM   15  C3* UNL     1      -7.624   5.737  73.309  1.00  0.00    -0.095 C  
HETATM   16  H2* UNL     1      -7.940   3.378  74.460  1.00  0.00     0.000 HD 
HETATM   17  C2* UNL     1      -8.618   4.603  73.039  1.00  0.00    -0.113 C  
HETATM   18  O3* UNL     1      -6.939   5.592  74.556  1.00  0.00    -0.083 OA 
HETATM   19  O2* UNL     1      -8.759   3.809  74.242  1.00  0.00    -0.088 OA 
HETATM   20  H3* UNL     1      -6.410   4.803  74.538  1.00  0.00     0.000 HD 
BRANCH  14  21
HETATM   21  C5* UNL     1      -8.207   7.871  72.097  1.00  0.00    -0.125 C  
HETATM   22  O5* UNL     1      -9.011   9.046  72.127  1.00  0.00    -0.378 OA 
HETATM   23  H5* UNL     1      -8.847   9.583  71.360  1.00  0.00     0.000 HD 
ENDBRANCH  14  21
ENDBRANCH   8  12
TORSDOF 2
ENDMDL
MODEL      135
REMARK 921   NORMALIZED FREE ENERGY PREDICTED BY IDOCK:   -3.39 KCAL/MOL
REMARK 922        TOTAL FREE ENERGY PREDICTED BY IDOCK:   -3.77 KCAL/MOL
REMARK 923 INTER-LIGAND FREE ENERGY PREDICTED BY IDOCK:   -3.73 KCAL/MOL
REMARK 924 INTRA-LIGAND FREE ENERGY PREDICTED BY IDOCK:   -0.04 KCAL/MOL
REMARK 927      BINDING AFFINITY PREDICTED BY RF-SCORE:    0.00 PKD
ROOT
HETATM    1  N   UNL     1     -11.837   6.597  69.653  1.00  0.00    -0.646 NA 
HETATM    2  H2  UNL     1     -12.499   5.911  69.288  1.00  0.00     0.000 HD 
HETATM    3  C   UNL     1     -10.875   7.106  68.848  1.00  0.00    -0.129 C  
HETATM    4  H1  UNL     1     -11.901   6.901  70.624  1.00  0.00     0.000 HD 
HETATM    5  N   UNL     1     -10.795   6.722  67.621  1.00  0.00    -0.383 N  
HETATM    6  C   UNL     1      -9.813   7.277  66.843  1.00  0.00    -0.214 C  
HETATM    7  H   UNL     1     -11.441   6.030  67.241  1.00  0.00     0.000 HD 
HETATM    8  N   UNL     1      -9.338   8.501  67.222  1.00  0.00    -0.145 N  
HETATM    9  O   UNL     1      -9.379   6.688  65.862  1.00  0.00    -0.065 OA 
HETATM   10  N   UNL     1     -10.018   7.998  69.398  1.00  0.00    -0.186 NA 
HETATM   11  C   UNL     1      -9.304   8.672  68.569  1.00  0.00    -0.138 C  
ENDROOT
BRANCH   8  12
HETATM   12  C1* UNL     1      -8.406   9.253  66.411  1.00  0.00    -0.118 C  
HETATM   13  O4* UNL     1      -8.559  10.644  66.781  1.00  0.00    -0.125 OA 
HETATM   14  C4* UNL     1      -9.518  11.244  65.875  1.00  0.00    -0.222 C  
HETATM   15  C3* UNL     1      -9.393  10.500  64.552  1.00  0.00    -0.253 C  
HETATM   16  H2* UNL     1      -7.307   9.462  63.304  1.00  0.00     0.000 HD 
HETATM   17  C2* UNL     1      -8.529   9.276  64.868  1.00  0.00    -0.168 C  
HETATM   18  O3* UNL     1      -8.804  11.360  63.572  1.00  0.00    -0.431 OA 
HETATM   19  O2* UNL     1      -7.231   9.448  64.251  1.00  0.00    -0.099 OA 
HETATM   20  H3* UNL     1      -8.726  10.895  62.747  1.00  0.00     0.000 HD 
BRANCH  14  21
HETATM   21  C5* UNL     1     -10.944  11.131  66.439  1.00  0.00    -0.186 C  
HETATM   22  O5* UNL     1     -11.043  11.806  67.689  1.00  0.00    -0.221 OA 
HETATM   23  H5* UNL     1     -11.925  11.736  68.037  1.00  0.00     0.000 HD 
ENDBRANCH  14  21
ENDBRANCH   8  12
TORSDOF 2
ENDMDL
MODEL      136
REMARK 921   NORMALIZED FREE ENERGY PREDICTED BY IDOCK:   -3.39 KCAL/MOL
REMARK 922        TOTAL FREE ENERGY PREDICTED BY IDOCK:   -3.76 KCAL/MOL
REMARK 923 INTER-LIGAND FREE ENERGY PREDICTED BY IDOCK:   -4.57 KCAL/MOL
REMARK 924 INTRA-LIGAND FREE ENERGY PREDICTED BY IDOCK:    0.80 KCAL/MOL
REMARK 927      BINDING AFFINITY PREDICTED BY RF-SCORE:    0.00 PKD
ROOT
HETATM    1  N   UNL     1      -6.590  11.296  65.818  1.00  0.00    -0.356 NA 
HETATM    2  H2  UNL     1      -6.480  11.083  64.825  1.00  0.00     0.000 HD 
HETATM    3  C   UNL     1      -7.826  11.476  66.340  1.00  0.00    -0.020 C  
HETATM    4  H1  UNL     1      -5.769  11.373  66.417  1.00  0.00     0.000 HD 
HETATM    5  N   UNL     1      -8.864  11.378  65.582  1.00  0.00    -0.369 N  
HETATM    6  C   UNL     1     -10.093  11.555  66.161  1.00  0.00    -0.229 C  
HETATM    7  H   UNL     1      -8.773  11.176  64.586  1.00  0.00     0.000 HD 
HETATM    8  N   UNL     1     -10.187  11.319  67.504  1.00  0.00    -0.186 N  
HETATM    9  O   UNL     1     -11.055  11.918  65.497  1.00  0.00    -0.302 OA 
HETATM   10  N   UNL     1      -7.902  11.774  67.658  1.00  0.00    -0.130 NA 
HETATM   11  C   UNL     1      -9.066  11.663  68.190  1.00  0.00    -0.183 C  
ENDROOT
BRANCH   8  12
HETATM   12  C1* UNL     1     -11.452  11.334  68.204  1.00  0.00    -0.306 C  
HETATM   13  O4* UNL     1     -12.209  12.448  67.674  1.00  0.00    -0.425 OA 
HETATM   14  C4* UNL     1     -11.960  13.599  68.517  1.00  0.00    -0.361 C  
HETATM   15  C3* UNL     1     -11.689  13.064  69.918  1.00  0.00    -0.256 C  
HETATM   16  H2* UNL     1     -12.699  11.014  71.245  1.00  0.00     0.000 HD 
HETATM   17  C2* UNL     1     -11.515  11.554  69.735  1.00  0.00    -0.286 C  
HETATM   18  O3* UNL     1     -12.782  13.398  70.778  1.00  0.00    -0.298 OA 
HETATM   19  O2* UNL     1     -12.661  10.878  70.306  1.00  0.00    -0.312 OA 
HETATM   20  H3* UNL     1     -12.613  13.065  71.651  1.00  0.00     0.000 HD 
BRANCH  14  21
HETATM   21  C5* UNL     1     -10.761  14.407  67.994  1.00  0.00    -0.241 C  
HETATM   22  O5* UNL     1     -11.195  15.640  67.431  1.00  0.00    -0.306 OA 
HETATM   23  H5* UNL     1     -10.454  16.140  67.107  1.00  0.00     0.000 HD 
ENDBRANCH  14  21
ENDBRANCH   8  12
TORSDOF 2
ENDMDL
MODEL      137
REMARK 921   NORMALIZED FREE ENERGY PREDICTED BY IDOCK:   -3.38 KCAL/MOL
REMARK 922        TOTAL FREE ENERGY PREDICTED BY IDOCK:   -3.76 KCAL/MOL
REMARK 923 INTER-LIGAND FREE ENERGY PREDICTED BY IDOCK:   -3.88 KCAL/MOL
REMARK 924 INTRA-LIGAND FREE ENERGY PREDICTED BY IDOCK:    0.12 KCAL/MOL
REMARK 927      BINDING AFFINITY PREDICTED BY RF-SCORE:    0.00 PKD
ROOT
HETATM    1  N   UNL     1     -12.152  13.636  70.486  1.00  0.00    -0.418 NA 
HETATM    2  H2  UNL     1     -11.901  14.539  70.081  1.00  0.00     0.000 HD 
HETATM    3  C   UNL     1     -11.883  12.493  69.812  1.00  0.00    -0.310 C  
HETATM    4  H1  UNL     1     -12.605  13.594  71.398  1.00  0.00     0.000 HD 
HETATM    5  N   UNL     1     -11.310  12.546  68.659  1.00  0.00    -0.264 N  
HETATM    6  C   UNL     1     -11.046  11.361  68.024  1.00  0.00    -0.257 C  
HETATM    7  H   UNL     1     -11.062  13.440  68.234  1.00  0.00     0.000 HD 
HETATM    8  N   UNL     1     -10.928  10.249  68.809  1.00  0.00    -0.236 N  
HETATM    9  O   UNL     1     -10.935  11.311  66.806  1.00  0.00    -0.282 OA 
HETATM   10  N   UNL     1     -12.257  11.330  70.396  1.00  0.00    -0.351 NA 
HETATM   11  C   UNL     1     -11.751  10.263  69.889  1.00  0.00    -0.225 C  
ENDROOT
BRANCH   8  12
HETATM   12  C1* UNL     1     -10.514   8.969  68.278  1.00  0.00    -0.200 C  
HETATM   13  O4* UNL     1     -10.428   8.060  69.401  1.00  0.00    -0.219 OA 
HETATM   14  C4* UNL     1      -9.061   8.074  69.883  1.00  0.00    -0.145 C  
HETATM   15  C3* UNL     1      -8.176   8.368  68.679  1.00  0.00    -0.123 C  
HETATM   16  H2* UNL     1      -8.364   7.660  66.139  1.00  0.00     0.000 HD 
HETATM   17  C2* UNL     1      -9.145   8.802  67.575  1.00  0.00    -0.133 C  
HETATM   18  O3* UNL     1      -7.430   7.197  68.336  1.00  0.00    -0.100 OA 
HETATM   19  O2* UNL     1      -9.205   7.762  66.570  1.00  0.00    -0.166 OA 
HETATM   20  H3* UNL     1      -6.877   7.381  67.585  1.00  0.00     0.000 HD 
BRANCH  14  21
HETATM   21  C5* UNL     1      -8.881   9.142  70.975  1.00  0.00    -0.202 C  
HETATM   22  O5* UNL     1      -8.036   8.659  72.014  1.00  0.00    -0.247 OA 
HETATM   23  H5* UNL     1      -7.925   9.319  72.689  1.00  0.00     0.000 HD 
ENDBRANCH  14  21
ENDBRANCH   8  12
TORSDOF 2
ENDMDL
MODEL      138
REMARK 921   NORMALIZED FREE ENERGY PREDICTED BY IDOCK:   -3.36 KCAL/MOL
REMARK 922        TOTAL FREE ENERGY PREDICTED BY IDOCK:   -3.73 KCAL/MOL
REMARK 923 INTER-LIGAND FREE ENERGY PREDICTED BY IDOCK:   -3.76 KCAL/MOL
REMARK 924 INTRA-LIGAND FREE ENERGY PREDICTED BY IDOCK:    0.03 KCAL/MOL
REMARK 927      BINDING AFFINITY PREDICTED BY RF-SCORE:    0.00 PKD
ROOT
HETATM    1  N   UNL     1      -8.805   3.879  73.101  1.00  0.00    -0.097 NA 
HETATM    2  H2  UNL     1      -8.371   4.009  74.016  1.00  0.00     0.000 HD 
HETATM    3  C   UNL     1      -9.593   4.848  72.580  1.00  0.00    -0.138 C  
HETATM    4  H1  UNL     1      -8.645   3.018  72.579  1.00  0.00     0.000 HD 
HETATM    5  N   UNL     1      -9.794   5.936  73.240  1.00  0.00    -0.166 N  
HETATM    6  C   UNL     1     -10.588   6.892  72.664  1.00  0.00    -0.233 C  
HETATM    7  H   UNL     1      -9.377   6.080  74.160  1.00  0.00     0.000 HD 
HETATM    8  N   UNL     1     -10.689   6.877  71.301  1.00  0.00    -0.221 N  
HETATM    9  O   UNL     1     -11.184   7.713  73.349  1.00  0.00    -0.314 OA 
HETATM   10  N   UNL     1     -10.153   4.605  71.372  1.00  0.00    -0.193 NA 
HETATM   11  C   UNL     1     -10.656   5.625  70.774  1.00  0.00    -0.265 C  
ENDROOT
BRANCH   8  12
HETATM   12  C1* UNL     1     -11.379   7.913  70.566  1.00  0.00    -0.234 C  
HETATM   13  O4* UNL     1     -10.841   7.900  69.222  1.00  0.00    -0.179 OA 
HETATM   14  C4* UNL     1      -9.758   8.862  69.166  1.00  0.00    -0.168 C  
HETATM   15  C3* UNL     1     -10.094   9.958  70.169  1.00  0.00    -0.255 C  
HETATM   16  H2* UNL     1     -12.396  11.039  70.891  1.00  0.00     0.000 HD 
HETATM   17  C2* UNL     1     -11.265   9.399  70.984  1.00  0.00    -0.342 C  
HETATM   18  O3* UNL     1     -10.426  11.161  69.471  1.00  0.00    -0.410 OA 
HETATM   19  O2* UNL     1     -12.466  10.127  70.635  1.00  0.00    -0.303 OA 
HETATM   20  H3* UNL     1     -10.636  11.844  70.097  1.00  0.00     0.000 HD 
BRANCH  14  21
HETATM   21  C5* UNL     1      -8.417   8.192  69.508  1.00  0.00    -0.127 C  
HETATM   22  O5* UNL     1      -7.693   7.885  68.322  1.00  0.00    -0.115 OA 
HETATM   23  H5* UNL     1      -6.864   7.471  68.535  1.00  0.00     0.000 HD 
ENDBRANCH  14  21
ENDBRANCH   8  12
TORSDOF 2
ENDMDL
MODEL      139
REMARK 921   NORMALIZED FREE ENERGY PREDICTED BY IDOCK:   -3.36 KCAL/MOL
REMARK 922        TOTAL FREE ENERGY PREDICTED BY IDOCK:   -3.72 KCAL/MOL
REMARK 923 INTER-LIGAND FREE ENERGY PREDICTED BY IDOCK:   -4.27 KCAL/MOL
REMARK 924 INTRA-LIGAND FREE ENERGY PREDICTED BY IDOCK:    0.55 KCAL/MOL
REMARK 927      BINDING AFFINITY PREDICTED BY RF-SCORE:    0.00 PKD
ROOT
HETATM    1  N   UNL     1      -8.027   3.498  70.173  1.00  0.00    -0.046 NA 
HETATM    2  H2  UNL     1      -7.502   3.362  69.309  1.00  0.00     0.000 HD 
HETATM    3  C   UNL     1      -8.919   4.510  70.272  1.00  0.00    -0.090 C  
HETATM    4  H1  UNL     1      -7.879   2.871  70.964  1.00  0.00     0.000 HD 
HETATM    5  N   UNL     1      -9.106   5.303  69.273  1.00  0.00    -0.106 N  
HETATM    6  C   UNL     1     -10.030   6.303  69.418  1.00  0.00    -0.159 C  
HETATM    7  H   UNL     1      -8.583   5.188  68.405  1.00  0.00     0.000 HD 
HETATM    8  N   UNL     1     -11.016   6.109  70.345  1.00  0.00    -0.312 N  
HETATM    9  O   UNL     1      -9.962   7.326  68.749  1.00  0.00    -0.158 OA 
HETATM   10  N   UNL     1      -9.570   4.647  71.452  1.00  0.00    -0.156 NA 
HETATM   11  C   UNL     1     -10.598   5.418  71.437  1.00  0.00    -0.212 C  
ENDROOT
BRANCH   8  12
HETATM   12  C1* UNL     1     -12.127   7.022  70.494  1.00  0.00    -0.229 C  
HETATM   13  O4* UNL     1     -11.583   8.360  70.394  1.00  0.00    -0.201 OA 
HETATM   14  C4* UNL     1     -11.285   8.823  71.734  1.00  0.00    -0.340 C  
HETATM   15  C3* UNL     1     -12.285   8.146  72.662  1.00  0.00    -0.212 C  
HETATM   16  H2* UNL     1     -14.825   7.491  72.340  1.00  0.00     0.000 HD 
HETATM   17  C2* UNL     1     -12.952   7.068  71.803  1.00  0.00    -0.310 C  
HETATM   18  O3* UNL     1     -13.211   9.116  73.159  1.00  0.00    -0.772 OA 
HETATM   19  O2* UNL     1     -14.319   7.463  71.537  1.00  0.00    -0.448 OA 
HETATM   20  H3* UNL     1     -13.834   8.693  73.738  1.00  0.00     0.000 HD 
BRANCH  14  21
HETATM   21  C5* UNL     1      -9.841   8.467  72.124  1.00  0.00    -0.318 C  
HETATM   22  O5* UNL     1      -8.930   8.893  71.115  1.00  0.00    -0.203 OA 
HETATM   23  H5* UNL     1      -8.038   8.673  71.356  1.00  0.00     0.000 HD 
ENDBRANCH  14  21
ENDBRANCH   8  12
TORSDOF 2
ENDMDL
MODEL      140
REMARK 921   NORMALIZED FREE ENERGY PREDICTED BY IDOCK:   -3.35 KCAL/MOL
REMARK 922        TOTAL FREE ENERGY PREDICTED BY IDOCK:   -3.72 KCAL/MOL
REMARK 923 INTER-LIGAND FREE ENERGY PREDICTED BY IDOCK:   -4.26 KCAL/MOL
REMARK 924 INTRA-LIGAND FREE ENERGY PREDICTED BY IDOCK:    0.54 KCAL/MOL
REMARK 927      BINDING AFFINITY PREDICTED BY RF-SCORE:    0.00 PKD
ROOT
HETATM    1  N   UNL     1      -7.703   5.554  74.535  1.00  0.00    -0.098 NA 
HETATM    2  H2  UNL     1      -7.328   4.614  74.407  1.00  0.00     0.000 HD 
HETATM    3  C   UNL     1      -8.695   6.004  73.731  1.00  0.00    -0.124 C  
HETATM    4  H1  UNL     1      -7.332   6.156  75.270  1.00  0.00     0.000 HD 
HETATM    5  N   UNL     1      -9.164   5.243  72.803  1.00  0.00    -0.133 N  
HETATM    6  C   UNL     1     -10.176   5.739  72.024  1.00  0.00    -0.201 C  
HETATM    7  H   UNL     1      -8.794   4.304  72.653  1.00  0.00     0.000 HD 
HETATM    8  N   UNL     1     -10.944   6.734  72.563  1.00  0.00    -0.237 N  
HETATM    9  O   UNL     1     -10.369   5.311  70.894  1.00  0.00    -0.227 OA 
HETATM   10  N   UNL     1      -9.136   7.267  73.942  1.00  0.00    -0.214 NA 
HETATM   11  C   UNL     1     -10.246   7.573  73.372  1.00  0.00    -0.343 C  
ENDROOT
BRANCH   8  12
HETATM   12  C1* UNL     1     -12.125   7.242  71.901  1.00  0.00    -0.314 C  
HETATM   13  O4* UNL     1     -11.800   7.353  70.496  1.00  0.00    -0.254 OA 
HETATM   14  C4* UNL     1     -11.330   8.702  70.251  1.00  0.00    -0.136 C  
HETATM   15  C3* UNL     1     -12.040   9.600  71.256  1.00  0.00    -0.371 C  
HETATM   16  H2* UNL     1     -14.480   9.528  72.268  1.00  0.00     0.000 HD 
HETATM   17  C2* UNL     1     -12.696   8.638  72.249  1.00  0.00    -0.391 C  
HETATM   18  O3* UNL     1     -12.986  10.428  70.574  1.00  0.00    -0.472 OA 
HETATM   19  O2* UNL     1     -14.130   8.671  72.054  1.00  0.00    -0.416 OA 
HETATM   20  H3* UNL     1     -13.429  10.988  71.200  1.00  0.00     0.000 HD 
BRANCH  14  21
HETATM   21  C5* UNL     1      -9.804   8.785  70.418  1.00  0.00    -0.182 C  
HETATM   22  O5* UNL     1      -9.157   7.808  69.609  1.00  0.00    -0.146 OA 
HETATM   23  H5* UNL     1      -8.214   7.859  69.713  1.00  0.00     0.000 HD 
ENDBRANCH  14  21
ENDBRANCH   8  12
TORSDOF 2
ENDMDL
MODEL      141
REMARK 921   NORMALIZED FREE ENERGY PREDICTED BY IDOCK:   -3.33 KCAL/MOL
REMARK 922        TOTAL FREE ENERGY PREDICTED BY IDOCK:   -3.69 KCAL/MOL
REMARK 923 INTER-LIGAND FREE ENERGY PREDICTED BY IDOCK:   -3.63 KCAL/MOL
REMARK 924 INTRA-LIGAND FREE ENERGY PREDICTED BY IDOCK:   -0.06 KCAL/MOL
REMARK 927      BINDING AFFINITY PREDICTED BY RF-SCORE:    0.00 PKD
ROOT
HETATM    1  N   UNL     1     -11.989   7.945  73.065  1.00  0.00    -0.646 NA 
HETATM    2  H2  UNL     1     -12.810   7.352  73.193  1.00  0.00     0.000 HD 
HETATM    3  C   UNL     1     -11.000   7.561  72.226  1.00  0.00    -0.262 C  
HETATM    4  H1  UNL     1     -11.914   8.828  73.570  1.00  0.00     0.000 HD 
HETATM    5  N   UNL     1     -11.095   6.445  71.588  1.00  0.00    -0.256 N  
HETATM    6  C   UNL     1     -10.074   6.108  70.739  1.00  0.00    -0.193 C  
HETATM    7  H   UNL     1     -11.904   5.835  71.711  1.00  0.00     0.000 HD 
HETATM    8  N   UNL     1      -9.315   7.130  70.242  1.00  0.00    -0.156 N  
HETATM    9  O   UNL     1      -9.853   4.938  70.454  1.00  0.00    -0.193 OA 
HETATM   10  N   UNL     1      -9.930   8.383  72.115  1.00  0.00    -0.276 NA 
HETATM   11  C   UNL     1      -9.147   8.151  71.122  1.00  0.00    -0.154 C  
ENDROOT
BRANCH   8  12
HETATM   12  C1* UNL     1      -8.302   6.920  69.233  1.00  0.00    -0.129 C  
HETATM   13  O4* UNL     1      -7.878   8.231  68.788  1.00  0.00    -0.111 OA 
HETATM   14  C4* UNL     1      -8.672   8.588  67.629  1.00  0.00    -0.136 C  
HETATM   15  C3* UNL     1      -9.024   7.284  66.923  1.00  0.00    -0.135 C  
HETATM   16  H2* UNL     1      -7.670   5.038  66.593  1.00  0.00     0.000 HD 
HETATM   17  C2* UNL     1      -8.632   6.183  67.912  1.00  0.00    -0.114 C  
HETATM   18  O3* UNL     1      -8.310   7.202  65.686  1.00  0.00    -0.129 OA 
HETATM   19  O2* UNL     1      -7.467   5.491  67.404  1.00  0.00    -0.082 OA 
HETATM   20  H3* UNL     1      -8.530   6.389  65.246  1.00  0.00     0.000 HD 
BRANCH  14  21
HETATM   21  C5* UNL     1      -9.941   9.347  68.051  1.00  0.00    -0.176 C  
HETATM   22  O5* UNL     1     -11.106   8.604  67.711  1.00  0.00    -0.482 OA 
HETATM   23  H5* UNL     1     -11.890   9.073  67.971  1.00  0.00     0.000 HD 
ENDBRANCH  14  21
ENDBRANCH   8  12
TORSDOF 2
ENDMDL
MODEL      142
REMARK 921   NORMALIZED FREE ENERGY PREDICTED BY IDOCK:   -3.32 KCAL/MOL
REMARK 922        TOTAL FREE ENERGY PREDICTED BY IDOCK:   -3.69 KCAL/MOL
REMARK 923 INTER-LIGAND FREE ENERGY PREDICTED BY IDOCK:   -3.72 KCAL/MOL
REMARK 924 INTRA-LIGAND FREE ENERGY PREDICTED BY IDOCK:    0.03 KCAL/MOL
REMARK 927      BINDING AFFINITY PREDICTED BY RF-SCORE:    0.00 PKD
ROOT
HETATM    1  N   UNL     1      -8.125   4.243  74.056  1.00  0.00    -0.092 NA 
HETATM    2  H2  UNL     1      -7.769   3.429  73.554  1.00  0.00     0.000 HD 
HETATM    3  C   UNL     1      -8.239   5.434  73.423  1.00  0.00    -0.114 C  
HETATM    4  H1  UNL     1      -8.397   4.160  75.036  1.00  0.00     0.000 HD 
HETATM    5  N   UNL     1      -7.896   5.539  72.186  1.00  0.00    -0.105 N  
HETATM    6  C   UNL     1      -8.042   6.762  71.586  1.00  0.00    -0.106 C  
HETATM    7  H   UNL     1      -7.528   4.739  71.670  1.00  0.00     0.000 HD 
HETATM    8  N   UNL     1      -8.966   7.612  72.126  1.00  0.00    -0.128 N  
HETATM    9  O   UNL     1      -7.363   7.074  70.616  1.00  0.00    -0.074 OA 
HETATM   10  N   UNL     1      -8.701   6.478  74.151  1.00  0.00    -0.132 NA 
HETATM   11  C   UNL     1      -9.064   7.511  73.477  1.00  0.00    -0.235 C  
ENDROOT
BRANCH   8  12
HETATM   12  C1* UNL     1      -9.314   8.870  71.505  1.00  0.00    -0.265 C  
HETATM   13  O4* UNL     1     -10.652   9.199  71.949  1.00  0.00    -0.348 OA 
HETATM   14  C4* UNL     1     -11.587   8.687  70.968  1.00  0.00    -0.281 C  
HETATM   15  C3* UNL     1     -10.871   8.722  69.623  1.00  0.00    -0.169 C  
HETATM   16  H2* UNL     1      -9.131  10.427  68.598  1.00  0.00     0.000 HD 
HETATM   17  C2* UNL     1      -9.405   9.002  69.966  1.00  0.00    -0.183 C  
HETATM   18  O3* UNL     1     -11.454   9.734  68.797  1.00  0.00    -0.480 OA 
HETATM   19  O2* UNL     1      -9.075  10.347  69.543  1.00  0.00    -0.183 OA 
HETATM   20  H3* UNL     1     -11.007   9.755  67.959  1.00  0.00     0.000 HD 
BRANCH  14  21
HETATM   21  C5* UNL     1     -12.022   7.255  71.324  1.00  0.00    -0.324 C  
HETATM   22  O5* UNL     1     -13.326   6.987  70.821  1.00  0.00    -0.501 OA 
HETATM   23  H5* UNL     1     -13.594   6.103  71.041  1.00  0.00     0.000 HD 
ENDBRANCH  14  21
ENDBRANCH   8  12
TORSDOF 2
ENDMDL
MODEL      143
REMARK 921   NORMALIZED FREE ENERGY PREDICTED BY IDOCK:   -3.30 KCAL/MOL
REMARK 922        TOTAL FREE ENERGY PREDICTED BY IDOCK:   -3.66 KCAL/MOL
REMARK 923 INTER-LIGAND FREE ENERGY PREDICTED BY IDOCK:   -3.58 KCAL/MOL
REMARK 924 INTRA-LIGAND FREE ENERGY PREDICTED BY IDOCK:   -0.09 KCAL/MOL
REMARK 927      BINDING AFFINITY PREDICTED BY RF-SCORE:    0.00 PKD
ROOT
HETATM    1  N   UNL     1      -9.808   4.624  69.053  1.00  0.00    -0.174 NA 
HETATM    2  H2  UNL     1      -9.338   4.480  69.947  1.00  0.00     0.000 HD 
HETATM    3  C   UNL     1     -10.164   5.871  68.667  1.00  0.00    -0.192 C  
HETATM    4  H1  UNL     1     -10.010   3.828  68.448  1.00  0.00     0.000 HD 
HETATM    5  N   UNL     1      -9.909   6.878  69.430  1.00  0.00    -0.157 N  
HETATM    6  C   UNL     1     -10.276   8.121  68.989  1.00  0.00    -0.220 C  
HETATM    7  H   UNL     1      -9.449   6.752  70.332  1.00  0.00     0.000 HD 
HETATM    8  N   UNL     1     -10.405   8.288  67.638  1.00  0.00    -0.237 N  
HETATM    9  O   UNL     1     -10.487   9.033  69.778  1.00  0.00    -0.207 OA 
HETATM   10  N   UNL     1     -10.801   5.992  67.478  1.00  0.00    -0.308 NA 
HETATM   11  C   UNL     1     -10.876   7.184  67.003  1.00  0.00    -0.312 C  
ENDROOT
BRANCH   8  12
HETATM   12  C1* UNL     1     -10.649   9.581  67.039  1.00  0.00    -0.201 C  
HETATM   13  O4* UNL     1     -10.143   9.516  65.685  1.00  0.00    -0.285 OA 
HETATM   14  C4* UNL     1      -8.778  10.003  65.694  1.00  0.00    -0.155 C  
HETATM   15  C3* UNL     1      -8.688  11.027  66.818  1.00  0.00    -0.152 C  
HETATM   16  H2* UNL     1     -10.422  12.804  67.725  1.00  0.00     0.000 HD 
HETATM   17  C2* UNL     1      -9.989  10.861  67.607  1.00  0.00    -0.173 C  
HETATM   18  O3* UNL     1      -8.538  12.336  66.261  1.00  0.00    -0.399 OA 
HETATM   19  O2* UNL     1     -10.827  12.018  67.377  1.00  0.00    -0.224 OA 
HETATM   20  H3* UNL     1      -8.481  12.975  66.962  1.00  0.00     0.000 HD 
BRANCH  14  21
HETATM   21  C5* UNL     1      -7.789   8.847  65.920  1.00  0.00    -0.102 C  
HETATM   22  O5* UNL     1      -7.037   9.057  67.110  1.00  0.00    -0.077 OA 
HETATM   23  H5* UNL     1      -6.426   8.343  67.249  1.00  0.00     0.000 HD 
ENDBRANCH  14  21
ENDBRANCH   8  12
TORSDOF 2
ENDMDL
MODEL      144
REMARK 921   NORMALIZED FREE ENERGY PREDICTED BY IDOCK:   -3.29 KCAL/MOL
REMARK 922        TOTAL FREE ENERGY PREDICTED BY IDOCK:   -3.65 KCAL/MOL
REMARK 923 INTER-LIGAND FREE ENERGY PREDICTED BY IDOCK:   -3.71 KCAL/MOL
REMARK 924 INTRA-LIGAND FREE ENERGY PREDICTED BY IDOCK:    0.05 KCAL/MOL
REMARK 927      BINDING AFFINITY PREDICTED BY RF-SCORE:    0.00 PKD
ROOT
HETATM    1  N   UNL     1     -11.364  14.093  65.879  1.00  0.00    -0.317 NA 
HETATM    2  H2  UNL     1     -10.781  14.661  65.264  1.00  0.00     0.000 HD 
HETATM    3  C   UNL     1     -11.191  12.752  65.929  1.00  0.00    -0.300 C  
HETATM    4  H1  UNL     1     -12.078  14.536  66.457  1.00  0.00     0.000 HD 
HETATM    5  N   UNL     1     -10.288  12.193  65.199  1.00  0.00    -0.271 N  
HETATM    6  C   UNL     1     -10.142  10.834  65.297  1.00  0.00    -0.290 C  
HETATM    7  H   UNL     1      -9.703  12.743  64.571  1.00  0.00     0.000 HD 
HETATM    8  N   UNL     1     -10.560  10.246  66.457  1.00  0.00    -0.175 N  
HETATM    9  O   UNL     1      -9.667  10.184  64.375  1.00  0.00    -0.308 OA 
HETATM   10  N   UNL     1     -12.009  12.054  66.752  1.00  0.00    -0.610 NA 
HETATM   11  C   UNL     1     -11.652  10.844  67.000  1.00  0.00     0.334 C  
ENDROOT
BRANCH   8  12
HETATM   12  C1* UNL     1     -10.333   8.846  66.739  1.00  0.00    -0.247 C  
HETATM   13  O4* UNL     1     -10.763   8.620  68.102  1.00  0.00    -0.167 OA 
HETATM   14  C4* UNL     1      -9.609   8.773  68.966  1.00  0.00    -0.162 C  
HETATM   15  C3* UNL     1      -8.393   8.355  68.147  1.00  0.00    -0.128 C  
HETATM   16  H2* UNL     1      -8.066   6.483  66.310  1.00  0.00     0.000 HD 
HETATM   17  C2* UNL     1      -8.906   8.247  66.708  1.00  0.00    -0.140 C  
HETATM   18  O3* UNL     1      -7.879   7.119  68.650  1.00  0.00    -0.117 OA 
HETATM   19  O2* UNL     1      -8.942   6.851  66.329  1.00  0.00    -0.150 OA 
HETATM   20  H3* UNL     1      -7.122   6.859  68.139  1.00  0.00     0.000 HD 
BRANCH  14  21
HETATM   21  C5* UNL     1      -9.477  10.228  69.446  1.00  0.00    -0.206 C  
HETATM   22  O5* UNL     1     -10.623  10.613  70.197  1.00  0.00    -0.454 OA 
HETATM   23  H5* UNL     1     -10.542  11.513  70.493  1.00  0.00     0.000 HD 
ENDBRANCH  14  21
ENDBRANCH   8  12
TORSDOF 2
ENDMDL
MODEL      145
REMARK 921   NORMALIZED FREE ENERGY PREDICTED BY IDOCK:   -3.28 KCAL/MOL
REMARK 922        TOTAL FREE ENERGY PREDICTED BY IDOCK:   -3.64 KCAL/MOL
REMARK 923 INTER-LIGAND FREE ENERGY PREDICTED BY IDOCK:   -3.72 KCAL/MOL
REMARK 924 INTRA-LIGAND FREE ENERGY PREDICTED BY IDOCK:    0.08 KCAL/MOL
REMARK 927      BINDING AFFINITY PREDICTED BY RF-SCORE:    0.00 PKD
ROOT
HETATM    1  N   UNL     1     -10.592  10.983  62.887  1.00  0.00    -0.803 NA 
HETATM    2  H2  UNL     1     -11.180  11.787  63.107  1.00  0.00     0.000 HD 
HETATM    3  C   UNL     1      -9.726  10.503  63.810  1.00  0.00    -0.326 C  
HETATM    4  H1  UNL     1     -10.657  10.539  61.971  1.00  0.00     0.000 HD 
HETATM    5  N   UNL     1      -9.645  11.063  64.967  1.00  0.00    -0.234 N  
HETATM    6  C   UNL     1      -8.764  10.531  65.871  1.00  0.00    -0.167 C  
HETATM    7  H   UNL     1     -10.218  11.874  65.202  1.00  0.00     0.000 HD 
HETATM    8  N   UNL     1      -8.424   9.217  65.710  1.00  0.00    -0.129 N  
HETATM    9  O   UNL     1      -8.299  11.215  66.774  1.00  0.00    -0.140 OA 
HETATM   10  N   UNL     1      -8.962   9.445  63.449  1.00  0.00    -0.189 NA 
HETATM   11  C   UNL     1      -8.363   8.835  64.408  1.00  0.00    -0.157 C  
ENDROOT
BRANCH   8  12
HETATM   12  C1* UNL     1      -7.618   8.503  66.674  1.00  0.00    -0.082 C  
HETATM   13  O4* UNL     1      -8.056   7.124  66.645  1.00  0.00    -0.105 OA 
HETATM   14  C4* UNL     1      -9.068   6.955  67.668  1.00  0.00    -0.118 C  
HETATM   15  C3* UNL     1      -8.736   7.945  68.777  1.00  0.00    -0.128 C  
HETATM   16  H2* UNL     1      -6.429   8.804  69.741  1.00  0.00     0.000 HD 
HETATM   17  C2* UNL     1      -7.667   8.864  68.178  1.00  0.00    -0.100 C  
HETATM   18  O3* UNL     1      -8.278   7.236  69.932  1.00  0.00    -0.128 OA 
HETATM   19  O2* UNL     1      -6.399   8.583  68.817  1.00  0.00    -0.047 OA 
HETATM   20  H3* UNL     1      -8.071   7.854  70.623  1.00  0.00     0.000 HD 
BRANCH  14  21
HETATM   21  C5* UNL     1     -10.470   7.217  67.095  1.00  0.00    -0.324 C  
HETATM   22  O5* UNL     1     -11.473   6.755  67.994  1.00  0.00    -0.547 OA 
HETATM   23  H5* UNL     1     -12.340   6.917  67.639  1.00  0.00     0.000 HD 
ENDBRANCH  14  21
ENDBRANCH   8  12
TORSDOF 2
ENDMDL
MODEL      146
REMARK 921   NORMALIZED FREE ENERGY PREDICTED BY IDOCK:   -3.27 KCAL/MOL
REMARK 922        TOTAL FREE ENERGY PREDICTED BY IDOCK:   -3.62 KCAL/MOL
REMARK 923 INTER-LIGAND FREE ENERGY PREDICTED BY IDOCK:   -3.63 KCAL/MOL
REMARK 924 INTRA-LIGAND FREE ENERGY PREDICTED BY IDOCK:    0.00 KCAL/MOL
REMARK 927      BINDING AFFINITY PREDICTED BY RF-SCORE:    0.00 PKD
ROOT
HETATM    1  N   UNL     1     -11.325   5.135  65.691  1.00  0.00    -0.771 NA 
HETATM    2  H2  UNL     1     -10.810   4.794  64.878  1.00  0.00     0.000 HD 
HETATM    3  C   UNL     1     -10.655   5.596  66.773  1.00  0.00    -0.304 C  
HETATM    4  H1  UNL     1     -12.344   5.129  65.688  1.00  0.00     0.000 HD 
HETATM    5  N   UNL     1      -9.366   5.604  66.775  1.00  0.00    -0.130 N  
HETATM    6  C   UNL     1      -8.735   6.093  67.888  1.00  0.00    -0.113 C  
HETATM    7  H   UNL     1      -8.835   5.258  65.976  1.00  0.00     0.000 HD 
HETATM    8  N   UNL     1      -9.437   6.971  68.665  1.00  0.00    -0.136 N  
HETATM    9  O   UNL     1      -7.596   5.745  68.170  1.00  0.00    -0.083 OA 
HETATM   10  N   UNL     1     -11.396   6.017  67.825  1.00  0.00     0.098 NA 
HETATM   11  C   UNL     1     -10.768   6.701  68.712  1.00  0.00    -0.258 C  
ENDROOT
BRANCH   8  12
HETATM   12  C1* UNL     1      -8.837   7.664  69.784  1.00  0.00    -0.140 C  
HETATM   13  O4* UNL     1      -9.789   8.666  70.213  1.00  0.00    -0.172 OA 
HETATM   14  C4* UNL     1      -9.470   9.906  69.534  1.00  0.00    -0.223 C  
HETATM   15  C3* UNL     1      -7.966   9.898  69.295  1.00  0.00    -0.121 C  
HETATM   16  H2* UNL     1      -5.958   8.967  70.740  1.00  0.00     0.000 HD 
HETATM   17  C2* UNL     1      -7.525   8.466  69.614  1.00  0.00    -0.073 C  
HETATM   18  O3* UNL     1      -7.342  10.873  70.135  1.00  0.00    -0.429 OA 
HETATM   19  O2* UNL     1      -6.763   8.475  70.845  1.00  0.00    -0.039 OA 
HETATM   20  H3* UNL     1      -6.404  10.867  69.986  1.00  0.00     0.000 HD 
BRANCH  14  21
HETATM   21  C5* UNL     1     -10.239  10.013  68.207  1.00  0.00    -0.173 C  
HETATM   22  O5* UNL     1     -11.611  10.309  68.445  1.00  0.00    -0.564 OA 
HETATM   23  H5* UNL     1     -12.086  10.375  67.625  1.00  0.00     0.000 HD 
ENDBRANCH  14  21
ENDBRANCH   8  12
TORSDOF 2
ENDMDL
MODEL      147
REMARK 921   NORMALIZED FREE ENERGY PREDICTED BY IDOCK:   -3.22 KCAL/MOL
REMARK 922        TOTAL FREE ENERGY PREDICTED BY IDOCK:   -3.58 KCAL/MOL
REMARK 923 INTER-LIGAND FREE ENERGY PREDICTED BY IDOCK:   -3.56 KCAL/MOL
REMARK 924 INTRA-LIGAND FREE ENERGY PREDICTED BY IDOCK:   -0.01 KCAL/MOL
REMARK 927      BINDING AFFINITY PREDICTED BY RF-SCORE:    0.00 PKD
ROOT
HETATM    1  N   UNL     1      -9.752  12.230  68.776  1.00  0.00    -0.411 NA 
HETATM    2  H2  UNL     1      -9.023  12.691  69.321  1.00  0.00     0.000 HD 
HETATM    3  C   UNL     1      -9.626  10.924  68.444  1.00  0.00    -0.177 C  
HETATM    4  H1  UNL     1     -10.576  12.753  68.480  1.00  0.00     0.000 HD 
HETATM    5  N   UNL     1      -8.585  10.263  68.819  1.00  0.00    -0.130 N  
HETATM    6  C   UNL     1      -8.511   8.941  68.470  1.00  0.00    -0.129 C  
HETATM    7  H   UNL     1      -7.842  10.710  69.356  1.00  0.00     0.000 HD 
HETATM    8  N   UNL     1      -9.691   8.296  68.222  1.00  0.00    -0.154 N  
HETATM    9  O   UNL     1      -7.431   8.373  68.378  1.00  0.00    -0.092 OA 
HETATM   10  N   UNL     1     -10.619  10.376  67.704  1.00  0.00    -0.236 NA 
HETATM   11  C   UNL     1     -10.625   9.093  67.640  1.00  0.00    -0.242 C  
ENDROOT
BRANCH   8  12
HETATM   12  C1* UNL     1      -9.758   6.872  67.983  1.00  0.00    -0.130 C  
HETATM   13  O4* UNL     1     -11.113   6.462  68.286  1.00  0.00    -0.308 OA 
HETATM   14  C4* UNL     1     -11.150   6.028  69.668  1.00  0.00    -0.404 C  
HETATM   15  C3* UNL     1      -9.770   5.467  69.987  1.00  0.00    -0.178 C  
HETATM   16  H2* UNL     1      -8.042   4.102  68.524  1.00  0.00     0.000 HD 
HETATM   17  C2* UNL     1      -8.893   5.884  68.803  1.00  0.00    -0.111 C  
HETATM   18  O3* UNL     1      -9.854   4.048  70.145  1.00  0.00    -0.210 OA 
HETATM   19  O2* UNL     1      -8.573   4.709  68.021  1.00  0.00    -0.101 OA 
HETATM   20  H3* UNL     1      -8.993   3.699  70.344  1.00  0.00     0.000 HD 
BRANCH  14  21
HETATM   21  C5* UNL     1     -11.496   7.203  70.598  1.00  0.00    -0.308 C  
HETATM   22  O5* UNL     1     -11.239   6.860  71.956  1.00  0.00    -0.241 OA 
HETATM   23  H5* UNL     1     -11.453   7.585  72.530  1.00  0.00     0.000 HD 
ENDBRANCH  14  21
ENDBRANCH   8  12
TORSDOF 2
ENDMDL
MODEL      148
REMARK 921   NORMALIZED FREE ENERGY PREDICTED BY IDOCK:   -3.22 KCAL/MOL
REMARK 922        TOTAL FREE ENERGY PREDICTED BY IDOCK:   -3.58 KCAL/MOL
REMARK 923 INTER-LIGAND FREE ENERGY PREDICTED BY IDOCK:   -3.77 KCAL/MOL
REMARK 924 INTRA-LIGAND FREE ENERGY PREDICTED BY IDOCK:    0.20 KCAL/MOL
REMARK 927      BINDING AFFINITY PREDICTED BY RF-SCORE:    0.00 PKD
ROOT
HETATM    1  N   UNL     1     -11.640  11.339  67.735  1.00  0.00    -0.531 NA 
HETATM    2  H2  UNL     1     -11.939  10.874  68.593  1.00  0.00     0.000 HD 
HETATM    3  C   UNL     1     -11.054  12.558  67.794  1.00  0.00    -0.249 C  
HETATM    4  H1  UNL     1     -11.781  10.885  66.833  1.00  0.00     0.000 HD 
HETATM    5  N   UNL     1     -10.875  13.130  68.934  1.00  0.00    -0.333 N  
HETATM    6  C   UNL     1     -10.265  14.357  68.942  1.00  0.00    -0.213 C  
HETATM    7  H   UNL     1     -11.177  12.685  69.801  1.00  0.00     0.000 HD 
HETATM    8  N   UNL     1      -9.460  14.657  67.879  1.00  0.00    -0.207 N  
HETATM    9  O   UNL     1     -10.448  15.146  69.860  1.00  0.00    -0.255 OA 
HETATM   10  N   UNL     1     -10.697  13.128  66.619  1.00  0.00    -0.277 NA 
HETATM   11  C   UNL     1      -9.902  14.134  66.706  1.00  0.00    -0.272 C  
ENDROOT
BRANCH   8  12
HETATM   12  C1* UNL     1      -8.653  15.856  67.836  1.00  0.00    -0.163 C  
HETATM   13  O4* UNL     1      -7.372  15.476  67.280  1.00  0.00    -0.191 OA 
HETATM   14  C4* UNL     1      -6.484  15.160  68.381  1.00  0.00    -0.107 C  
HETATM   15  C3* UNL     1      -6.922  16.024  69.557  1.00  0.00    -0.191 C  
HETATM   16  H2* UNL     1      -7.876  18.486  69.675  1.00  0.00     0.000 HD 
HETATM   17  C2* UNL     1      -8.272  16.609  69.133  1.00  0.00    -0.126 C  
HETATM   18  O3* UNL     1      -5.935  17.027  69.809  1.00  0.00    -0.215 OA 
HETATM   19  O2* UNL     1      -8.109  18.024  68.879  1.00  0.00    -0.260 OA 
HETATM   20  H3* UNL     1      -6.208  17.566  70.542  1.00  0.00     0.000 HD 
BRANCH  14  21
HETATM   21  C5* UNL     1      -6.563  13.666  68.733  1.00  0.00    -0.101 C  
HETATM   22  O5* UNL     1      -5.409  13.260  69.461  1.00  0.00    -0.082 OA 
HETATM   23  H5* UNL     1      -5.459  12.337  69.679  1.00  0.00     0.000 HD 
ENDBRANCH  14  21
ENDBRANCH   8  12
TORSDOF 2
ENDMDL
MODEL      149
REMARK 921   NORMALIZED FREE ENERGY PREDICTED BY IDOCK:   -3.22 KCAL/MOL
REMARK 922        TOTAL FREE ENERGY PREDICTED BY IDOCK:   -3.57 KCAL/MOL
REMARK 923 INTER-LIGAND FREE ENERGY PREDICTED BY IDOCK:   -4.25 KCAL/MOL
REMARK 924 INTRA-LIGAND FREE ENERGY PREDICTED BY IDOCK:    0.68 KCAL/MOL
REMARK 927      BINDING AFFINITY PREDICTED BY RF-SCORE:    0.00 PKD
ROOT
HETATM    1  N   UNL     1     -12.662  15.593  63.734  1.00  0.00    -0.615 NA 
HETATM    2  H2  UNL     1     -12.794  16.535  63.364  1.00  0.00     0.000 HD 
HETATM    3  C   UNL     1     -11.630  15.331  64.570  1.00  0.00    -0.312 C  
HETATM    4  H1  UNL     1     -13.308  14.848  63.474  1.00  0.00     0.000 HD 
HETATM    5  N   UNL     1     -10.815  16.273  64.898  1.00  0.00    -0.384 N  
HETATM    6  C   UNL     1      -9.795  15.961  65.758  1.00  0.00    -0.345 C  
HETATM    7  H   UNL     1     -10.925  17.219  64.531  1.00  0.00     0.000 HD 
HETATM    8  N   UNL     1      -9.982  14.885  66.580  1.00  0.00    -0.250 N  
HETATM    9  O   UNL     1      -8.761  16.617  65.774  1.00  0.00    -0.482 OA 
HETATM   10  N   UNL     1     -11.500  14.057  65.010  1.00  0.00    -0.330 NA 
HETATM   11  C   UNL     1     -10.704  13.889  66.005  1.00  0.00    -0.287 C  
ENDROOT
BRANCH   8  12
HETATM   12  C1* UNL     1      -9.045  14.539  67.625  1.00  0.00    -0.195 C  
HETATM   13  O4* UNL     1      -9.756  14.661  68.880  1.00  0.00    -0.216 OA 
HETATM   14  C4* UNL     1      -9.527  15.995  69.396  1.00  0.00    -0.226 C  
HETATM   15  C3* UNL     1      -8.150  16.422  68.905  1.00  0.00    -0.236 C  
HETATM   16  H2* UNL     1      -5.913  15.064  68.532  1.00  0.00     0.000 HD 
HETATM   17  C2* UNL     1      -7.763  15.375  67.857  1.00  0.00    -0.133 C  
HETATM   18  O3* UNL     1      -7.241  16.468  70.008  1.00  0.00     0.301 OA 
HETATM   19  O2* UNL     1      -6.700  14.550  68.390  1.00  0.00    -0.091 OA 
HETATM   20  H3* UNL     1      -6.382  16.734  69.702  1.00  0.00     0.000 HD 
BRANCH  14  21
HETATM   21  C5* UNL     1     -10.614  16.964  68.901  1.00  0.00    -0.353 C  
HETATM   22  O5* UNL     1     -11.849  16.712  69.562  1.00  0.00    -0.100 OA 
HETATM   23  H5* UNL     1     -12.521  17.310  69.256  1.00  0.00     0.000 HD 
ENDBRANCH  14  21
ENDBRANCH   8  12
TORSDOF 2
ENDMDL
MODEL      150
REMARK 921   NORMALIZED FREE ENERGY PREDICTED BY IDOCK:   -3.21 KCAL/MOL
REMARK 922        TOTAL FREE ENERGY PREDICTED BY IDOCK:   -3.56 KCAL/MOL
REMARK 923 INTER-LIGAND FREE ENERGY PREDICTED BY IDOCK:   -3.57 KCAL/MOL
REMARK 924 INTRA-LIGAND FREE ENERGY PREDICTED BY IDOCK:    0.01 KCAL/MOL
REMARK 927      BINDING AFFINITY PREDICTED BY RF-SCORE:    0.00 PKD
ROOT
HETATM    1  N   UNL     1     -10.683   4.631  72.421  1.00  0.00    -0.161 NA 
HETATM    2  H2  UNL     1      -9.956   3.998  72.756  1.00  0.00     0.000 HD 
HETATM    3  C   UNL     1     -10.349   5.719  71.689  1.00  0.00    -0.214 C  
HETATM    4  H1  UNL     1     -11.662   4.443  72.636  1.00  0.00     0.000 HD 
HETATM    5  N   UNL     1      -9.112   5.956  71.416  1.00  0.00    -0.140 N  
HETATM    6  C   UNL     1      -8.827   7.062  70.661  1.00  0.00    -0.150 C  
HETATM    7  H   UNL     1      -8.371   5.340  71.752  1.00  0.00     0.000 HD 
HETATM    8  N   UNL     1      -9.820   7.533  69.848  1.00  0.00    -0.185 N  
HETATM    9  O   UNL     1      -7.732   7.604  70.726  1.00  0.00    -0.082 OA 
HETATM   10  N   UNL     1     -11.359   6.529  71.290  1.00  0.00    -0.289 NA 
HETATM   11  C   UNL     1     -11.063   7.382  70.376  1.00  0.00    -0.265 C  
ENDROOT
BRANCH   8  12
HETATM   12  C1* UNL     1      -9.602   8.603  68.901  1.00  0.00    -0.159 C  
HETATM   13  O4* UNL     1     -10.761   8.637  68.035  1.00  0.00    -0.181 OA 
HETATM   14  C4* UNL     1     -10.474   7.822  66.872  1.00  0.00    -0.317 C  
HETATM   15  C3* UNL     1      -8.970   7.901  66.644  1.00  0.00    -0.151 C  
HETATM   16  H2* UNL     1      -7.240   9.872  66.972  1.00  0.00     0.000 HD 
HETATM   17  C2* UNL     1      -8.414   8.561  67.909  1.00  0.00    -0.130 C  
HETATM   18  O3* UNL     1      -8.705   8.657  65.459  1.00  0.00    -0.172 OA 
HETATM   19  O2* UNL     1      -7.969   9.898  67.581  1.00  0.00    -0.108 OA 
HETATM   20  H3* UNL     1      -7.767   8.706  65.317  1.00  0.00     0.000 HD 
BRANCH  14  21
HETATM   21  C5* UNL     1     -10.922   6.369  67.102  1.00  0.00    -0.399 C  
HETATM   22  O5* UNL     1     -10.562   5.552  65.994  1.00  0.00    -0.465 OA 
HETATM   23  H5* UNL     1     -10.839   4.654  66.136  1.00  0.00     0.000 HD 
ENDBRANCH  14  21
ENDBRANCH   8  12
TORSDOF 2
ENDMDL
MODEL      151
REMARK 921   NORMALIZED FREE ENERGY PREDICTED BY IDOCK:   -3.21 KCAL/MOL
REMARK 922        TOTAL FREE ENERGY PREDICTED BY IDOCK:   -3.56 KCAL/MOL
REMARK 923 INTER-LIGAND FREE ENERGY PREDICTED BY IDOCK:   -3.49 KCAL/MOL
REMARK 924 INTRA-LIGAND FREE ENERGY PREDICTED BY IDOCK:   -0.07 KCAL/MOL
REMARK 927      BINDING AFFINITY PREDICTED BY RF-SCORE:    0.00 PKD
ROOT
HETATM    1  N   UNL     1      -6.539  12.617  70.313  1.00  0.00    -0.401 NA 
HETATM    2  H2  UNL     1      -7.176  12.430  71.088  1.00  0.00     0.000 HD 
HETATM    3  C   UNL     1      -6.911  13.449  69.314  1.00  0.00     0.006 C  
HETATM    4  H1  UNL     1      -5.619  12.176  70.292  1.00  0.00     0.000 HD 
HETATM    5  N   UNL     1      -8.073  14.007  69.341  1.00  0.00    -0.287 N  
HETATM    6  C   UNL     1      -8.398  14.852  68.314  1.00  0.00    -0.148 C  
HETATM    7  H   UNL     1      -8.728  13.824  70.102  1.00  0.00     0.000 HD 
HETATM    8  N   UNL     1      -7.363  15.435  67.637  1.00  0.00    -0.161 N  
HETATM    9  O   UNL     1      -9.566  15.061  68.015  1.00  0.00    -0.204 OA 
HETATM   10  N   UNL     1      -6.027  13.640  68.306  1.00  0.00    -0.095 NA 
HETATM   11  C   UNL     1      -6.273  14.631  67.527  1.00  0.00     0.021 C  
ENDROOT
BRANCH   8  12
HETATM   12  C1* UNL     1      -7.572  16.450  66.629  1.00  0.00    -0.253 C  
HETATM   13  O4* UNL     1      -6.271  16.994  66.309  1.00  0.00    -0.245 OA 
HETATM   14  C4* UNL     1      -6.054  18.158  67.146  1.00  0.00    -0.152 C  
HETATM   15  C3* UNL     1      -7.426  18.763  67.415  1.00  0.00    -0.223 C  
HETATM   16  H2* UNL     1      -9.589  18.964  65.909  1.00  0.00     0.000 HD 
HETATM   17  C2* UNL     1      -8.424  17.708  66.928  1.00  0.00    -0.241 C  
HETATM   18  O3* UNL     1      -7.546  20.006  66.719  1.00  0.00    -0.256 OA 
HETATM   19  O2* UNL     1      -9.067  18.192  65.725  1.00  0.00    -0.466 OA 
HETATM   20  H3* UNL     1      -8.402  20.383  66.887  1.00  0.00     0.000 HD 
BRANCH  14  21
HETATM   21  C5* UNL     1      -5.358  17.762  68.458  1.00  0.00    -0.152 C  
HETATM   22  O5* UNL     1      -6.141  18.156  69.580  1.00  0.00    -0.235 OA 
HETATM   23  H5* UNL     1      -5.711  17.912  70.391  1.00  0.00     0.000 HD 
ENDBRANCH  14  21
ENDBRANCH   8  12
TORSDOF 2
ENDMDL
MODEL      152
REMARK 921   NORMALIZED FREE ENERGY PREDICTED BY IDOCK:   -3.14 KCAL/MOL
REMARK 922        TOTAL FREE ENERGY PREDICTED BY IDOCK:   -3.48 KCAL/MOL
REMARK 923 INTER-LIGAND FREE ENERGY PREDICTED BY IDOCK:   -3.56 KCAL/MOL
REMARK 924 INTRA-LIGAND FREE ENERGY PREDICTED BY IDOCK:    0.07 KCAL/MOL
REMARK 927      BINDING AFFINITY PREDICTED BY RF-SCORE:    0.00 PKD
ROOT
HETATM    1  N   UNL     1      -7.808  11.025  69.291  1.00  0.00    -0.325 NA 
HETATM    2  H2  UNL     1      -7.051  11.503  69.782  1.00  0.00     0.000 HD 
HETATM    3  C   UNL     1      -8.100   9.737  69.586  1.00  0.00    -0.154 C  
HETATM    4  H1  UNL     1      -8.346  11.518  68.578  1.00  0.00     0.000 HD 
HETATM    5  N   UNL     1      -7.421   9.114  70.487  1.00  0.00    -0.100 N  
HETATM    6  C   UNL     1      -7.765   7.817  70.760  1.00  0.00    -0.084 C  
HETATM    7  H   UNL     1      -6.655   9.572  70.981  1.00  0.00     0.000 HD 
HETATM    8  N   UNL     1      -9.046   7.439  70.469  1.00  0.00    -0.156 N  
HETATM    9  O   UNL     1      -6.950   7.035  71.232  1.00  0.00    -0.060 OA 
HETATM   10  N   UNL     1      -9.103   9.155  68.887  1.00  0.00    -0.139 NA 
HETATM   11  C   UNL     1      -9.549   8.049  69.365  1.00  0.00    -0.160 C  
ENDROOT
BRANCH   8  12
HETATM   12  C1* UNL     1      -9.572   6.143  70.837  1.00  0.00    -0.173 C  
HETATM   13  O4* UNL     1     -10.997   6.309  71.024  1.00  0.00    -0.256 OA 
HETATM   14  C4* UNL     1     -11.235   6.580  72.428  1.00  0.00    -0.275 C  
HETATM   15  C3* UNL     1     -10.134   5.867  73.203  1.00  0.00    -0.185 C  
HETATM   16  H2* UNL     1      -8.896   3.568  72.792  1.00  0.00     0.000 HD 
HETATM   17  C2* UNL     1      -9.119   5.439  72.139  1.00  0.00    -0.136 C  
HETATM   18  O3* UNL     1     -10.691   4.761  73.918  1.00  0.00    -0.256 OA 
HETATM   19  O2* UNL     1      -9.174   4.000  71.993  1.00  0.00    -0.116 OA 
HETATM   20  H3* UNL     1     -10.004   4.317  74.401  1.00  0.00     0.000 HD 
BRANCH  14  21
HETATM   21  C5* UNL     1     -11.213   8.093  72.702  1.00  0.00    -0.378 C  
HETATM   22  O5* UNL     1     -12.508   8.555  73.066  1.00  0.00    -0.604 OA 
HETATM   23  H5* UNL     1     -12.494   9.490  73.235  1.00  0.00     0.000 HD 
ENDBRANCH  14  21
ENDBRANCH   8  12
TORSDOF 2
ENDMDL
MODEL      153
REMARK 921   NORMALIZED FREE ENERGY PREDICTED BY IDOCK:   -3.13 KCAL/MOL
REMARK 922        TOTAL FREE ENERGY PREDICTED BY IDOCK:   -3.48 KCAL/MOL
REMARK 923 INTER-LIGAND FREE ENERGY PREDICTED BY IDOCK:   -3.52 KCAL/MOL
REMARK 924 INTRA-LIGAND FREE ENERGY PREDICTED BY IDOCK:    0.04 KCAL/MOL
REMARK 927      BINDING AFFINITY PREDICTED BY RF-SCORE:    0.00 PKD
ROOT
HETATM    1  N   UNL     1      -9.089  13.303  68.259  1.00  0.00    -0.221 NA 
HETATM    2  H2  UNL     1      -8.330  12.634  68.123  1.00  0.00     0.000 HD 
HETATM    3  C   UNL     1      -8.822  14.545  68.726  1.00  0.00    -0.153 C  
HETATM    4  H1  UNL     1     -10.049  13.036  68.043  1.00  0.00     0.000 HD 
HETATM    5  N   UNL     1      -7.609  14.882  68.999  1.00  0.00    -0.141 N  
HETATM    6  C   UNL     1      -7.389  16.154  69.455  1.00  0.00    -0.112 C  
HETATM    7  H   UNL     1      -6.839  14.223  68.879  1.00  0.00     0.000 HD 
HETATM    8  N   UNL     1      -8.316  17.103  69.124  1.00  0.00    -0.089 N  
HETATM    9  O   UNL     1      -6.407  16.418  70.138  1.00  0.00    -0.129 OA 
HETATM   10  N   UNL     1      -9.875  15.378  68.901  1.00  0.00    -0.205 NA 
HETATM   11  C   UNL     1      -9.584  16.618  69.070  1.00  0.00    -0.246 C  
ENDROOT
BRANCH   8  12
HETATM   12  C1* UNL     1      -8.128  18.505  69.423  1.00  0.00     0.321 C  
HETATM   13  O4* UNL     1      -8.851  19.247  68.413  1.00  0.00    -0.329 OA 
HETATM   14  C4* UNL     1      -7.928  19.560  67.342  1.00  0.00    -0.270 C  
HETATM   15  C3* UNL     1      -6.549  19.689  67.977  1.00  0.00    -0.248 C  
HETATM   16  H2* UNL     1      -5.771  20.638  70.319  1.00  0.00     0.000 HD 
HETATM   17  C2* UNL     1      -6.719  19.144  69.398  1.00  0.00    -0.281 C  
HETATM   18  O3* UNL     1      -6.136  21.058  67.952  1.00  0.00    -0.306 OA 
HETATM   19  O2* UNL     1      -6.636  20.245  70.334  1.00  0.00    -0.362 OA 
HETATM   20  H3* UNL     1      -5.277  21.139  68.348  1.00  0.00     0.000 HD 
BRANCH  14  21
HETATM   21  C5* UNL     1      -7.940  18.456  66.272  1.00  0.00    -0.235 C  
HETATM   22  O5* UNL     1      -6.997  18.742  65.245  1.00  0.00    -0.509 OA 
HETATM   23  H5* UNL     1      -7.005  18.059  64.584  1.00  0.00     0.000 HD 
ENDBRANCH  14  21
ENDBRANCH   8  12
TORSDOF 2
ENDMDL
MODEL      154
REMARK 921   NORMALIZED FREE ENERGY PREDICTED BY IDOCK:   -3.11 KCAL/MOL
REMARK 922        TOTAL FREE ENERGY PREDICTED BY IDOCK:   -3.45 KCAL/MOL
REMARK 923 INTER-LIGAND FREE ENERGY PREDICTED BY IDOCK:   -3.45 KCAL/MOL
REMARK 924 INTRA-LIGAND FREE ENERGY PREDICTED BY IDOCK:    0.00 KCAL/MOL
REMARK 927      BINDING AFFINITY PREDICTED BY RF-SCORE:    0.00 PKD
ROOT
HETATM    1  N   UNL     1     -10.580  12.042  64.133  1.00  0.00    -0.322 NA 
HETATM    2  H2  UNL     1     -10.339  13.009  63.909  1.00  0.00     0.000 HD 
HETATM    3  C   UNL     1      -9.777  11.314  64.942  1.00  0.00    -0.256 C  
HETATM    4  H1  UNL     1     -11.426  11.625  63.746  1.00  0.00     0.000 HD 
HETATM    5  N   UNL     1      -8.707  11.842  65.431  1.00  0.00    -0.354 N  
HETATM    6  C   UNL     1      -7.935  11.068  66.256  1.00  0.00    -0.148 C  
HETATM    7  H   UNL     1      -8.446  12.803  65.210  1.00  0.00     0.000 HD 
HETATM    8  N   UNL     1      -8.556  10.033  66.899  1.00  0.00    -0.125 N  
HETATM    9  O   UNL     1      -6.741  11.295  66.397  1.00  0.00    -0.128 OA 
HETATM   10  N   UNL     1     -10.142  10.033  65.185  1.00  0.00    -0.288 NA 
HETATM   11  C   UNL     1      -9.538   9.454  66.160  1.00  0.00    -0.247 C  
ENDROOT
BRANCH   8  12
HETATM   12  C1* UNL     1      -7.887   9.233  67.900  1.00  0.00    -0.092 C  
HETATM   13  O4* UNL     1      -8.920   8.527  68.627  1.00  0.00    -0.139 OA 
HETATM   14  C4* UNL     1      -9.272   9.320  69.788  1.00  0.00    -0.181 C  
HETATM   15  C3* UNL     1      -8.018  10.085  70.190  1.00  0.00    -0.101 C  
HETATM   16  H2* UNL     1      -5.458   9.427  70.129  1.00  0.00     0.000 HD 
HETATM   17  C2* UNL     1      -7.048   9.894  69.020  1.00  0.00    -0.068 C  
HETATM   18  O3* UNL     1      -7.513   9.563  71.422  1.00  0.00    -0.326 OA 
HETATM   19  O2* UNL     1      -5.973   9.021  69.442  1.00  0.00    -0.037 OA 
HETATM   20  H3* UNL     1      -6.731  10.040  71.673  1.00  0.00     0.000 HD 
BRANCH  14  21
HETATM   21  C5* UNL     1     -10.424  10.284  69.459  1.00  0.00    -0.244 C  
HETATM   22  O5* UNL     1     -10.998  10.806  70.653  1.00  0.00    -0.398 OA 
HETATM   23  H5* UNL     1     -11.710  11.401  70.449  1.00  0.00     0.000 HD 
ENDBRANCH  14  21
ENDBRANCH   8  12
TORSDOF 2
ENDMDL
MODEL      155
REMARK 921   NORMALIZED FREE ENERGY PREDICTED BY IDOCK:   -3.11 KCAL/MOL
REMARK 922        TOTAL FREE ENERGY PREDICTED BY IDOCK:   -3.44 KCAL/MOL
REMARK 923 INTER-LIGAND FREE ENERGY PREDICTED BY IDOCK:   -3.45 KCAL/MOL
REMARK 924 INTRA-LIGAND FREE ENERGY PREDICTED BY IDOCK:    0.00 KCAL/MOL
REMARK 927      BINDING AFFINITY PREDICTED BY RF-SCORE:    0.00 PKD
ROOT
HETATM    1  N   UNL     1     -11.473   6.394  69.026  1.00  0.00    -0.591 NA 
HETATM    2  H2  UNL     1     -12.064   6.998  69.600  1.00  0.00     0.000 HD 
HETATM    3  C   UNL     1     -10.794   6.910  67.975  1.00  0.00    -0.200 C  
HETATM    4  H1  UNL     1     -11.394   5.401  69.245  1.00  0.00     0.000 HD 
HETATM    5  N   UNL     1     -10.895   8.165  67.699  1.00  0.00    -0.507 N  
HETATM    6  C   UNL     1     -10.177   8.642  66.635  1.00  0.00    -0.273 C  
HETATM    7  H   UNL     1     -11.488   8.781  68.255  1.00  0.00     0.000 HD 
HETATM    8  N   UNL     1      -9.065   7.936  66.268  1.00  0.00    -0.177 N  
HETATM    9  O   UNL     1     -10.530   9.651  66.038  1.00  0.00    -0.157 OA 
HETATM   10  N   UNL     1     -10.043   6.053  67.244  1.00  0.00    -0.150 NA 
HETATM   11  C   UNL     1      -9.199   6.595  66.441  1.00  0.00    -0.151 C  
ENDROOT
BRANCH   8  12
HETATM   12  C1* UNL     1      -8.148   8.409  65.255  1.00  0.00    -0.140 C  
HETATM   13  O4* UNL     1      -6.823   8.000  65.669  1.00  0.00    -0.055 OA 
HETATM   14  C4* UNL     1      -6.234   9.088  66.423  1.00  0.00    -0.064 C  
HETATM   15  C3* UNL     1      -6.827  10.376  65.866  1.00  0.00    -0.131 C  
HETATM   16  H2* UNL     1      -7.523  11.079  63.415  1.00  0.00     0.000 HD 
HETATM   17  C2* UNL     1      -7.984   9.922  64.972  1.00  0.00    -0.137 C  
HETATM   18  O3* UNL     1      -5.820  11.097  65.151  1.00  0.00    -0.432 OA 
HETATM   19  O2* UNL     1      -7.624  10.151  63.589  1.00  0.00    -0.149 OA 
HETATM   20  H3* UNL     1      -6.190  11.900  64.804  1.00  0.00     0.000 HD 
BRANCH  14  21
HETATM   21  C5* UNL     1      -6.543   8.941  67.922  1.00  0.00    -0.061 C  
HETATM   22  O5* UNL     1      -7.167  10.119  68.423  1.00  0.00    -0.074 OA 
HETATM   23  H5* UNL     1      -7.357  10.028  69.349  1.00  0.00     0.000 HD 
ENDBRANCH  14  21
ENDBRANCH   8  12
TORSDOF 2
ENDMDL
MODEL      156
REMARK 921   NORMALIZED FREE ENERGY PREDICTED BY IDOCK:   -3.10 KCAL/MOL
REMARK 922        TOTAL FREE ENERGY PREDICTED BY IDOCK:   -3.44 KCAL/MOL
REMARK 923 INTER-LIGAND FREE ENERGY PREDICTED BY IDOCK:   -4.13 KCAL/MOL
REMARK 924 INTRA-LIGAND FREE ENERGY PREDICTED BY IDOCK:    0.69 KCAL/MOL
REMARK 927      BINDING AFFINITY PREDICTED BY RF-SCORE:    0.00 PKD
ROOT
HETATM    1  N   UNL     1      -9.000   8.520  65.069  1.00  0.00    -0.418 NA 
HETATM    2  H2  UNL     1      -8.090   8.761  64.674  1.00  0.00     0.000 HD 
HETATM    3  C   UNL     1      -9.238   8.709  66.388  1.00  0.00    -0.193 C  
HETATM    4  H1  UNL     1      -9.731   8.137  64.470  1.00  0.00     0.000 HD 
HETATM    5  N   UNL     1      -8.315   9.193  67.145  1.00  0.00    -0.116 N  
HETATM    6  C   UNL     1      -8.610   9.379  68.469  1.00  0.00    -0.123 C  
HETATM    7  H   UNL     1      -7.396   9.430  66.770  1.00  0.00     0.000 HD 
HETATM    8  N   UNL     1      -9.928   9.530  68.797  1.00  0.00    -0.169 N  
HETATM    9  O   UNL     1      -7.725   9.397  69.316  1.00  0.00    -0.077 OA 
HETATM   10  N   UNL     1     -10.459   8.352  66.852  1.00  0.00    -0.315 NA 
HETATM   11  C   UNL     1     -10.763   8.792  68.021  1.00  0.00    -0.090 C  
ENDROOT
BRANCH   8  12
HETATM   12  C1* UNL     1     -10.357   9.871  70.135  1.00  0.00    -0.282 C  
HETATM   13  O4* UNL     1      -9.568   9.068  71.044  1.00  0.00    -0.231 OA 
HETATM   14  C4* UNL     1     -10.312   7.858  71.332  1.00  0.00    -0.198 C  
HETATM   15  C3* UNL     1     -11.789   8.220  71.237  1.00  0.00    -0.288 C  
HETATM   16  H2* UNL     1     -13.108  10.419  71.880  1.00  0.00     0.000 HD 
HETATM   17  C2* UNL     1     -11.812   9.612  70.597  1.00  0.00    -0.256 C  
HETATM   18  O3* UNL     1     -12.372   8.197  72.542  1.00  0.00    -0.513 OA 
HETATM   19  O2* UNL     1     -12.215  10.578  71.596  1.00  0.00    -0.331 OA 
HETATM   20  H3* UNL     1     -13.293   8.424  72.483  1.00  0.00     0.000 HD 
BRANCH  14  21
HETATM   21  C5* UNL     1      -9.951   6.746  70.332  1.00  0.00    -0.179 C  
HETATM   22  O5* UNL     1     -11.108   5.994  69.980  1.00  0.00    -0.351 OA 
HETATM   23  H5* UNL     1     -10.884   5.307  69.363  1.00  0.00     0.000 HD 
ENDBRANCH  14  21
ENDBRANCH   8  12
TORSDOF 2
ENDMDL
MODEL      157
REMARK 921   NORMALIZED FREE ENERGY PREDICTED BY IDOCK:   -3.09 KCAL/MOL
REMARK 922        TOTAL FREE ENERGY PREDICTED BY IDOCK:   -3.43 KCAL/MOL
REMARK 923 INTER-LIGAND FREE ENERGY PREDICTED BY IDOCK:   -4.11 KCAL/MOL
REMARK 924 INTRA-LIGAND FREE ENERGY PREDICTED BY IDOCK:    0.68 KCAL/MOL
REMARK 927      BINDING AFFINITY PREDICTED BY RF-SCORE:    0.00 PKD
ROOT
HETATM    1  N   UNL     1     -11.323   6.649  67.026  1.00  0.00    -0.795 NA 
HETATM    2  H2  UNL     1     -11.184   5.880  66.369  1.00  0.00     0.000 HD 
HETATM    3  C   UNL     1     -10.659   7.815  66.855  1.00  0.00    -0.277 C  
HETATM    4  H1  UNL     1     -11.963   6.538  67.813  1.00  0.00     0.000 HD 
HETATM    5  N   UNL     1      -9.851   7.955  65.861  1.00  0.00    -0.384 N  
HETATM    6  C   UNL     1      -9.214   9.160  65.724  1.00  0.00    -0.234 C  
HETATM    7  H   UNL     1      -9.692   7.195  65.200  1.00  0.00     0.000 HD 
HETATM    8  N   UNL     1      -9.814  10.249  66.290  1.00  0.00    -0.208 N  
HETATM    9  O   UNL     1      -8.148   9.244  65.127  1.00  0.00    -0.114 OA 
HETATM   10  N   UNL     1     -10.873   8.788  67.773  1.00  0.00    -0.108 NA 
HETATM   11  C   UNL     1     -10.466   9.962  67.447  1.00  0.00    -0.267 C  
ENDROOT
BRANCH   8  12
HETATM   12  C1* UNL     1      -9.318  11.593  66.097  1.00  0.00    -0.224 C  
HETATM   13  O4* UNL     1      -7.878  11.528  66.228  1.00  0.00    -0.086 OA 
HETATM   14  C4* UNL     1      -7.541  11.820  67.608  1.00  0.00    -0.132 C  
HETATM   15  C3* UNL     1      -8.619  12.762  68.130  1.00  0.00    -0.185 C  
HETATM   16  H2* UNL     1      -9.969  14.713  66.964  1.00  0.00     0.000 HD 
HETATM   17  C2* UNL     1      -9.715  12.737  67.061  1.00  0.00    -0.224 C  
HETATM   18  O3* UNL     1      -8.061  14.064  68.326  1.00  0.00    -0.132 OA 
HETATM   19  O2* UNL     1      -9.725  14.011  66.372  1.00  0.00    -0.279 OA 
HETATM   20  H3* UNL     1      -8.733  14.652  68.652  1.00  0.00     0.000 HD 
BRANCH  14  21
HETATM   21  C5* UNL     1      -7.488  10.527  68.439  1.00  0.00    -0.092 C  
HETATM   22  O5* UNL     1      -7.983  10.757  69.754  1.00  0.00    -0.370 OA 
HETATM   23  H5* UNL     1      -7.950   9.958  70.268  1.00  0.00     0.000 HD 
ENDBRANCH  14  21
ENDBRANCH   8  12
TORSDOF 2
ENDMDL
MODEL      158
REMARK 921   NORMALIZED FREE ENERGY PREDICTED BY IDOCK:   -3.08 KCAL/MOL
REMARK 922        TOTAL FREE ENERGY PREDICTED BY IDOCK:   -3.42 KCAL/MOL
REMARK 923 INTER-LIGAND FREE ENERGY PREDICTED BY IDOCK:   -3.41 KCAL/MOL
REMARK 924 INTRA-LIGAND FREE ENERGY PREDICTED BY IDOCK:   -0.01 KCAL/MOL
REMARK 927      BINDING AFFINITY PREDICTED BY RF-SCORE:    0.00 PKD
ROOT
HETATM    1  N   UNL     1      -6.967   6.694  70.654  1.00  0.00    -0.062 NA 
HETATM    2  H2  UNL     1      -6.570   7.069  71.516  1.00  0.00     0.000 HD 
HETATM    3  C   UNL     1      -8.033   7.300  70.080  1.00  0.00    -0.117 C  
HETATM    4  H1  UNL     1      -6.562   5.864  70.223  1.00  0.00     0.000 HD 
HETATM    5  N   UNL     1      -8.545   8.350  70.624  1.00  0.00    -0.133 N  
HETATM    6  C   UNL     1      -9.613   8.935  69.997  1.00  0.00    -0.178 C  
HETATM    7  H   UNL     1      -8.167   8.732  71.491  1.00  0.00     0.000 HD 
HETATM    8  N   UNL     1      -9.744   8.714  68.654  1.00  0.00    -0.160 N  
HETATM    9  O   UNL     1     -10.416   9.616  70.623  1.00  0.00    -0.279 OA 
HETATM   10  N   UNL     1      -8.524   6.744  68.947  1.00  0.00    -0.120 NA 
HETATM   11  C   UNL     1      -9.336   7.475  68.272  1.00  0.00    -0.141 C  
ENDROOT
BRANCH   8  12
HETATM   12  C1* UNL     1     -10.743   9.385  67.854  1.00  0.00    -0.210 C  
HETATM   13  O4* UNL     1     -10.520   8.981  66.483  1.00  0.00    -0.234 OA 
HETATM   14  C4* UNL     1      -9.654   9.964  65.862  1.00  0.00    -0.239 C  
HETATM   15  C3* UNL     1      -9.941  11.293  66.549  1.00  0.00    -0.212 C  
HETATM   16  H2* UNL     1     -12.175  12.340  67.497  1.00  0.00     0.000 HD 
HETATM   17  C2* UNL     1     -10.791  10.930  67.769  1.00  0.00    -0.259 C  
HETATM   18  O3* UNL     1     -10.616  12.166  65.639  1.00  0.00    -0.246 OA 
HETATM   19  O2* UNL     1     -12.146  11.392  67.549  1.00  0.00    -0.592 OA 
HETATM   20  H3* UNL     1     -10.795  12.995  66.068  1.00  0.00     0.000 HD 
BRANCH  14  21
HETATM   21  C5* UNL     1      -8.177   9.567  66.023  1.00  0.00    -0.115 C  
HETATM   22  O5* UNL     1      -7.436  10.626  66.618  1.00  0.00    -0.115 OA 
HETATM   23  H5* UNL     1      -6.523  10.381  66.717  1.00  0.00     0.000 HD 
ENDBRANCH  14  21
ENDBRANCH   8  12
TORSDOF 2
ENDMDL
MODEL      159
REMARK 921   NORMALIZED FREE ENERGY PREDICTED BY IDOCK:   -3.04 KCAL/MOL
REMARK 922        TOTAL FREE ENERGY PREDICTED BY IDOCK:   -3.38 KCAL/MOL
REMARK 923 INTER-LIGAND FREE ENERGY PREDICTED BY IDOCK:   -3.91 KCAL/MOL
REMARK 924 INTRA-LIGAND FREE ENERGY PREDICTED BY IDOCK:    0.54 KCAL/MOL
REMARK 927      BINDING AFFINITY PREDICTED BY RF-SCORE:    0.00 PKD
ROOT
HETATM    1  N   UNL     1      -8.760  16.639  66.527  1.00  0.00    -0.255 NA 
HETATM    2  H2  UNL     1      -7.864  17.091  66.342  1.00  0.00     0.000 HD 
HETATM    3  C   UNL     1      -8.800  15.336  66.892  1.00  0.00    -0.254 C  
HETATM    4  H1  UNL     1      -9.627  17.168  66.437  1.00  0.00     0.000 HD 
HETATM    5  N   UNL     1      -7.704  14.668  67.006  1.00  0.00    -0.323 N  
HETATM    6  C   UNL     1      -7.796  13.357  67.393  1.00  0.00    -0.146 C  
HETATM    7  H   UNL     1      -6.800  15.100  66.816  1.00  0.00     0.000 HD 
HETATM    8  N   UNL     1      -8.909  12.993  68.097  1.00  0.00    -0.191 N  
HETATM    9  O   UNL     1      -6.919  12.552  67.105  1.00  0.00    -0.141 OA 
HETATM   10  N   UNL     1     -10.021  14.791  67.105  1.00  0.00    -0.234 NA 
HETATM   11  C   UNL     1     -10.029  13.660  67.714  1.00  0.00    -0.235 C  
ENDROOT
BRANCH   8  12
HETATM   12  C1* UNL     1      -9.059  11.678  68.681  1.00  0.00    -0.100 C  
HETATM   13  O4* UNL     1      -8.567  10.730  67.705  1.00  0.00    -0.122 OA 
HETATM   14  C4* UNL     1      -9.692  10.283  66.909  1.00  0.00    -0.186 C  
HETATM   15  C3* UNL     1     -10.917  10.345  67.813  1.00  0.00    -0.309 C  
HETATM   16  H2* UNL     1     -11.227   9.870  70.394  1.00  0.00     0.000 HD 
HETATM   17  C2* UNL     1     -10.456  11.123  69.048  1.00  0.00    -0.206 C  
HETATM   18  O3* UNL     1     -11.352   9.017  68.121  1.00  0.00    -0.322 OA 
HETATM   19  O2* UNL     1     -10.370  10.211  70.169  1.00  0.00    -0.270 OA 
HETATM   20  H3* UNL     1     -12.116   9.056  68.684  1.00  0.00     0.000 HD 
BRANCH  14  21
HETATM   21  C5* UNL     1      -9.874  11.178  65.672  1.00  0.00    -0.235 C  
HETATM   22  O5* UNL     1      -8.673  11.229  64.910  1.00  0.00    -0.383 OA 
HETATM   23  H5* UNL     1      -8.785  11.783  64.145  1.00  0.00     0.000 HD 
ENDBRANCH  14  21
ENDBRANCH   8  12
TORSDOF 2
ENDMDL
MODEL      160
REMARK 921   NORMALIZED FREE ENERGY PREDICTED BY IDOCK:   -3.03 KCAL/MOL
REMARK 922        TOTAL FREE ENERGY PREDICTED BY IDOCK:   -3.36 KCAL/MOL
REMARK 923 INTER-LIGAND FREE ENERGY PREDICTED BY IDOCK:   -4.04 KCAL/MOL
REMARK 924 INTRA-LIGAND FREE ENERGY PREDICTED BY IDOCK:    0.68 KCAL/MOL
REMARK 927      BINDING AFFINITY PREDICTED BY RF-SCORE:    0.00 PKD
ROOT
HETATM    1  N   UNL     1      -6.348  11.810  67.436  1.00  0.00    -0.099 NA 
HETATM    2  H2  UNL     1      -6.432  11.046  66.764  1.00  0.00     0.000 HD 
HETATM    3  C   UNL     1      -7.345  12.716  67.561  1.00  0.00    -0.151 C  
HETATM    4  H1  UNL     1      -5.512  11.890  68.015  1.00  0.00     0.000 HD 
HETATM    5  N   UNL     1      -8.402  12.614  66.829  1.00  0.00    -0.394 N  
HETATM    6  C   UNL     1      -9.389  13.548  67.003  1.00  0.00    -0.247 C  
HETATM    7  H   UNL     1      -8.499  11.864  66.145  1.00  0.00     0.000 HD 
HETATM    8  N   UNL     1      -9.439  14.181  68.214  1.00  0.00    -0.207 N  
HETATM    9  O   UNL     1     -10.179  13.804  66.104  1.00  0.00    -0.286 OA 
HETATM   10  N   UNL     1      -7.164  13.715  68.457  1.00  0.00    -0.103 NA 
HETATM   11  C   UNL     1      -8.214  14.389  68.763  1.00  0.00    -0.126 C  
ENDROOT
BRANCH   8  12
HETATM   12  C1* UNL     1     -10.513  15.081  68.571  1.00  0.00    -0.232 C  
HETATM   13  O4* UNL     1     -10.716  15.958  67.438  1.00  0.00    -0.312 OA 
HETATM   14  C4* UNL     1      -9.919  17.150  67.647  1.00  0.00    -0.283 C  
HETATM   15  C3* UNL     1      -9.832  17.357  69.154  1.00  0.00    -0.158 C  
HETATM   16  H2* UNL     1     -11.574  16.927  71.095  1.00  0.00     0.000 HD 
HETATM   17  C2* UNL     1     -10.372  16.059  69.761  1.00  0.00    -0.265 C  
HETATM   18  O3* UNL     1     -10.598  18.507  69.525  1.00  0.00    -0.227 OA 
HETATM   19  O2* UNL     1     -11.661  16.326  70.364  1.00  0.00    -0.322 OA 
HETATM   20  H3* UNL     1     -10.543  18.636  70.465  1.00  0.00     0.000 HD 
BRANCH  14  21
HETATM   21  C5* UNL     1      -8.520  16.985  67.031  1.00  0.00    -0.210 C  
HETATM   22  O5* UNL     1      -8.612  16.801  65.622  1.00  0.00    -0.415 OA 
HETATM   23  H5* UNL     1      -7.747  16.699  65.242  1.00  0.00     0.000 HD 
ENDBRANCH  14  21
ENDBRANCH   8  12
TORSDOF 2
ENDMDL
MODEL      161
REMARK 921   NORMALIZED FREE ENERGY PREDICTED BY IDOCK:   -3.02 KCAL/MOL
REMARK 922        TOTAL FREE ENERGY PREDICTED BY IDOCK:   -3.34 KCAL/MOL
REMARK 923 INTER-LIGAND FREE ENERGY PREDICTED BY IDOCK:   -4.44 KCAL/MOL
REMARK 924 INTRA-LIGAND FREE ENERGY PREDICTED BY IDOCK:    1.09 KCAL/MOL
REMARK 927      BINDING AFFINITY PREDICTED BY RF-SCORE:    0.00 PKD
ROOT
HETATM    1  N   UNL     1      -9.018  15.024  69.501  1.00  0.00    -0.435 NA 
HETATM    2  H2  UNL     1      -9.592  15.415  70.249  1.00  0.00     0.000 HD 
HETATM    3  C   UNL     1      -9.534  14.090  68.668  1.00  0.00    -0.142 C  
HETATM    4  H1  UNL     1      -8.054  15.335  69.381  1.00  0.00     0.000 HD 
HETATM    5  N   UNL     1     -10.752  13.697  68.820  1.00  0.00    -0.251 N  
HETATM    6  C   UNL     1     -11.233  12.762  67.942  1.00  0.00    -0.274 C  
HETATM    7  H   UNL     1     -11.338  14.070  69.568  1.00  0.00     0.000 HD 
HETATM    8  N   UNL     1     -10.624  12.684  66.721  1.00  0.00    -0.236 N  
HETATM    9  O   UNL     1     -12.160  12.025  68.252  1.00  0.00    -0.447 OA 
HETATM   10  N   UNL     1      -8.716  13.598  67.709  1.00  0.00    -0.172 NA 
HETATM   11  C   UNL     1      -9.291  12.938  66.768  1.00  0.00    -0.243 C  
ENDROOT
BRANCH   8  12
HETATM   12  C1* UNL     1     -11.126  11.840  65.660  1.00  0.00    -0.285 C  
HETATM   13  O4* UNL     1     -11.031  10.476  66.133  1.00  0.00    -0.037 OA 
HETATM   14  C4* UNL     1      -9.762   9.935  65.689  1.00  0.00    -0.279 C  
HETATM   15  C3* UNL     1      -9.425  10.635  64.378  1.00  0.00    -0.269 C  
HETATM   16  H2* UNL     1     -10.946  11.467  62.383  1.00  0.00     0.000 HD 
HETATM   17  C2* UNL     1     -10.425  11.790  64.281  1.00  0.00    -0.325 C  
HETATM   18  O3* UNL     1      -9.538   9.707  63.296  1.00  0.00    -0.512 OA 
HETATM   19  O2* UNL     1     -11.376  11.497  63.230  1.00  0.00    -0.317 OA 
HETATM   20  H3* UNL     1      -9.328  10.143  62.479  1.00  0.00     0.000 HD 
BRANCH  14  21
HETATM   21  C5* UNL     1      -8.668  10.179  66.742  1.00  0.00    -0.125 C  
HETATM   22  O5* UNL     1      -7.410   9.700  66.278  1.00  0.00    -0.092 OA 
HETATM   23  H5* UNL     1      -6.735   9.850  66.929  1.00  0.00     0.000 HD 
ENDBRANCH  14  21
ENDBRANCH   8  12
TORSDOF 2
ENDMDL
MODEL      162
REMARK 921   NORMALIZED FREE ENERGY PREDICTED BY IDOCK:   -2.99 KCAL/MOL
REMARK 922        TOTAL FREE ENERGY PREDICTED BY IDOCK:   -3.32 KCAL/MOL
REMARK 923 INTER-LIGAND FREE ENERGY PREDICTED BY IDOCK:   -3.36 KCAL/MOL
REMARK 924 INTRA-LIGAND FREE ENERGY PREDICTED BY IDOCK:    0.05 KCAL/MOL
REMARK 927      BINDING AFFINITY PREDICTED BY RF-SCORE:    0.00 PKD
ROOT
HETATM    1  N   UNL     1      -6.586   9.678  64.112  1.00  0.00    -0.106 NA 
HETATM    2  H2  UNL     1      -5.603   9.594  64.371  1.00  0.00     0.000 HD 
HETATM    3  C   UNL     1      -7.553   9.397  65.017  1.00  0.00    -0.109 C  
HETATM    4  H1  UNL     1      -6.842   9.974  63.170  1.00  0.00     0.000 HD 
HETATM    5  N   UNL     1      -7.229   9.024  66.207  1.00  0.00    -0.089 N  
HETATM    6  C   UNL     1      -8.243   8.766  67.091  1.00  0.00    -0.104 C  
HETATM    7  H   UNL     1      -6.251   8.925  66.482  1.00  0.00     0.000 HD 
HETATM    8  N   UNL     1      -9.444   9.376  66.855  1.00  0.00    -0.149 N  
HETATM    9  O   UNL     1      -8.075   8.011  68.040  1.00  0.00    -0.125 OA 
HETATM   10  N   UNL     1      -8.837   9.511  64.604  1.00  0.00    -0.204 NA 
HETATM   11  C   UNL     1      -9.724   9.518  65.534  1.00  0.00    -0.273 C  
ENDROOT
BRANCH   8  12
HETATM   12  C1* UNL     1     -10.546   9.297  67.787  1.00  0.00    -0.246 C  
HETATM   13  O4* UNL     1     -11.549  10.233  67.327  1.00  0.00    -0.142 OA 
HETATM   14  C4* UNL     1     -11.329  11.494  68.007  1.00  0.00    -0.298 C  
HETATM   15  C3* UNL     1     -10.728  11.157  69.366  1.00  0.00    -0.175 C  
HETATM   16  H2* UNL     1     -11.152   9.147  71.030  1.00  0.00     0.000 HD 
HETATM   17  C2* UNL     1     -10.361   9.673  69.277  1.00  0.00    -0.209 C  
HETATM   18  O3* UNL     1     -11.683  11.433  70.394  1.00  0.00    -0.387 OA 
HETATM   19  O2* UNL     1     -11.266   8.916  70.116  1.00  0.00    -0.238 OA 
HETATM   20  H3* UNL     1     -11.309  11.223  71.241  1.00  0.00     0.000 HD 
BRANCH  14  21
HETATM   21  C5* UNL     1     -10.384  12.394  67.194  1.00  0.00    -0.219 C  
HETATM   22  O5* UNL     1     -11.126  13.327  66.417  1.00  0.00    -0.290 OA 
HETATM   23  H5* UNL     1     -10.542  13.883  65.914  1.00  0.00     0.000 HD 
ENDBRANCH  14  21
ENDBRANCH   8  12
TORSDOF 2
ENDMDL
MODEL      163
REMARK 921   NORMALIZED FREE ENERGY PREDICTED BY IDOCK:   -2.98 KCAL/MOL
REMARK 922        TOTAL FREE ENERGY PREDICTED BY IDOCK:   -3.31 KCAL/MOL
REMARK 923 INTER-LIGAND FREE ENERGY PREDICTED BY IDOCK:   -4.18 KCAL/MOL
REMARK 924 INTRA-LIGAND FREE ENERGY PREDICTED BY IDOCK:    0.87 KCAL/MOL
REMARK 927      BINDING AFFINITY PREDICTED BY RF-SCORE:    0.00 PKD
ROOT
HETATM    1  N   UNL     1     -10.446   8.020  73.008  1.00  0.00    -0.333 NA 
HETATM    2  H2  UNL     1     -11.092   8.479  73.651  1.00  0.00     0.000 HD 
HETATM    3  C   UNL     1     -10.323   8.468  71.737  1.00  0.00    -0.284 C  
HETATM    4  H1  UNL     1      -9.891   7.224  73.322  1.00  0.00     0.000 HD 
HETATM    5  N   UNL     1     -11.023   9.474  71.339  1.00  0.00    -0.365 N  
HETATM    6  C   UNL     1     -10.852   9.899  70.048  1.00  0.00    -0.294 C  
HETATM    7  H   UNL     1     -11.681   9.939  71.965  1.00  0.00     0.000 HD 
HETATM    8  N   UNL     1      -9.660   9.600  69.448  1.00  0.00    -0.179 N  
HETATM    9  O   UNL     1     -11.738  10.508  69.463  1.00  0.00    -0.262 OA 
HETATM   10  N   UNL     1      -9.462   7.805  70.929  1.00  0.00    -0.160 NA 
HETATM   11  C   UNL     1      -9.150   8.402  69.835  1.00  0.00    -0.146 C  
ENDROOT
BRANCH   8  12
HETATM   12  C1* UNL     1      -9.303  10.111  68.144  1.00  0.00    -0.135 C  
HETATM   13  O4* UNL     1     -10.397   9.784  67.255  1.00  0.00    -0.217 OA 
HETATM   14  C4* UNL     1     -10.094   8.518  66.619  1.00  0.00    -0.294 C  
HETATM   15  C3* UNL     1      -8.576   8.432  66.518  1.00  0.00    -0.120 C  
HETATM   16  H2* UNL     1      -6.734  10.275  66.075  1.00  0.00     0.000 HD 
HETATM   17  C2* UNL     1      -8.059   9.579  67.392  1.00  0.00    -0.110 C  
HETATM   18  O3* UNL     1      -8.180   8.553  65.149  1.00  0.00    -0.135 OA 
HETATM   19  O2* UNL     1      -7.498  10.602  66.536  1.00  0.00    -0.120 OA 
HETATM   20  H3* UNL     1      -7.233   8.500  65.087  1.00  0.00     0.000 HD 
BRANCH  14  21
HETATM   21  C5* UNL     1     -10.659   7.347  67.440  1.00  0.00    -0.301 C  
HETATM   22  O5* UNL     1     -11.376   6.447  66.602  1.00  0.00    -0.726 OA 
HETATM   23  H5* UNL     1     -11.725   5.724  67.110  1.00  0.00     0.000 HD 
ENDBRANCH  14  21
ENDBRANCH   8  12
TORSDOF 2
ENDMDL
MODEL      164
REMARK 921   NORMALIZED FREE ENERGY PREDICTED BY IDOCK:   -2.98 KCAL/MOL
REMARK 922        TOTAL FREE ENERGY PREDICTED BY IDOCK:   -3.30 KCAL/MOL
REMARK 923 INTER-LIGAND FREE ENERGY PREDICTED BY IDOCK:   -4.24 KCAL/MOL
REMARK 924 INTRA-LIGAND FREE ENERGY PREDICTED BY IDOCK:    0.94 KCAL/MOL
REMARK 927      BINDING AFFINITY PREDICTED BY RF-SCORE:    0.00 PKD
ROOT
HETATM    1  N   UNL     1      -5.672  17.469  69.210  1.00  0.00    -0.193 NA 
HETATM    2  H2  UNL     1      -5.287  18.263  68.697  1.00  0.00     0.000 HD 
HETATM    3  C   UNL     1      -6.862  16.938  68.845  1.00  0.00    -0.209 C  
HETATM    4  H1  UNL     1      -5.159  17.073  69.998  1.00  0.00     0.000 HD 
HETATM    5  N   UNL     1      -7.510  17.438  67.849  1.00  0.00    -0.187 N  
HETATM    6  C   UNL     1      -8.703  16.856  67.510  1.00  0.00    -0.208 C  
HETATM    7  H   UNL     1      -7.146  18.238  67.331  1.00  0.00     0.000 HD 
HETATM    8  N   UNL     1      -8.884  15.551  67.872  1.00  0.00    -0.170 N  
HETATM    9  O   UNL     1      -9.566  17.490  66.917  1.00  0.00    -0.259 OA 
HETATM   10  N   UNL     1      -7.325  15.897  69.577  1.00  0.00    -0.206 NA 
HETATM   11  C   UNL     1      -8.296  15.236  69.056  1.00  0.00    -0.215 C  
ENDROOT
BRANCH   8  12
HETATM   12  C1* UNL     1     -10.036  14.785  67.452  1.00  0.00    -0.223 C  
HETATM   13  O4* UNL     1     -11.203  15.483  67.946  1.00  0.00    -0.319 OA 
HETATM   14  C4* UNL     1     -11.550  14.918  69.235  1.00  0.00    -0.306 C  
HETATM   15  C3* UNL     1     -11.115  13.459  69.203  1.00  0.00    -0.213 C  
HETATM   16  H2* UNL     1     -11.104  11.666  67.260  1.00  0.00     0.000 HD 
HETATM   17  C2* UNL     1     -10.251  13.333  67.944  1.00  0.00    -0.233 C  
HETATM   18  O3* UNL     1     -12.269  12.615  69.172  1.00  0.00    -0.191 OA 
HETATM   19  O2* UNL     1     -10.972  12.557  66.958  1.00  0.00    -0.251 OA 
HETATM   20  H3* UNL     1     -11.998  11.705  69.152  1.00  0.00     0.000 HD 
BRANCH  14  21
HETATM   21  C5* UNL     1     -10.846  15.679  70.370  1.00  0.00    -0.340 C  
HETATM   22  O5* UNL     1     -10.838  14.904  71.564  1.00  0.00    -0.513 OA 
HETATM   23  H5* UNL     1     -10.403  15.374  72.266  1.00  0.00     0.000 HD 
ENDBRANCH  14  21
ENDBRANCH   8  12
TORSDOF 2
ENDMDL
MODEL      165
REMARK 921   NORMALIZED FREE ENERGY PREDICTED BY IDOCK:   -2.97 KCAL/MOL
REMARK 922        TOTAL FREE ENERGY PREDICTED BY IDOCK:   -3.30 KCAL/MOL
REMARK 923 INTER-LIGAND FREE ENERGY PREDICTED BY IDOCK:   -3.29 KCAL/MOL
REMARK 924 INTRA-LIGAND FREE ENERGY PREDICTED BY IDOCK:   -0.00 KCAL/MOL
REMARK 927      BINDING AFFINITY PREDICTED BY RF-SCORE:    0.00 PKD
ROOT
HETATM    1  N   UNL     1     -11.764   8.961  70.467  1.00  0.00    -0.447 NA 
HETATM    2  H2  UNL     1     -12.055   9.129  71.431  1.00  0.00     0.000 HD 
HETATM    3  C   UNL     1     -11.337   9.991  69.699  1.00  0.00    -0.202 C  
HETATM    4  H1  UNL     1     -11.795   8.018  70.081  1.00  0.00     0.000 HD 
HETATM    5  N   UNL     1     -11.298  11.183  70.186  1.00  0.00    -0.456 N  
HETATM    6  C   UNL     1     -10.845  12.188  69.373  1.00  0.00     0.027 C  
HETATM    7  H   UNL     1     -11.594  11.371  71.144  1.00  0.00     0.000 HD 
HETATM    8  N   UNL     1     -10.022  11.831  68.343  1.00  0.00    -0.200 N  
HETATM    9  O   UNL     1     -11.178  13.351  69.564  1.00  0.00    -0.214 OA 
HETATM   10  N   UNL     1     -10.984   9.705  68.423  1.00  0.00    -0.163 NA 
HETATM   11  C   UNL     1     -10.325  10.620  67.807  1.00  0.00    -0.204 C  
ENDROOT
BRANCH   8  12
HETATM   12  C1* UNL     1      -9.366  12.808  67.502  1.00  0.00    -0.189 C  
HETATM   13  O4* UNL     1      -8.453  12.079  66.649  1.00  0.00    -0.180 OA 
HETATM   14  C4* UNL     1      -7.155  12.062  67.295  1.00  0.00    -0.149 C  
HETATM   15  C3* UNL     1      -7.058  13.344  68.112  1.00  0.00    -0.116 C  
HETATM   16  H2* UNL     1      -7.956  15.790  67.666  1.00  0.00     0.000 HD 
HETATM   17  C2* UNL     1      -8.478  13.918  68.114  1.00  0.00    -0.171 C  
HETATM   18  O3* UNL     1      -6.103  14.224  67.512  1.00  0.00    -0.328 OA 
HETATM   19  O2* UNL     1      -8.502  15.109  67.291  1.00  0.00    -0.169 OA 
HETATM   20  H3* UNL     1      -6.042  15.023  68.022  1.00  0.00     0.000 HD 
BRANCH  14  21
HETATM   21  C5* UNL     1      -7.010  10.823  68.193  1.00  0.00    -0.072 C  
HETATM   22  O5* UNL     1      -6.264  11.137  69.364  1.00  0.00    -0.061 OA 
HETATM   23  H5* UNL     1      -6.174  10.371  69.918  1.00  0.00     0.000 HD 
ENDBRANCH  14  21
ENDBRANCH   8  12
TORSDOF 2
ENDMDL
MODEL      166
REMARK 921   NORMALIZED FREE ENERGY PREDICTED BY IDOCK:   -2.97 KCAL/MOL
REMARK 922        TOTAL FREE ENERGY PREDICTED BY IDOCK:   -3.29 KCAL/MOL
REMARK 923 INTER-LIGAND FREE ENERGY PREDICTED BY IDOCK:   -3.36 KCAL/MOL
REMARK 924 INTRA-LIGAND FREE ENERGY PREDICTED BY IDOCK:    0.06 KCAL/MOL
REMARK 927      BINDING AFFINITY PREDICTED BY RF-SCORE:    0.00 PKD
ROOT
HETATM    1  N   UNL     1     -11.367  13.429  63.805  1.00  0.00    -0.592 NA 
HETATM    2  H2  UNL     1     -11.680  12.785  63.077  1.00  0.00     0.000 HD 
HETATM    3  C   UNL     1     -11.033  12.959  65.029  1.00  0.00    -0.297 C  
HETATM    4  H1  UNL     1     -11.305  14.428  63.610  1.00  0.00     0.000 HD 
HETATM    5  N   UNL     1     -11.111  11.696  65.275  1.00  0.00    -0.271 N  
HETATM    6  C   UNL     1     -10.748  11.268  66.524  1.00  0.00    -0.271 C  
HETATM    7  H   UNL     1     -11.431  11.039  64.564  1.00  0.00     0.000 HD 
HETATM    8  N   UNL     1      -9.885  12.062  67.228  1.00  0.00    -0.191 N  
HETATM    9  O   UNL     1     -11.190  10.224  66.986  1.00  0.00    -0.171 OA 
HETATM   10  N   UNL     1     -10.643  13.867  65.955  1.00  0.00    -0.287 NA 
HETATM   11  C   UNL     1     -10.069  13.388  67.000  1.00  0.00    -0.247 C  
ENDROOT
BRANCH   8  12
HETATM   12  C1* UNL     1      -9.318  11.655  68.494  1.00  0.00    -0.167 C  
HETATM   13  O4* UNL     1      -7.993  12.232  68.562  1.00  0.00    -0.140 OA 
HETATM   14  C4* UNL     1      -7.053  11.252  68.056  1.00  0.00    -0.070 C  
HETATM   15  C3* UNL     1      -7.636   9.882  68.375  1.00  0.00    -0.083 C  
HETATM   16  H2* UNL     1      -9.036   8.999  70.436  1.00  0.00     0.000 HD 
HETATM   17  C2* UNL     1      -9.076  10.160  68.816  1.00  0.00    -0.153 C  
HETATM   18  O3* UNL     1      -6.854   9.252  69.393  1.00  0.00    -0.047 OA 
HETATM   19  O2* UNL     1      -9.185   9.916  70.239  1.00  0.00    -0.215 OA 
HETATM   20  H3* UNL     1      -7.218   8.397  69.591  1.00  0.00     0.000 HD 
BRANCH  14  21
HETATM   21  C5* UNL     1      -6.847  11.426  66.543  1.00  0.00    -0.064 C  
HETATM   22  O5* UNL     1      -6.321  10.235  65.968  1.00  0.00    -0.086 OA 
HETATM   23  H5* UNL     1      -6.193  10.343  65.033  1.00  0.00     0.000 HD 
ENDBRANCH  14  21
ENDBRANCH   8  12
TORSDOF 2
ENDMDL
MODEL      167
REMARK 921   NORMALIZED FREE ENERGY PREDICTED BY IDOCK:   -2.92 KCAL/MOL
REMARK 922        TOTAL FREE ENERGY PREDICTED BY IDOCK:   -3.24 KCAL/MOL
REMARK 923 INTER-LIGAND FREE ENERGY PREDICTED BY IDOCK:   -3.21 KCAL/MOL
REMARK 924 INTRA-LIGAND FREE ENERGY PREDICTED BY IDOCK:   -0.03 KCAL/MOL
REMARK 927      BINDING AFFINITY PREDICTED BY RF-SCORE:    0.00 PKD
ROOT
HETATM    1  N   UNL     1     -10.762   7.100  74.100  1.00  0.00    -0.541 NA 
HETATM    2  H2  UNL     1     -11.094   8.064  74.160  1.00  0.00     0.000 HD 
HETATM    3  C   UNL     1     -10.758   6.458  72.909  1.00  0.00    -0.249 C  
HETATM    4  H1  UNL     1     -10.433   6.621  74.938  1.00  0.00     0.000 HD 
HETATM    5  N   UNL     1     -11.174   7.064  71.850  1.00  0.00    -0.242 N  
HETATM    6  C   UNL     1     -11.136   6.375  70.667  1.00  0.00    -0.317 C  
HETATM    7  H   UNL     1     -11.519   8.023  71.893  1.00  0.00     0.000 HD 
HETATM    8  N   UNL     1     -10.239   5.348  70.573  1.00  0.00    -0.236 N  
HETATM    9  O   UNL     1     -11.885   6.668  69.744  1.00  0.00    -0.299 OA 
HETATM   10  N   UNL     1     -10.323   5.176  72.900  1.00  0.00    -0.186 NA 
HETATM   11  C   UNL     1     -10.061   4.682  71.743  1.00  0.00    -0.191 C  
ENDROOT
BRANCH   8  12
HETATM   12  C1* UNL     1     -10.004   4.638  69.336  1.00  0.00    -0.179 C  
HETATM   13  O4* UNL     1      -8.710   4.003  69.459  1.00  0.00    -0.074 OA 
HETATM   14  C4* UNL     1      -7.718   4.899  68.898  1.00  0.00    -0.073 C  
HETATM   15  C3* UNL     1      -8.417   5.691  67.801  1.00  0.00    -0.102 C  
HETATM   16  H2* UNL     1     -10.298   5.022  66.069  1.00  0.00     0.000 HD 
HETATM   17  C2* UNL     1      -9.907   5.393  67.988  1.00  0.00    -0.144 C  
HETATM   18  O3* UNL     1      -7.923   5.280  66.523  1.00  0.00    -0.103 OA 
HETATM   19  O2* UNL     1     -10.358   4.558  66.896  1.00  0.00    -0.169 OA 
HETATM   20  H3* UNL     1      -8.359   5.774  65.839  1.00  0.00     0.000 HD 
BRANCH  14  21
HETATM   21  C5* UNL     1      -7.154   5.834  69.980  1.00  0.00    -0.067 C  
HETATM   22  O5* UNL     1      -6.744   5.089  71.122  1.00  0.00    -0.036 OA 
HETATM   23  H5* UNL     1      -6.396   5.667  71.791  1.00  0.00     0.000 HD 
ENDBRANCH  14  21
ENDBRANCH   8  12
TORSDOF 2
ENDMDL
MODEL      168
REMARK 921   NORMALIZED FREE ENERGY PREDICTED BY IDOCK:   -2.91 KCAL/MOL
REMARK 922        TOTAL FREE ENERGY PREDICTED BY IDOCK:   -3.23 KCAL/MOL
REMARK 923 INTER-LIGAND FREE ENERGY PREDICTED BY IDOCK:   -3.91 KCAL/MOL
REMARK 924 INTRA-LIGAND FREE ENERGY PREDICTED BY IDOCK:    0.68 KCAL/MOL
REMARK 927      BINDING AFFINITY PREDICTED BY RF-SCORE:    0.00 PKD
ROOT
HETATM    1  N   UNL     1     -11.378   6.689  70.541  1.00  0.00    -0.332 NA 
HETATM    2  H2  UNL     1     -11.456   5.731  70.198  1.00  0.00     0.000 HD 
HETATM    3  C   UNL     1     -11.022   7.685  69.697  1.00  0.00    -0.137 C  
HETATM    4  H1  UNL     1     -11.569   6.898  71.521  1.00  0.00     0.000 HD 
HETATM    5  N   UNL     1     -10.780   7.422  68.459  1.00  0.00    -0.373 N  
HETATM    6  C   UNL     1     -10.437   8.466  67.641  1.00  0.00    -0.239 C  
HETATM    7  H   UNL     1     -10.843   6.469  68.100  1.00  0.00     0.000 HD 
HETATM    8  N   UNL     1     -10.849   9.714  68.020  1.00  0.00    -0.228 N  
HETATM    9  O   UNL     1      -9.781   8.281  66.625  1.00  0.00    -0.210 OA 
HETATM   10  N   UNL     1     -10.918   8.930  70.219  1.00  0.00    -0.241 NA 
HETATM   11  C   UNL     1     -10.859   9.890  69.367  1.00  0.00    -0.237 C  
ENDROOT
BRANCH   8  12
HETATM   12  C1* UNL     1     -10.673  10.875  67.176  1.00  0.00    -0.270 C  
HETATM   13  O4* UNL     1      -9.338  10.789  66.623  1.00  0.00    -0.162 OA 
HETATM   14  C4* UNL     1      -8.446  11.534  67.489  1.00  0.00    -0.143 C  
HETATM   15  C3* UNL     1      -9.274  12.653  68.108  1.00  0.00    -0.209 C  
HETATM   16  H2* UNL     1     -11.245  14.127  67.145  1.00  0.00     0.000 HD 
HETATM   17  C2* UNL     1     -10.725  12.305  67.766  1.00  0.00    -0.217 C  
HETATM   18  O3* UNL     1      -8.860  13.911  67.568  1.00  0.00    -0.175 OA 
HETATM   19  O2* UNL     1     -11.213  13.249  66.783  1.00  0.00    -0.289 OA 
HETATM   20  H3* UNL     1      -9.377  14.608  67.955  1.00  0.00     0.000 HD 
BRANCH  14  21
HETATM   21  C5* UNL     1      -7.853  10.621  68.574  1.00  0.00    -0.115 C  
HETATM   22  O5* UNL     1      -7.682  11.336  69.792  1.00  0.00    -0.332 OA 
HETATM   23  H5* UNL     1      -7.314  10.772  70.463  1.00  0.00     0.000 HD 
ENDBRANCH  14  21
ENDBRANCH   8  12
TORSDOF 2
ENDMDL
MODEL      169
REMARK 921   NORMALIZED FREE ENERGY PREDICTED BY IDOCK:   -2.91 KCAL/MOL
REMARK 922        TOTAL FREE ENERGY PREDICTED BY IDOCK:   -3.23 KCAL/MOL
REMARK 923 INTER-LIGAND FREE ENERGY PREDICTED BY IDOCK:   -3.24 KCAL/MOL
REMARK 924 INTRA-LIGAND FREE ENERGY PREDICTED BY IDOCK:    0.01 KCAL/MOL
REMARK 927      BINDING AFFINITY PREDICTED BY RF-SCORE:    0.00 PKD
ROOT
HETATM    1  N   UNL     1      -9.323  12.484  68.868  1.00  0.00    -0.382 NA 
HETATM    2  H2  UNL     1      -8.347  12.772  68.784  1.00  0.00     0.000 HD 
HETATM    3  C   UNL     1      -9.642  11.169  68.888  1.00  0.00    -0.142 C  
HETATM    4  H1  UNL     1     -10.059  13.187  68.937  1.00  0.00     0.000 HD 
HETATM    5  N   UNL     1      -8.712  10.281  68.801  1.00  0.00    -0.135 N  
HETATM    6  C   UNL     1      -9.085   8.963  68.841  1.00  0.00    -0.140 C  
HETATM    7  H   UNL     1      -7.733  10.550  68.707  1.00  0.00     0.000 HD 
HETATM    8  N   UNL     1     -10.271   8.670  69.454  1.00  0.00    -0.206 N  
HETATM    9  O   UNL     1      -8.384   8.095  68.336  1.00  0.00    -0.124 OA 
HETATM   10  N   UNL     1     -10.955  10.853  68.982  1.00  0.00    -0.217 NA 
HETATM   11  C   UNL     1     -11.216   9.631  69.281  1.00  0.00    -0.047 C  
ENDROOT
BRANCH   8  12
HETATM   12  C1* UNL     1     -10.707   7.311  69.684  1.00  0.00    -0.236 C  
HETATM   13  O4* UNL     1     -11.453   7.318  70.924  1.00  0.00    -0.275 OA 
HETATM   14  C4* UNL     1     -10.537   6.992  71.999  1.00  0.00    -0.211 C  
HETATM   15  C3* UNL     1      -9.469   6.084  71.401  1.00  0.00    -0.156 C  
HETATM   16  H2* UNL     1      -9.590   4.206  69.545  1.00  0.00     0.000 HD 
HETATM   17  C2* UNL     1      -9.683   6.169  69.887  1.00  0.00    -0.163 C  
HETATM   18  O3* UNL     1      -9.626   4.758  71.913  1.00  0.00    -0.142 OA 
HETATM   19  O2* UNL     1     -10.219   4.908  69.420  1.00  0.00    -0.223 OA 
HETATM   20  H3* UNL     1      -8.960   4.192  71.540  1.00  0.00     0.000 HD 
BRANCH  14  21
HETATM   21  C5* UNL     1      -9.911   8.267  72.586  1.00  0.00    -0.287 C  
HETATM   22  O5* UNL     1      -8.510   8.097  72.775  1.00  0.00    -0.156 OA 
HETATM   23  H5* UNL     1      -8.124   8.886  73.138  1.00  0.00     0.000 HD 
ENDBRANCH  14  21
ENDBRANCH   8  12
TORSDOF 2
ENDMDL
MODEL      170
REMARK 921   NORMALIZED FREE ENERGY PREDICTED BY IDOCK:   -2.91 KCAL/MOL
REMARK 922        TOTAL FREE ENERGY PREDICTED BY IDOCK:   -3.23 KCAL/MOL
REMARK 923 INTER-LIGAND FREE ENERGY PREDICTED BY IDOCK:   -3.86 KCAL/MOL
REMARK 924 INTRA-LIGAND FREE ENERGY PREDICTED BY IDOCK:    0.64 KCAL/MOL
REMARK 927      BINDING AFFINITY PREDICTED BY RF-SCORE:    0.00 PKD
ROOT
HETATM    1  N   UNL     1     -10.418  20.255  68.964  1.00  0.00    -0.377 NA 
HETATM    2  H2  UNL     1     -10.146  20.498  69.918  1.00  0.00     0.000 HD 
HETATM    3  C   UNL     1     -10.334  18.972  68.542  1.00  0.00    -0.264 C  
HETATM    4  H1  UNL     1     -10.752  20.979  68.329  1.00  0.00     0.000 HD 
HETATM    5  N   UNL     1      -9.912  18.057  69.345  1.00  0.00    -0.095 N  
HETATM    6  C   UNL     1      -9.859  16.772  68.875  1.00  0.00    -0.264 C  
HETATM    7  H   UNL     1      -9.627  18.283  70.299  1.00  0.00     0.000 HD 
HETATM    8  N   UNL     1     -10.689  16.456  67.836  1.00  0.00    -0.326 N  
HETATM    9  O   UNL     1      -9.091  15.953  69.364  1.00  0.00    -0.250 OA 
HETATM   10  N   UNL     1     -10.692  18.719  67.261  1.00  0.00    -0.446 NA 
HETATM   11  C   UNL     1     -10.876  17.482  66.966  1.00  0.00    -0.054 C  
ENDROOT
BRANCH   8  12
HETATM   12  C1* UNL     1     -10.830  15.103  67.344  1.00  0.00    -0.302 C  
HETATM   13  O4* UNL     1      -9.500  14.535  67.300  1.00  0.00    -0.206 OA 
HETATM   14  C4* UNL     1      -8.966  14.748  65.970  1.00  0.00     0.108 C  
HETATM   15  C3* UNL     1     -10.155  14.753  65.018  1.00  0.00    -0.273 C  
HETATM   16  H2* UNL     1     -12.414  13.380  65.014  1.00  0.00     0.000 HD 
HETATM   17  C2* UNL     1     -11.386  14.824  65.926  1.00  0.00    -0.331 C  
HETATM   18  O3* UNL     1     -10.126  13.573  64.210  1.00  0.00    -0.705 OA 
HETATM   19  O2* UNL     1     -12.073  13.551  65.884  1.00  0.00    -0.384 OA 
HETATM   20  H3* UNL     1     -10.868  13.576  63.617  1.00  0.00     0.000 HD 
BRANCH  14  21
HETATM   21  C5* UNL     1      -8.197  16.078  65.899  1.00  0.00     0.495 C  
HETATM   22  O5* UNL     1      -7.041  16.033  66.730  1.00  0.00    -0.188 OA 
HETATM   23  H5* UNL     1      -6.567  16.855  66.686  1.00  0.00     0.000 HD 
ENDBRANCH  14  21
ENDBRANCH   8  12
TORSDOF 2
ENDMDL
MODEL      171
REMARK 921   NORMALIZED FREE ENERGY PREDICTED BY IDOCK:   -2.91 KCAL/MOL
REMARK 922        TOTAL FREE ENERGY PREDICTED BY IDOCK:   -3.22 KCAL/MOL
REMARK 923 INTER-LIGAND FREE ENERGY PREDICTED BY IDOCK:   -4.21 KCAL/MOL
REMARK 924 INTRA-LIGAND FREE ENERGY PREDICTED BY IDOCK:    0.99 KCAL/MOL
REMARK 927      BINDING AFFINITY PREDICTED BY RF-SCORE:    0.00 PKD
ROOT
HETATM    1  N   UNL     1     -11.411   6.691  66.831  1.00  0.00    -0.767 NA 
HETATM    2  H2  UNL     1     -12.399   6.944  66.875  1.00  0.00     0.000 HD 
HETATM    3  C   UNL     1     -10.571   7.065  67.825  1.00  0.00    -0.233 C  
HETATM    4  H1  UNL     1     -11.056   6.156  66.039  1.00  0.00     0.000 HD 
HETATM    5  N   UNL     1     -11.020   7.741  68.825  1.00  0.00    -0.421 N  
HETATM    6  C   UNL     1     -10.134   8.083  69.812  1.00  0.00    -0.196 C  
HETATM    7  H   UNL     1     -12.003   8.012  68.881  1.00  0.00     0.000 HD 
HETATM    8  N   UNL     1      -9.019   7.303  69.943  1.00  0.00    -0.142 N  
HETATM    9  O   UNL     1     -10.334   9.053  70.531  1.00  0.00    -0.193 OA 
HETATM   10  N   UNL     1      -9.270   6.714  67.698  1.00  0.00    -0.112 NA 
HETATM   11  C   UNL     1      -8.555   6.824  68.760  1.00  0.00    -0.123 C  
ENDROOT
BRANCH   8  12
HETATM   12  C1* UNL     1      -8.081   7.473  71.030  1.00  0.00    -0.100 C  
HETATM   13  O4* UNL     1      -8.224   6.317  71.889  1.00  0.00    -0.109 OA 
HETATM   14  C4* UNL     1      -9.178   6.648  72.929  1.00  0.00    -0.135 C  
HETATM   15  C3* UNL     1      -9.057   8.147  73.170  1.00  0.00    -0.265 C  
HETATM   16  H2* UNL     1      -6.978   9.778  73.123  1.00  0.00     0.000 HD 
HETATM   17  C2* UNL     1      -8.202   8.665  72.010  1.00  0.00    -0.084 C  
HETATM   18  O3* UNL     1      -8.461   8.380  74.449  1.00  0.00    -0.346 OA 
HETATM   19  O2* UNL     1      -6.903   9.046  72.521  1.00  0.00    -0.313 OA 
HETATM   20  H3* UNL     1      -8.386   9.316  74.599  1.00  0.00     0.000 HD 
BRANCH  14  21
HETATM   21  C5* UNL     1     -10.605   6.271  72.498  1.00  0.00    -0.212 C  
HETATM   22  O5* UNL     1     -11.313   5.673  73.578  1.00  0.00    -0.462 OA 
HETATM   23  H5* UNL     1     -12.195   5.440  73.312  1.00  0.00     0.000 HD 
ENDBRANCH  14  21
ENDBRANCH   8  12
TORSDOF 2
ENDMDL
MODEL      172
REMARK 921   NORMALIZED FREE ENERGY PREDICTED BY IDOCK:   -2.90 KCAL/MOL
REMARK 922        TOTAL FREE ENERGY PREDICTED BY IDOCK:   -3.22 KCAL/MOL
REMARK 923 INTER-LIGAND FREE ENERGY PREDICTED BY IDOCK:   -3.15 KCAL/MOL
REMARK 924 INTRA-LIGAND FREE ENERGY PREDICTED BY IDOCK:   -0.07 KCAL/MOL
REMARK 927      BINDING AFFINITY PREDICTED BY RF-SCORE:    0.00 PKD
ROOT
HETATM    1  N   UNL     1     -10.268   2.647  72.949  1.00  0.00    -0.141 NA 
HETATM    2  H2  UNL     1     -10.768   1.870  72.516  1.00  0.00     0.000 HD 
HETATM    3  C   UNL     1      -9.748   3.631  72.179  1.00  0.00    -0.163 C  
HETATM    4  H1  UNL     1     -10.161   2.684  73.962  1.00  0.00     0.000 HD 
HETATM    5  N   UNL     1      -9.884   3.585  70.898  1.00  0.00    -0.136 N  
HETATM    6  C   UNL     1      -9.352   4.612  70.164  1.00  0.00    -0.144 C  
HETATM    7  H   UNL     1     -10.372   2.811  70.447  1.00  0.00     0.000 HD 
HETATM    8  N   UNL     1      -9.179   5.808  70.803  1.00  0.00    -0.151 N  
HETATM    9  O   UNL     1      -9.038   4.452  68.992  1.00  0.00    -0.108 OA 
HETATM   10  N   UNL     1      -9.081   4.624  72.813  1.00  0.00    -0.122 NA 
HETATM   11  C   UNL     1      -8.844   5.675  72.112  1.00  0.00    -0.137 C  
ENDROOT
BRANCH   8  12
HETATM   12  C1* UNL     1      -8.760   7.003  70.105  1.00  0.00    -0.141 C  
HETATM   13  O4* UNL     1      -9.299   8.126  70.841  1.00  0.00    -0.147 OA 
HETATM   14  C4* UNL     1     -10.577   8.474  70.252  1.00  0.00    -0.226 C  
HETATM   15  C3* UNL     1     -10.491   8.109  68.775  1.00  0.00    -0.174 C  
HETATM   16  H2* UNL     1      -8.494   8.221  67.047  1.00  0.00     0.000 HD 
HETATM   17  C2* UNL     1      -9.211   7.277  68.650  1.00  0.00    -0.136 C  
HETATM   18  O3* UNL     1     -10.458   9.303  67.988  1.00  0.00    -0.211 OA 
HETATM   19  O2* UNL     1      -8.217   8.053  67.940  1.00  0.00    -0.126 OA 
HETATM   20  H3* UNL     1     -10.404   9.074  67.067  1.00  0.00     0.000 HD 
BRANCH  14  21
HETATM   21  C5* UNL     1     -11.720   7.713  70.943  1.00  0.00    -0.271 C  
HETATM   22  O5* UNL     1     -12.411   6.890  70.009  1.00  0.00    -0.619 OA 
HETATM   23  H5* UNL     1     -13.118   6.420  70.436  1.00  0.00     0.000 HD 
ENDBRANCH  14  21
ENDBRANCH   8  12
TORSDOF 2
ENDMDL
MODEL      173
REMARK 921   NORMALIZED FREE ENERGY PREDICTED BY IDOCK:   -2.89 KCAL/MOL
REMARK 922        TOTAL FREE ENERGY PREDICTED BY IDOCK:   -3.21 KCAL/MOL
REMARK 923 INTER-LIGAND FREE ENERGY PREDICTED BY IDOCK:   -3.23 KCAL/MOL
REMARK 924 INTRA-LIGAND FREE ENERGY PREDICTED BY IDOCK:    0.02 KCAL/MOL
REMARK 927      BINDING AFFINITY PREDICTED BY RF-SCORE:    0.00 PKD
ROOT
HETATM    1  N   UNL     1     -10.408  10.094  70.684  1.00  0.00    -0.374 NA 
HETATM    2  H2  UNL     1     -11.343  10.456  70.876  1.00  0.00     0.000 HD 
HETATM    3  C   UNL     1      -9.956   9.001  71.342  1.00  0.00    -0.318 C  
HETATM    4  H1  UNL     1      -9.814  10.555  69.995  1.00  0.00     0.000 HD 
HETATM    5  N   UNL     1     -10.708   8.418  72.212  1.00  0.00    -0.327 N  
HETATM    6  C   UNL     1     -10.210   7.308  72.841  1.00  0.00    -0.244 C  
HETATM    7  H   UNL     1     -11.641   8.772  72.424  1.00  0.00     0.000 HD 
HETATM    8  N   UNL     1      -9.231   6.611  72.190  1.00  0.00    -0.139 N  
HETATM    9  O   UNL     1     -10.623   6.969  73.942  1.00  0.00    -0.371 OA 
HETATM   10  N   UNL     1      -8.701   8.582  71.055  1.00  0.00    -0.157 NA 
HETATM   11  C   UNL     1      -8.397   7.404  71.468  1.00  0.00    -0.108 C  
ENDROOT
BRANCH   8  12
HETATM   12  C1* UNL     1      -8.724   5.349  72.680  1.00  0.00    -0.123 C  
HETATM   13  O4* UNL     1      -8.079   4.696  71.562  1.00  0.00    -0.097 OA 
HETATM   14  C4* UNL     1      -9.052   3.828  70.929  1.00  0.00    -0.111 C  
HETATM   15  C3* UNL     1     -10.007   3.371  72.024  1.00  0.00    -0.152 C  
HETATM   16  H2* UNL     1      -9.617   2.794  74.574  1.00  0.00     0.000 HD 
HETATM   17  C2* UNL     1      -9.682   4.263  73.226  1.00  0.00    -0.126 C  
HETATM   18  O3* UNL     1      -9.802   1.981  72.290  1.00  0.00    -0.113 OA 
HETATM   19  O2* UNL     1      -9.029   3.461  74.239  1.00  0.00    -0.086 OA 
HETATM   20  H3* UNL     1     -10.398   1.697  72.973  1.00  0.00     0.000 HD 
BRANCH  14  21
HETATM   21  C5* UNL     1      -9.806   4.576  69.816  1.00  0.00    -0.225 C  
HETATM   22  O5* UNL     1      -9.657   3.903  68.571  1.00  0.00    -0.160 OA 
HETATM   23  H5* UNL     1     -10.123   4.366  67.883  1.00  0.00     0.000 HD 
ENDBRANCH  14  21
ENDBRANCH   8  12
TORSDOF 2
ENDMDL
MODEL      174
REMARK 921   NORMALIZED FREE ENERGY PREDICTED BY IDOCK:   -2.88 KCAL/MOL
REMARK 922        TOTAL FREE ENERGY PREDICTED BY IDOCK:   -3.19 KCAL/MOL
REMARK 923 INTER-LIGAND FREE ENERGY PREDICTED BY IDOCK:   -3.36 KCAL/MOL
REMARK 924 INTRA-LIGAND FREE ENERGY PREDICTED BY IDOCK:    0.16 KCAL/MOL
REMARK 927      BINDING AFFINITY PREDICTED BY RF-SCORE:    0.00 PKD
ROOT
HETATM    1  N   UNL     1     -11.139   9.262  67.843  1.00  0.00    -0.493 NA 
HETATM    2  H2  UNL     1     -11.827   8.686  67.356  1.00  0.00     0.000 HD 
HETATM    3  C   UNL     1     -10.817   8.991  69.129  1.00  0.00    -0.089 C  
HETATM    4  H1  UNL     1     -10.693  10.042  67.361  1.00  0.00     0.000 HD 
HETATM    5  N   UNL     1     -11.381   8.005  69.738  1.00  0.00    -0.452 N  
HETATM    6  C   UNL     1     -11.011   7.762  71.035  1.00  0.00    -0.244 C  
HETATM    7  H   UNL     1     -12.078   7.425  69.271  1.00  0.00     0.000 HD 
HETATM    8  N   UNL     1      -9.777   8.206  71.423  1.00  0.00    -0.164 N  
HETATM    9  O   UNL     1     -11.763   7.182  71.807  1.00  0.00    -0.267 OA 
HETATM   10  N   UNL     1      -9.912   9.803  69.724  1.00  0.00    -0.222 NA 
HETATM   11  C   UNL     1      -9.414   9.372  70.828  1.00  0.00    -0.241 C  
ENDROOT
BRANCH   8  12
HETATM   12  C1* UNL     1      -9.215   7.891  72.717  1.00  0.00    -0.221 C  
HETATM   13  O4* UNL     1      -7.952   8.593  72.804  1.00  0.00    -0.370 OA 
HETATM   14  C4* UNL     1      -6.909   7.692  72.357  1.00  0.00    -0.063 C  
HETATM   15  C3* UNL     1      -7.371   6.282  72.702  1.00  0.00    -0.085 C  
HETATM   16  H2* UNL     1      -8.746   5.331  74.750  1.00  0.00     0.000 HD 
HETATM   17  C2* UNL     1      -8.844   6.436  73.093  1.00  0.00    -0.129 C  
HETATM   18  O3* UNL     1      -6.565   5.760  73.762  1.00  0.00    -0.075 OA 
HETATM   19  O2* UNL     1      -8.974   6.224  74.519  1.00  0.00    -0.135 OA 
HETATM   20  H3* UNL     1      -6.854   4.880  73.977  1.00  0.00     0.000 HD 
BRANCH  14  21
HETATM   21  C5* UNL     1      -6.673   7.841  70.845  1.00  0.00    -0.038 C  
HETATM   22  O5* UNL     1      -7.108   6.676  70.153  1.00  0.00    -0.070 OA 
HETATM   23  H5* UNL     1      -6.961   6.768  69.218  1.00  0.00     0.000 HD 
ENDBRANCH  14  21
ENDBRANCH   8  12
TORSDOF 2
ENDMDL
MODEL      175
REMARK 921   NORMALIZED FREE ENERGY PREDICTED BY IDOCK:   -2.87 KCAL/MOL
REMARK 922        TOTAL FREE ENERGY PREDICTED BY IDOCK:   -3.18 KCAL/MOL
REMARK 923 INTER-LIGAND FREE ENERGY PREDICTED BY IDOCK:   -3.34 KCAL/MOL
REMARK 924 INTRA-LIGAND FREE ENERGY PREDICTED BY IDOCK:    0.16 KCAL/MOL
REMARK 927      BINDING AFFINITY PREDICTED BY RF-SCORE:    0.00 PKD
ROOT
HETATM    1  N   UNL     1      -6.468   8.585  67.586  1.00  0.00    -0.057 NA 
HETATM    2  H2  UNL     1      -6.527   8.038  66.726  1.00  0.00     0.000 HD 
HETATM    3  C   UNL     1      -7.565   8.746  68.363  1.00  0.00    -0.095 C  
HETATM    4  H1  UNL     1      -5.583   9.010  67.861  1.00  0.00     0.000 HD 
HETATM    5  N   UNL     1      -8.683   8.208  68.016  1.00  0.00    -0.129 N  
HETATM    6  C   UNL     1      -9.760   8.387  68.843  1.00  0.00    -0.167 C  
HETATM    7  H   UNL     1      -8.763   7.667  67.154  1.00  0.00     0.000 HD 
HETATM    8  N   UNL     1      -9.496   8.657  70.157  1.00  0.00    -0.161 N  
HETATM    9  O   UNL     1     -10.904   8.319  68.412  1.00  0.00    -0.070 OA 
HETATM   10  N   UNL     1      -7.425   9.497  69.481  1.00  0.00    -0.084 NA 
HETATM   11  C   UNL     1      -8.378   9.407  70.338  1.00  0.00    -0.205 C  
ENDROOT
BRANCH   8  12
HETATM   12  C1* UNL     1     -10.540   8.728  71.155  1.00  0.00    -0.241 C  
HETATM   13  O4* UNL     1     -10.034   8.058  72.335  1.00  0.00    -0.204 OA 
HETATM   14  C4* UNL     1     -10.460   6.674  72.280  1.00  0.00    -0.205 C  
HETATM   15  C3* UNL     1     -11.784   6.654  71.528  1.00  0.00    -0.321 C  
HETATM   16  H2* UNL     1     -13.806   8.357  71.476  1.00  0.00     0.000 HD 
HETATM   17  C2* UNL     1     -11.914   8.055  70.922  1.00  0.00    -0.189 C  
HETATM   18  O3* UNL     1     -12.845   6.339  72.435  1.00  0.00    -0.546 OA 
HETATM   19  O2* UNL     1     -12.962   8.770  71.619  1.00  0.00    -0.325 OA 
HETATM   20  H3* UNL     1     -13.671   6.327  71.966  1.00  0.00     0.000 HD 
BRANCH  14  21
HETATM   21  C5* UNL     1      -9.407   5.809  71.567  1.00  0.00    -0.146 C  
HETATM   22  O5* UNL     1      -9.994   4.608  71.078  1.00  0.00    -0.192 OA 
HETATM   23  H5* UNL     1      -9.344   4.073  70.638  1.00  0.00     0.000 HD 
ENDBRANCH  14  21
ENDBRANCH   8  12
TORSDOF 2
ENDMDL
MODEL      176
REMARK 921   NORMALIZED FREE ENERGY PREDICTED BY IDOCK:   -2.86 KCAL/MOL
REMARK 922        TOTAL FREE ENERGY PREDICTED BY IDOCK:   -3.17 KCAL/MOL
REMARK 923 INTER-LIGAND FREE ENERGY PREDICTED BY IDOCK:   -3.19 KCAL/MOL
REMARK 924 INTRA-LIGAND FREE ENERGY PREDICTED BY IDOCK:    0.02 KCAL/MOL
REMARK 927      BINDING AFFINITY PREDICTED BY RF-SCORE:    0.00 PKD
ROOT
HETATM    1  N   UNL     1      -7.776   2.687  71.007  1.00  0.00    -0.039 NA 
HETATM    2  H2  UNL     1      -6.812   2.431  70.791  1.00  0.00     0.000 HD 
HETATM    3  C   UNL     1      -8.221   3.937  70.740  1.00  0.00    -0.066 C  
HETATM    4  H1  UNL     1      -8.405   2.002  71.424  1.00  0.00     0.000 HD 
HETATM    5  N   UNL     1      -7.426   4.803  70.213  1.00  0.00    -0.050 N  
HETATM    6  C   UNL     1      -7.928   6.050  69.949  1.00  0.00    -0.113 C  
HETATM    7  H   UNL     1      -6.456   4.568  69.999  1.00  0.00     0.000 HD 
HETATM    8  N   UNL     1      -9.280   6.153  69.777  1.00  0.00    -0.144 N  
HETATM    9  O   UNL     1      -7.190   7.025  69.882  1.00  0.00    -0.075 OA 
HETATM   10  N   UNL     1      -9.504   4.219  71.067  1.00  0.00    -0.152 NA 
HETATM   11  C   UNL     1      -9.987   5.296  70.559  1.00  0.00    -0.229 C  
ENDROOT
BRANCH   8  12
HETATM   12  C1* UNL     1      -9.914   7.382  69.357  1.00  0.00    -0.176 C  
HETATM   13  O4* UNL     1     -11.199   7.018  68.799  1.00  0.00    -0.083 OA 
HETATM   14  C4* UNL     1     -11.033   6.852  67.369  1.00  0.00    -0.304 C  
HETATM   15  C3* UNL     1      -9.916   7.797  66.946  1.00  0.00    -0.261 C  
HETATM   16  H2* UNL     1      -9.234  10.208  67.789  1.00  0.00     0.000 HD 
HETATM   17  C2* UNL     1      -9.284   8.270  68.258  1.00  0.00    -0.134 C  
HETATM   18  O3* UNL     1     -10.462   8.869  66.172  1.00  0.00    -0.260 OA 
HETATM   19  O2* UNL     1      -9.621   9.663  68.464  1.00  0.00    -0.143 OA 
HETATM   20  H3* UNL     1      -9.765   9.458  65.909  1.00  0.00     0.000 HD 
BRANCH  14  21
HETATM   21  C5* UNL     1     -10.682   5.395  67.027  1.00  0.00    -0.152 C  
HETATM   22  O5* UNL     1     -11.251   5.022  65.776  1.00  0.00    -0.804 OA 
HETATM   23  H5* UNL     1     -11.034   4.121  65.566  1.00  0.00     0.000 HD 
ENDBRANCH  14  21
ENDBRANCH   8  12
TORSDOF 2
ENDMDL
MODEL      177
REMARK 921   NORMALIZED FREE ENERGY PREDICTED BY IDOCK:   -2.85 KCAL/MOL
REMARK 922        TOTAL FREE ENERGY PREDICTED BY IDOCK:   -3.16 KCAL/MOL
REMARK 923 INTER-LIGAND FREE ENERGY PREDICTED BY IDOCK:   -3.47 KCAL/MOL
REMARK 924 INTRA-LIGAND FREE ENERGY PREDICTED BY IDOCK:    0.31 KCAL/MOL
REMARK 927      BINDING AFFINITY PREDICTED BY RF-SCORE:    0.00 PKD
ROOT
HETATM    1  N   UNL     1     -12.781  11.055  69.591  1.00  0.00    -0.360 NA 
HETATM    2  H2  UNL     1     -13.733  10.741  69.786  1.00  0.00     0.000 HD 
HETATM    3  C   UNL     1     -11.740  10.206  69.755  1.00  0.00    -0.139 C  
HETATM    4  H1  UNL     1     -12.614  12.010  69.274  1.00  0.00     0.000 HD 
HETATM    5  N   UNL     1     -11.951   9.000  70.156  1.00  0.00    -0.410 N  
HETATM    6  C   UNL     1     -10.866   8.175  70.292  1.00  0.00    -0.244 C  
HETATM    7  H   UNL     1     -12.894   8.671  70.365  1.00  0.00     0.000 HD 
HETATM    8  N   UNL     1      -9.759   8.477  69.550  1.00  0.00    -0.174 N  
HETATM    9  O   UNL     1     -10.894   7.219  71.055  1.00  0.00    -0.234 OA 
HETATM   10  N   UNL     1     -10.502  10.691  69.498  1.00  0.00    -0.223 NA 
HETATM   11  C   UNL     1      -9.571   9.812  69.384  1.00  0.00    -0.207 C  
ENDROOT
BRANCH   8  12
HETATM   12  C1* UNL     1      -8.603   7.609  69.497  1.00  0.00    -0.132 C  
HETATM   13  O4* UNL     1      -8.283   7.426  68.098  1.00  0.00    -0.122 OA 
HETATM   14  C4* UNL     1      -8.953   6.226  67.639  1.00  0.00    -0.115 C  
HETATM   15  C3* UNL     1      -9.052   5.295  68.841  1.00  0.00    -0.111 C  
HETATM   16  H2* UNL     1      -7.411   4.850  70.864  1.00  0.00     0.000 HD 
HETATM   17  C2* UNL     1      -8.667   6.163  70.043  1.00  0.00    -0.137 C  
HETATM   18  O3* UNL     1      -8.177   4.179  68.656  1.00  0.00    -0.081 OA 
HETATM   19  O2* UNL     1      -7.371   5.738  70.529  1.00  0.00    -0.078 OA 
HETATM   20  H3* UNL     1      -8.239   3.599  69.406  1.00  0.00     0.000 HD 
BRANCH  14  21
HETATM   21  C5* UNL     1     -10.348   6.560  67.083  1.00  0.00    -0.247 C  
HETATM   22  O5* UNL     1     -10.351   7.850  66.481  1.00  0.00    -0.459 OA 
HETATM   23  H5* UNL     1     -11.213   8.056  66.138  1.00  0.00     0.000 HD 
ENDBRANCH  14  21
ENDBRANCH   8  12
TORSDOF 2
ENDMDL
MODEL      178
REMARK 921   NORMALIZED FREE ENERGY PREDICTED BY IDOCK:   -2.84 KCAL/MOL
REMARK 922        TOTAL FREE ENERGY PREDICTED BY IDOCK:   -3.15 KCAL/MOL
REMARK 923 INTER-LIGAND FREE ENERGY PREDICTED BY IDOCK:   -3.06 KCAL/MOL
REMARK 924 INTRA-LIGAND FREE ENERGY PREDICTED BY IDOCK:   -0.09 KCAL/MOL
REMARK 927      BINDING AFFINITY PREDICTED BY RF-SCORE:    0.00 PKD
ROOT
HETATM    1  N   UNL     1      -7.796   6.397  69.754  1.00  0.00    -0.112 NA 
HETATM    2  H2  UNL     1      -8.499   6.135  70.446  1.00  0.00     0.000 HD 
HETATM    3  C   UNL     1      -8.161   7.076  68.641  1.00  0.00    -0.121 C  
HETATM    4  H1  UNL     1      -6.818   6.149  69.901  1.00  0.00     0.000 HD 
HETATM    5  N   UNL     1      -9.397   7.390  68.457  1.00  0.00    -0.142 N  
HETATM    6  C   UNL     1      -9.713   8.090  67.322  1.00  0.00    -0.177 C  
HETATM    7  H   UNL     1     -10.115   7.128  69.132  1.00  0.00     0.000 HD 
HETATM    8  N   UNL     1      -8.715   8.825  66.747  1.00  0.00    -0.121 N  
HETATM    9  O   UNL     1     -10.840   8.042  66.846  1.00  0.00    -0.267 OA 
HETATM   10  N   UNL     1      -7.184   7.378  67.754  1.00  0.00    -0.088 NA 
HETATM   11  C   UNL     1      -7.489   8.251  66.862  1.00  0.00    -0.088 C  
ENDROOT
BRANCH   8  12
HETATM   12  C1* UNL     1      -8.954   9.714  65.632  1.00  0.00    -0.169 C  
HETATM   13  O4* UNL     1      -7.797  10.577  65.531  1.00  0.00    -0.155 OA 
HETATM   14  C4* UNL     1      -8.069  11.782  66.289  1.00  0.00     0.115 C  
HETATM   15  C3* UNL     1      -9.575  12.006  66.226  1.00  0.00    -0.231 C  
HETATM   16  H2* UNL     1     -11.341  11.573  64.307  1.00  0.00     0.000 HD 
HETATM   17  C2* UNL     1     -10.142  10.707  65.644  1.00  0.00    -0.272 C  
HETATM   18  O3* UNL     1      -9.856  13.149  65.413  1.00  0.00    -0.450 OA 
HETATM   19  O2* UNL     1     -10.613  10.963  64.300  1.00  0.00    -0.368 OA 
HETATM   20  H3* UNL     1     -10.795  13.288  65.374  1.00  0.00     0.000 HD 
BRANCH  14  21
HETATM   21  C5* UNL     1      -7.595  11.629  67.743  1.00  0.00    -0.121 C  
HETATM   22  O5* UNL     1      -8.638  11.971  68.649  1.00  0.00    -0.295 OA 
HETATM   23  H5* UNL     1      -8.344  11.876  69.548  1.00  0.00     0.000 HD 
ENDBRANCH  14  21
ENDBRANCH   8  12
TORSDOF 2
ENDMDL
MODEL      179
REMARK 921   NORMALIZED FREE ENERGY PREDICTED BY IDOCK:   -2.84 KCAL/MOL
REMARK 922        TOTAL FREE ENERGY PREDICTED BY IDOCK:   -3.15 KCAL/MOL
REMARK 923 INTER-LIGAND FREE ENERGY PREDICTED BY IDOCK:   -3.11 KCAL/MOL
REMARK 924 INTRA-LIGAND FREE ENERGY PREDICTED BY IDOCK:   -0.04 KCAL/MOL
REMARK 927      BINDING AFFINITY PREDICTED BY RF-SCORE:    0.00 PKD
ROOT
HETATM    1  N   UNL     1     -10.681   3.036  64.093  1.00  0.00    -0.458 NA 
HETATM    2  H2  UNL     1     -10.905   3.189  63.109  1.00  0.00     0.000 HD 
HETATM    3  C   UNL     1      -9.806   3.854  64.724  1.00  0.00    -0.197 C  
HETATM    4  H1  UNL     1     -11.117   2.268  64.602  1.00  0.00     0.000 HD 
HETATM    5  N   UNL     1      -9.256   4.826  64.081  1.00  0.00    -0.329 N  
HETATM    6  C   UNL     1      -8.389   5.633  64.768  1.00  0.00    -0.128 C  
HETATM    7  H   UNL     1      -9.460   4.988  63.094  1.00  0.00     0.000 HD 
HETATM    8  N   UNL     1      -8.539   5.695  66.125  1.00  0.00    -0.127 N  
HETATM    9  O   UNL     1      -7.515   6.260  64.183  1.00  0.00    -0.069 OA 
HETATM   10  N   UNL     1      -9.539   3.587  66.024  1.00  0.00    -0.139 NA 
HETATM   11  C   UNL     1      -8.940   4.519  66.674  1.00  0.00    -0.114 C  
ENDROOT
BRANCH   8  12
HETATM   12  C1* UNL     1      -7.782   6.614  66.945  1.00  0.00    -0.106 C  
HETATM   13  O4* UNL     1      -8.530   6.790  68.172  1.00  0.00    -0.120 OA 
HETATM   14  C4* UNL     1      -9.382   7.951  68.013  1.00  0.00    -0.145 C  
HETATM   15  C3* UNL     1      -8.660   8.895  67.058  1.00  0.00    -0.116 C  
HETATM   16  H2* UNL     1      -6.096   9.445  66.729  1.00  0.00     0.000 HD 
HETATM   17  C2* UNL     1      -7.512   8.064  66.478  1.00  0.00    -0.088 C  
HETATM   18  O3* UNL     1      -8.208  10.047  67.775  1.00  0.00    -0.113 OA 
HETATM   19  O2* UNL     1      -6.262   8.555  67.016  1.00  0.00    -0.054 OA 
HETATM   20  H3* UNL     1      -7.758  10.635  67.180  1.00  0.00     0.000 HD 
BRANCH  14  21
HETATM   21  C5* UNL     1     -10.756   7.546  67.454  1.00  0.00    -0.261 C  
HETATM   22  O5* UNL     1     -11.308   6.474  68.210  1.00  0.00    -0.541 OA 
HETATM   23  H5* UNL     1     -12.157   6.223  67.865  1.00  0.00     0.000 HD 
ENDBRANCH  14  21
ENDBRANCH   8  12
TORSDOF 2
ENDMDL
MODEL      180
REMARK 921   NORMALIZED FREE ENERGY PREDICTED BY IDOCK:   -2.83 KCAL/MOL
REMARK 922        TOTAL FREE ENERGY PREDICTED BY IDOCK:   -3.14 KCAL/MOL
REMARK 923 INTER-LIGAND FREE ENERGY PREDICTED BY IDOCK:   -3.85 KCAL/MOL
REMARK 924 INTRA-LIGAND FREE ENERGY PREDICTED BY IDOCK:    0.71 KCAL/MOL
REMARK 927      BINDING AFFINITY PREDICTED BY RF-SCORE:    0.00 PKD
ROOT
HETATM    1  N   UNL     1      -9.953   7.668  66.474  1.00  0.00    -0.423 NA 
HETATM    2  H2  UNL     1     -10.801   7.841  65.932  1.00  0.00     0.000 HD 
HETATM    3  C   UNL     1     -10.042   7.233  67.752  1.00  0.00    -0.180 C  
HETATM    4  H1  UNL     1      -9.038   7.823  66.052  1.00  0.00     0.000 HD 
HETATM    5  N   UNL     1     -11.199   7.037  68.285  1.00  0.00    -0.509 N  
HETATM    6  C   UNL     1     -11.236   6.583  69.577  1.00  0.00    -0.372 C  
HETATM    7  H   UNL     1     -12.057   7.214  67.762  1.00  0.00     0.000 HD 
HETATM    8  N   UNL     1     -10.139   5.906  70.030  1.00  0.00    -0.185 N  
HETATM    9  O   UNL     1     -12.210   6.789  70.289  1.00  0.00    -0.281 OA 
HETATM   10  N   UNL     1      -8.881   7.040  68.422  1.00  0.00    -0.124 NA 
HETATM   11  C   UNL     1      -8.971   6.370  69.514  1.00  0.00    -0.136 C  
ENDROOT
BRANCH   8  12
HETATM   12  C1* UNL     1     -10.110   5.257  71.321  1.00  0.00    -0.213 C  
HETATM   13  O4* UNL     1     -10.772   6.147  72.250  1.00  0.00    -0.212 OA 
HETATM   14  C4* UNL     1      -9.761   6.979  72.871  1.00  0.00    -0.161 C  
HETATM   15  C3* UNL     1      -8.482   6.152  72.914  1.00  0.00    -0.119 C  
HETATM   16  H2* UNL     1      -8.067   3.569  73.293  1.00  0.00     0.000 HD 
HETATM   17  C2* UNL     1      -8.768   4.939  72.024  1.00  0.00    -0.128 C  
HETATM   18  O3* UNL     1      -8.190   5.793  74.268  1.00  0.00    -0.104 OA 
HETATM   19  O2* UNL     1      -8.891   3.764  72.861  1.00  0.00    -0.093 OA 
HETATM   20  H3* UNL     1      -7.392   5.278  74.295  1.00  0.00     0.000 HD 
BRANCH  14  21
HETATM   21  C5* UNL     1      -9.553   8.274  72.068  1.00  0.00    -0.248 C  
HETATM   22  O5* UNL     1      -8.232   8.771  72.251  1.00  0.00    -0.360 OA 
HETATM   23  H5* UNL     1      -8.104   9.571  71.755  1.00  0.00     0.000 HD 
ENDBRANCH  14  21
ENDBRANCH   8  12
TORSDOF 2
ENDMDL
MODEL      181
REMARK 921   NORMALIZED FREE ENERGY PREDICTED BY IDOCK:   -2.83 KCAL/MOL
REMARK 922        TOTAL FREE ENERGY PREDICTED BY IDOCK:   -3.14 KCAL/MOL
REMARK 923 INTER-LIGAND FREE ENERGY PREDICTED BY IDOCK:   -3.29 KCAL/MOL
REMARK 924 INTRA-LIGAND FREE ENERGY PREDICTED BY IDOCK:    0.15 KCAL/MOL
REMARK 927      BINDING AFFINITY PREDICTED BY RF-SCORE:    0.00 PKD
ROOT
HETATM    1  N   UNL     1      -9.659  15.942  67.700  1.00  0.00    -0.220 NA 
HETATM    2  H2  UNL     1      -9.422  16.812  67.223  1.00  0.00     0.000 HD 
HETATM    3  C   UNL     1      -9.890  14.817  66.984  1.00  0.00    -0.239 C  
HETATM    4  H1  UNL     1      -9.722  15.919  68.718  1.00  0.00     0.000 HD 
HETATM    5  N   UNL     1      -9.810  14.846  65.698  1.00  0.00    -0.366 N  
HETATM    6  C   UNL     1     -10.039  13.678  65.020  1.00  0.00    -0.267 C  
HETATM    7  H   UNL     1      -9.584  15.709  65.203  1.00  0.00     0.000 HD 
HETATM    8  N   UNL     1      -9.835  12.512  65.703  1.00  0.00    -0.248 N  
HETATM    9  O   UNL     1     -10.419  13.690  63.856  1.00  0.00    -0.118 OA 
HETATM   10  N   UNL     1     -10.218  13.701  67.677  1.00  0.00    -0.236 NA 
HETATM   11  C   UNL     1     -10.157  12.598  67.020  1.00  0.00    -0.224 C  
ENDROOT
BRANCH   8  12
HETATM   12  C1* UNL     1      -9.905  11.218  65.062  1.00  0.00    -0.261 C  
HETATM   13  O4* UNL     1      -9.638  10.231  66.085  1.00  0.00    -0.178 OA 
HETATM   14  C4* UNL     1      -8.219   9.938  66.065  1.00  0.00    -0.119 C  
HETATM   15  C3* UNL     1      -7.753  10.138  64.628  1.00  0.00    -0.141 C  
HETATM   16  H2* UNL     1      -8.936   9.669  62.311  1.00  0.00     0.000 HD 
HETATM   17  C2* UNL     1      -8.924  10.835  63.928  1.00  0.00    -0.155 C  
HETATM   18  O3* UNL     1      -7.432   8.871  64.048  1.00  0.00    -0.105 OA 
HETATM   19  O2* UNL     1      -9.539   9.904  63.007  1.00  0.00    -0.204 OA 
HETATM   20  H3* UNL     1      -7.142   8.996  63.152  1.00  0.00     0.000 HD 
BRANCH  14  21
HETATM   21  C5* UNL     1      -7.458  10.867  67.026  1.00  0.00    -0.122 C  
HETATM   22  O5* UNL     1      -7.405  10.302  68.331  1.00  0.00    -0.081 OA 
HETATM   23  H5* UNL     1      -6.935  10.876  68.925  1.00  0.00     0.000 HD 
ENDBRANCH  14  21
ENDBRANCH   8  12
TORSDOF 2
ENDMDL
MODEL      182
REMARK 921   NORMALIZED FREE ENERGY PREDICTED BY IDOCK:   -2.82 KCAL/MOL
REMARK 922        TOTAL FREE ENERGY PREDICTED BY IDOCK:   -3.12 KCAL/MOL
REMARK 923 INTER-LIGAND FREE ENERGY PREDICTED BY IDOCK:   -3.11 KCAL/MOL
REMARK 924 INTRA-LIGAND FREE ENERGY PREDICTED BY IDOCK:   -0.01 KCAL/MOL
REMARK 927      BINDING AFFINITY PREDICTED BY RF-SCORE:    0.00 PKD
ROOT
HETATM    1  N   UNL     1      -7.044   5.644  70.912  1.00  0.00    -0.067 NA 
HETATM    2  H2  UNL     1      -6.065   5.478  70.676  1.00  0.00     0.000 HD 
HETATM    3  C   UNL     1      -7.605   6.851  70.665  1.00  0.00    -0.094 C  
HETATM    4  H1  UNL     1      -7.600   4.901  71.334  1.00  0.00     0.000 HD 
HETATM    5  N   UNL     1      -6.901   7.790  70.132  1.00  0.00    -0.048 N  
HETATM    6  C   UNL     1      -7.519   8.988  69.889  1.00  0.00    -0.065 C  
HETATM    7  H   UNL     1      -5.919   7.645  69.899  1.00  0.00     0.000 HD 
HETATM    8  N   UNL     1      -8.878   8.969  69.743  1.00  0.00    -0.144 N  
HETATM    9  O   UNL     1      -6.874  10.026  69.818  1.00  0.00    -0.066 OA 
HETATM   10  N   UNL     1      -8.902   7.013  71.018  1.00  0.00    -0.145 NA 
HETATM   11  C   UNL     1      -9.490   8.045  70.529  1.00  0.00    -0.166 C  
ENDROOT
BRANCH   8  12
HETATM   12  C1* UNL     1      -9.629  10.139  69.346  1.00  0.00    -0.232 C  
HETATM   13  O4* UNL     1     -10.880   9.664  68.796  1.00  0.00    -0.219 OA 
HETATM   14  C4* UNL     1     -10.717   9.532  67.362  1.00  0.00    -0.227 C  
HETATM   15  C3* UNL     1      -9.697  10.582  66.940  1.00  0.00    -0.180 C  
HETATM   16  H2* UNL     1      -9.233  13.035  67.809  1.00  0.00     0.000 HD 
HETATM   17  C2* UNL     1      -9.096  11.096  68.252  1.00  0.00    -0.162 C  
HETATM   18  O3* UNL     1     -10.349  11.608  66.187  1.00  0.00    -0.226 OA 
HETATM   19  O2* UNL     1      -9.560  12.448  68.480  1.00  0.00    -0.197 OA 
HETATM   20  H3* UNL     1      -9.713  12.263  65.924  1.00  0.00     0.000 HD 
BRANCH  14  21
HETATM   21  C5* UNL     1     -10.235   8.118  66.997  1.00  0.00    -0.308 C  
HETATM   22  O5* UNL     1     -11.300   7.180  67.115  1.00  0.00    -0.565 OA 
HETATM   23  H5* UNL     1     -11.002   6.306  66.889  1.00  0.00     0.000 HD 
ENDBRANCH  14  21
ENDBRANCH   8  12
TORSDOF 2
ENDMDL
MODEL      183
REMARK 921   NORMALIZED FREE ENERGY PREDICTED BY IDOCK:   -2.81 KCAL/MOL
REMARK 922        TOTAL FREE ENERGY PREDICTED BY IDOCK:   -3.12 KCAL/MOL
REMARK 923 INTER-LIGAND FREE ENERGY PREDICTED BY IDOCK:   -3.76 KCAL/MOL
REMARK 924 INTRA-LIGAND FREE ENERGY PREDICTED BY IDOCK:    0.64 KCAL/MOL
REMARK 927      BINDING AFFINITY PREDICTED BY RF-SCORE:    0.00 PKD
ROOT
HETATM    1  N   UNL     1     -11.336   9.692  69.184  1.00  0.00    -0.454 NA 
HETATM    2  H2  UNL     1     -11.159  10.696  69.242  1.00  0.00     0.000 HD 
HETATM    3  C   UNL     1     -10.869   8.864  70.147  1.00  0.00    -0.231 C  
HETATM    4  H1  UNL     1     -11.867   9.313  68.400  1.00  0.00     0.000 HD 
HETATM    5  N   UNL     1     -10.199   9.344  71.137  1.00  0.00    -0.309 N  
HETATM    6  C   UNL     1      -9.760   8.467  72.093  1.00  0.00    -0.300 C  
HETATM    7  H   UNL     1     -10.003  10.343  71.207  1.00  0.00     0.000 HD 
HETATM    8  N   UNL     1     -10.447   7.292  72.223  1.00  0.00    -0.208 N  
HETATM    9  O   UNL     1      -8.786   8.727  72.788  1.00  0.00    -0.382 OA 
HETATM   10  N   UNL     1     -11.123   7.542  70.001  1.00  0.00    -0.240 NA 
HETATM   11  C   UNL     1     -10.925   6.817  71.043  1.00  0.00    -0.255 C  
ENDROOT
BRANCH   8  12
HETATM   12  C1* UNL     1     -10.173   6.349  73.283  1.00  0.00    -0.214 C  
HETATM   13  O4* UNL     1      -8.734   6.214  73.358  1.00  0.00    -0.126 OA 
HETATM   14  C4* UNL     1      -8.346   5.089  72.531  1.00  0.00    -0.117 C  
HETATM   15  C3* UNL     1      -9.511   4.108  72.555  1.00  0.00    -0.130 C  
HETATM   16  H2* UNL     1     -11.218   3.446  74.461  1.00  0.00     0.000 HD 
HETATM   17  C2* UNL     1     -10.666   4.884  73.195  1.00  0.00    -0.254 C  
HETATM   18  O3* UNL     1      -9.142   2.944  73.298  1.00  0.00    -0.084 OA 
HETATM   19  O2* UNL     1     -10.916   4.345  74.515  1.00  0.00    -0.268 OA 
HETATM   20  H3* UNL     1      -9.869   2.332  73.313  1.00  0.00     0.000 HD 
BRANCH  14  21
HETATM   21  C5* UNL     1      -8.040   5.548  71.096  1.00  0.00    -0.112 C  
HETATM   22  O5* UNL     1      -7.319   6.776  71.106  1.00  0.00    -0.076 OA 
HETATM   23  H5* UNL     1      -7.130   7.060  70.219  1.00  0.00     0.000 HD 
ENDBRANCH  14  21
ENDBRANCH   8  12
TORSDOF 2
ENDMDL
MODEL      184
REMARK 921   NORMALIZED FREE ENERGY PREDICTED BY IDOCK:   -2.81 KCAL/MOL
REMARK 922        TOTAL FREE ENERGY PREDICTED BY IDOCK:   -3.11 KCAL/MOL
REMARK 923 INTER-LIGAND FREE ENERGY PREDICTED BY IDOCK:   -3.02 KCAL/MOL
REMARK 924 INTRA-LIGAND FREE ENERGY PREDICTED BY IDOCK:   -0.09 KCAL/MOL
REMARK 927      BINDING AFFINITY PREDICTED BY RF-SCORE:    0.00 PKD
ROOT
HETATM    1  N   UNL     1      -5.891   6.397  65.789  1.00  0.00    -0.024 NA 
HETATM    2  H2  UNL     1      -5.969   5.439  66.131  1.00  0.00     0.000 HD 
HETATM    3  C   UNL     1      -6.931   7.252  65.925  1.00  0.00    -0.061 C  
HETATM    4  H1  UNL     1      -5.028   6.711  65.345  1.00  0.00     0.000 HD 
HETATM    5  N   UNL     1      -8.021   6.855  66.486  1.00  0.00    -0.106 N  
HETATM    6  C   UNL     1      -9.039   7.762  66.612  1.00  0.00    -0.161 C  
HETATM    7  H   UNL     1      -8.121   5.898  66.825  1.00  0.00     0.000 HD 
HETATM    8  N   UNL     1      -8.696   9.085  66.619  1.00  0.00    -0.125 N  
HETATM    9  O   UNL     1     -10.203   7.394  66.704  1.00  0.00    -0.240 OA 
HETATM   10  N   UNL     1      -6.770   8.504  65.434  1.00  0.00    -0.062 NA 
HETATM   11  C   UNL     1      -7.639   9.370  65.815  1.00  0.00    -0.099 C  
ENDROOT
BRANCH   8  12
HETATM   12  C1* UNL     1      -9.658  10.132  66.886  1.00  0.00    -0.177 C  
HETATM   13  O4* UNL     1      -8.900  11.316  67.227  1.00  0.00    -0.146 OA 
HETATM   14  C4* UNL     1      -8.759  11.357  68.669  1.00  0.00    -0.121 C  
HETATM   15  C3* UNL     1      -9.994  10.677  69.247  1.00  0.00    -0.193 C  
HETATM   16  H2* UNL     1     -12.517  10.641  68.458  1.00  0.00     0.000 HD 
HETATM   17  C2* UNL     1     -10.671  10.006  68.049  1.00  0.00    -0.256 C  
HETATM   18  O3* UNL     1     -10.825  11.653  69.882  1.00  0.00    -0.450 OA 
HETATM   19  O2* UNL     1     -11.895  10.718  67.744  1.00  0.00    -0.538 OA 
HETATM   20  H3* UNL     1     -11.595  11.229  70.242  1.00  0.00     0.000 HD 
BRANCH  14  21
HETATM   21  C5* UNL     1      -7.475  10.636  69.111  1.00  0.00    -0.123 C  
HETATM   22  O5* UNL     1      -7.765   9.658  70.104  1.00  0.00    -0.135 OA 
HETATM   23  H5* UNL     1      -6.971   9.213  70.377  1.00  0.00     0.000 HD 
ENDBRANCH  14  21
ENDBRANCH   8  12
TORSDOF 2
ENDMDL
MODEL      185
REMARK 921   NORMALIZED FREE ENERGY PREDICTED BY IDOCK:   -2.81 KCAL/MOL
REMARK 922        TOTAL FREE ENERGY PREDICTED BY IDOCK:   -3.11 KCAL/MOL
REMARK 923 INTER-LIGAND FREE ENERGY PREDICTED BY IDOCK:   -3.94 KCAL/MOL
REMARK 924 INTRA-LIGAND FREE ENERGY PREDICTED BY IDOCK:    0.82 KCAL/MOL
REMARK 927      BINDING AFFINITY PREDICTED BY RF-SCORE:    0.00 PKD
ROOT
HETATM    1  N   UNL     1     -10.629  20.207  68.715  1.00  0.00    -0.381 NA 
HETATM    2  H2  UNL     1     -10.314  21.161  68.531  1.00  0.00     0.000 HD 
HETATM    3  C   UNL     1      -9.783  19.167  68.530  1.00  0.00    -0.406 C  
HETATM    4  H1  UNL     1     -11.580  20.038  69.040  1.00  0.00     0.000 HD 
HETATM    5  N   UNL     1      -8.580  19.381  68.121  1.00  0.00    -0.326 N  
HETATM    6  C   UNL     1      -7.759  18.297  67.962  1.00  0.00    -0.260 C  
HETATM    7  H   UNL     1      -8.251  20.327  67.922  1.00  0.00     0.000 HD 
HETATM    8  N   UNL     1      -8.056  17.180  68.692  1.00  0.00    -0.260 N  
HETATM    9  O   UNL     1      -6.810  18.333  67.190  1.00  0.00    -0.189 OA 
HETATM   10  N   UNL     1     -10.268  17.926  68.775  1.00  0.00    -0.376 NA 
HETATM   11  C   UNL     1      -9.390  16.992  68.867  1.00  0.00    -0.224 C  
ENDROOT
BRANCH   8  12
HETATM   12  C1* UNL     1      -7.190  16.022  68.721  1.00  0.00    -0.157 C  
HETATM   13  O4* UNL     1      -6.883  15.697  67.344  1.00  0.00    -0.176 OA 
HETATM   14  C4* UNL     1      -7.846  14.714  66.892  1.00  0.00     0.125 C  
HETATM   15  C3* UNL     1      -8.247  13.900  68.115  1.00  0.00    -0.158 C  
HETATM   16  H2* UNL     1      -6.872  13.100  70.227  1.00  0.00     0.000 HD 
HETATM   17  C2* UNL     1      -7.678  14.676  69.307  1.00  0.00    -0.091 C  
HETATM   18  O3* UNL     1      -7.714  12.577  68.006  1.00  0.00    -0.117 OA 
HETATM   19  O2* UNL     1      -6.572  13.927  69.867  1.00  0.00    -0.111 OA 
HETATM   20  H3* UNL     1      -7.964  12.070  68.770  1.00  0.00     0.000 HD 
BRANCH  14  21
HETATM   21  C5* UNL     1      -9.069  15.400  66.261  1.00  0.00    -0.320 C  
HETATM   22  O5* UNL     1      -9.646  14.571  65.257  1.00  0.00    -0.512 OA 
HETATM   23  H5* UNL     1     -10.402  14.995  64.867  1.00  0.00     0.000 HD 
ENDBRANCH  14  21
ENDBRANCH   8  12
TORSDOF 2
ENDMDL
MODEL      186
REMARK 921   NORMALIZED FREE ENERGY PREDICTED BY IDOCK:   -2.79 KCAL/MOL
REMARK 922        TOTAL FREE ENERGY PREDICTED BY IDOCK:   -3.09 KCAL/MOL
REMARK 923 INTER-LIGAND FREE ENERGY PREDICTED BY IDOCK:   -3.98 KCAL/MOL
REMARK 924 INTRA-LIGAND FREE ENERGY PREDICTED BY IDOCK:    0.89 KCAL/MOL
REMARK 927      BINDING AFFINITY PREDICTED BY RF-SCORE:    0.00 PKD
ROOT
HETATM    1  N   UNL     1     -12.762  14.129  70.675  1.00  0.00    -0.333 NA 
HETATM    2  H2  UNL     1     -13.311  13.962  71.520  1.00  0.00     0.000 HD 
HETATM    3  C   UNL     1     -12.088  13.110  70.092  1.00  0.00    -0.321 C  
HETATM    4  H1  UNL     1     -12.721  15.064  70.270  1.00  0.00     0.000 HD 
HETATM    5  N   UNL     1     -12.140  11.929  70.605  1.00  0.00    -0.449 N  
HETATM    6  C   UNL     1     -11.452  10.929  69.970  1.00  0.00    -0.329 C  
HETATM    7  H   UNL     1     -12.675  11.745  71.454  1.00  0.00     0.000 HD 
HETATM    8  N   UNL     1     -11.197  11.099  68.637  1.00  0.00    -0.230 N  
HETATM    9  O   UNL     1     -11.077   9.937  70.580  1.00  0.00    -0.282 OA 
HETATM   10  N   UNL     1     -11.364  13.402  68.986  1.00  0.00    -0.272 NA 
HETATM   11  C   UNL     1     -10.969  12.393  68.295  1.00  0.00    -0.236 C  
ENDROOT
BRANCH   8  12
HETATM   12  C1* UNL     1     -10.606  10.059  67.825  1.00  0.00    -0.261 C  
HETATM   13  O4* UNL     1      -9.640   9.377  68.659  1.00  0.00    -0.145 OA 
HETATM   14  C4* UNL     1      -8.348   9.998  68.446  1.00  0.00    -0.111 C  
HETATM   15  C3* UNL     1      -8.343  10.514  67.013  1.00  0.00    -0.128 C  
HETATM   16  H2* UNL     1      -9.405   9.553  64.791  1.00  0.00     0.000 HD 
HETATM   17  C2* UNL     1      -9.799  10.404  66.550  1.00  0.00    -0.206 C  
HETATM   18  O3* UNL     1      -7.447   9.727  66.223  1.00  0.00    -0.097 OA 
HETATM   19  O2* UNL     1      -9.900   9.341  65.573  1.00  0.00    -0.265 OA 
HETATM   20  H3* UNL     1      -7.444  10.049  65.330  1.00  0.00     0.000 HD 
BRANCH  14  21
HETATM   21  C5* UNL     1      -8.123  11.144  69.446  1.00  0.00     0.152 C  
HETATM   22  O5* UNL     1      -7.066  10.825  70.345  1.00  0.00    -0.473 OA 
HETATM   23  H5* UNL     1      -6.928  11.533  70.963  1.00  0.00     0.000 HD 
ENDBRANCH  14  21
ENDBRANCH   8  12
TORSDOF 2
ENDMDL
MODEL      187
REMARK 921   NORMALIZED FREE ENERGY PREDICTED BY IDOCK:   -2.79 KCAL/MOL
REMARK 922        TOTAL FREE ENERGY PREDICTED BY IDOCK:   -3.09 KCAL/MOL
REMARK 923 INTER-LIGAND FREE ENERGY PREDICTED BY IDOCK:   -3.54 KCAL/MOL
REMARK 924 INTRA-LIGAND FREE ENERGY PREDICTED BY IDOCK:    0.45 KCAL/MOL
REMARK 927      BINDING AFFINITY PREDICTED BY RF-SCORE:    0.00 PKD
ROOT
HETATM    1  N   UNL     1     -11.287   4.228  65.014  1.00  0.00    -1.043 NA 
HETATM    2  H2  UNL     1     -12.096   4.737  64.654  1.00  0.00     0.000 HD 
HETATM    3  C   UNL     1     -10.447   4.823  65.892  1.00  0.00    -0.274 C  
HETATM    4  H1  UNL     1     -11.112   3.270  64.711  1.00  0.00     0.000 HD 
HETATM    5  N   UNL     1     -10.668   6.033  66.274  1.00  0.00    -0.541 N  
HETATM    6  C   UNL     1      -9.797   6.586  67.175  1.00  0.00    -0.148 C  
HETATM    7  H   UNL     1     -11.465   6.561  65.918  1.00  0.00     0.000 HD 
HETATM    8  N   UNL     1      -9.094   5.724  67.969  1.00  0.00    -0.111 N  
HETATM    9  O   UNL     1      -9.653   7.799  67.250  1.00  0.00    -0.146 OA 
HETATM   10  N   UNL     1      -9.384   4.099  66.316  1.00  0.00    -0.156 NA 
HETATM   11  C   UNL     1      -8.767   4.563  67.344  1.00  0.00    -0.104 C  
ENDROOT
BRANCH   8  12
HETATM   12  C1* UNL     1      -8.251   6.182  69.051  1.00  0.00    -0.112 C  
HETATM   13  O4* UNL     1      -7.452   5.049  69.466  1.00  0.00    -0.056 OA 
HETATM   14  C4* UNL     1      -8.145   4.389  70.555  1.00  0.00    -0.067 C  
HETATM   15  C3* UNL     1      -8.929   5.468  71.291  1.00  0.00    -0.142 C  
HETATM   16  H2* UNL     1      -8.382   8.003  71.803  1.00  0.00     0.000 HD 
HETATM   17  C2* UNL     1      -8.863   6.695  70.377  1.00  0.00    -0.152 C  
HETATM   18  O3* UNL     1      -8.340   5.697  72.574  1.00  0.00    -0.114 OA 
HETATM   19  O2* UNL     1      -8.006   7.689  70.989  1.00  0.00    -0.092 OA 
HETATM   20  H3* UNL     1      -8.829   6.370  73.033  1.00  0.00     0.000 HD 
BRANCH  14  21
HETATM   21  C5* UNL     1      -9.082   3.294  70.019  1.00  0.00    -0.127 C  
HETATM   22  O5* UNL     1      -9.749   2.637  71.092  1.00  0.00    -0.154 OA 
HETATM   23  H5* UNL     1     -10.328   1.960  70.761  1.00  0.00     0.000 HD 
ENDBRANCH  14  21
ENDBRANCH   8  12
TORSDOF 2
ENDMDL
MODEL      188
REMARK 921   NORMALIZED FREE ENERGY PREDICTED BY IDOCK:   -2.78 KCAL/MOL
REMARK 922        TOTAL FREE ENERGY PREDICTED BY IDOCK:   -3.09 KCAL/MOL
REMARK 923 INTER-LIGAND FREE ENERGY PREDICTED BY IDOCK:   -3.09 KCAL/MOL
REMARK 924 INTRA-LIGAND FREE ENERGY PREDICTED BY IDOCK:    0.01 KCAL/MOL
REMARK 927      BINDING AFFINITY PREDICTED BY RF-SCORE:    0.00 PKD
ROOT
HETATM    1  N   UNL     1      -6.841   2.591  70.729  1.00  0.00    -0.032 NA 
HETATM    2  H2  UNL     1      -5.845   2.745  70.569  1.00  0.00     0.000 HD 
HETATM    3  C   UNL     1      -7.630   3.617  71.125  1.00  0.00    -0.044 C  
HETATM    4  H1  UNL     1      -7.244   1.665  70.590  1.00  0.00     0.000 HD 
HETATM    5  N   UNL     1      -7.122   4.788  71.300  1.00  0.00    -0.050 N  
HETATM    6  C   UNL     1      -7.964   5.797  71.686  1.00  0.00    -0.117 C  
HETATM    7  H   UNL     1      -6.126   4.958  71.155  1.00  0.00     0.000 HD 
HETATM    8  N   UNL     1      -9.288   5.653  71.380  1.00  0.00    -0.146 N  
HETATM    9  O   UNL     1      -7.541   6.775  72.289  1.00  0.00    -0.092 OA 
HETATM   10  N   UNL     1      -8.939   3.344  71.337  1.00  0.00    -0.092 NA 
HETATM   11  C   UNL     1      -9.715   4.364  71.433  1.00  0.00    -0.178 C  
ENDROOT
BRANCH   8  12
HETATM   12  C1* UNL     1     -10.253   6.705  71.607  1.00  0.00    -0.192 C  
HETATM   13  O4* UNL     1     -11.485   6.286  70.974  1.00  0.00    -0.319 OA 
HETATM   14  C4* UNL     1     -11.506   6.833  69.632  1.00  0.00    -0.230 C  
HETATM   15  C3* UNL     1     -10.723   8.139  69.681  1.00  0.00    -0.195 C  
HETATM   16  H2* UNL     1     -10.512   9.997  71.548  1.00  0.00     0.000 HD 
HETATM   17  C2* UNL     1     -10.027   8.129  71.045  1.00  0.00    -0.187 C  
HETATM   18  O3* UNL     1     -11.620   9.241  69.520  1.00  0.00    -0.427 OA 
HETATM   19  O2* UNL     1     -10.650   9.123  71.894  1.00  0.00    -0.348 OA 
HETATM   20  H3* UNL     1     -11.132  10.055  69.551  1.00  0.00     0.000 HD 
BRANCH  14  21
HETATM   21  C5* UNL     1     -10.876   5.848  68.633  1.00  0.00    -0.261 C  
HETATM   22  O5* UNL     1     -10.470   6.527  67.450  1.00  0.00    -0.183 OA 
HETATM   23  H5* UNL     1     -10.081   5.918  66.832  1.00  0.00     0.000 HD 
ENDBRANCH  14  21
ENDBRANCH   8  12
TORSDOF 2
ENDMDL
MODEL      189
REMARK 921   NORMALIZED FREE ENERGY PREDICTED BY IDOCK:   -2.77 KCAL/MOL
REMARK 922        TOTAL FREE ENERGY PREDICTED BY IDOCK:   -3.07 KCAL/MOL
REMARK 923 INTER-LIGAND FREE ENERGY PREDICTED BY IDOCK:   -3.77 KCAL/MOL
REMARK 924 INTRA-LIGAND FREE ENERGY PREDICTED BY IDOCK:    0.70 KCAL/MOL
REMARK 927      BINDING AFFINITY PREDICTED BY RF-SCORE:    0.00 PKD
ROOT
HETATM    1  N   UNL     1     -11.484   6.226  70.011  1.00  0.00    -0.426 NA 
HETATM    2  H2  UNL     1     -12.357   6.329  70.531  1.00  0.00     0.000 HD 
HETATM    3  C   UNL     1     -10.868   7.317  69.500  1.00  0.00    -0.209 C  
HETATM    4  H1  UNL     1     -11.076   5.301  69.876  1.00  0.00     0.000 HD 
HETATM    5  N   UNL     1     -11.384   8.486  69.670  1.00  0.00    -0.435 N  
HETATM    6  C   UNL     1     -10.714   9.560  69.146  1.00  0.00    -0.210 C  
HETATM    7  H   UNL     1     -12.260   8.606  70.179  1.00  0.00     0.000 HD 
HETATM    8  N   UNL     1      -9.370   9.416  68.943  1.00  0.00    -0.152 N  
HETATM    9  O   UNL     1     -11.305  10.594  68.865  1.00  0.00    -0.249 OA 
HETATM   10  N   UNL     1      -9.724   7.112  68.804  1.00  0.00    -0.144 NA 
HETATM   11  C   UNL     1      -9.015   8.158  68.574  1.00  0.00    -0.137 C  
ENDROOT
BRANCH   8  12
HETATM   12  C1* UNL     1      -8.529  10.516  68.528  1.00  0.00    -0.131 C  
HETATM   13  O4* UNL     1      -9.277  11.263  67.540  1.00  0.00    -0.156 OA 
HETATM   14  C4* UNL     1      -8.915  10.759  66.230  1.00  0.00    -0.170 C  
HETATM   15  C3* UNL     1      -7.476  10.270  66.333  1.00  0.00    -0.114 C  
HETATM   16  H2* UNL     1      -5.402  11.177  67.698  1.00  0.00     0.000 HD 
HETATM   17  C2* UNL     1      -7.169  10.264  67.834  1.00  0.00    -0.085 C  
HETATM   18  O3* UNL     1      -6.619  11.145  65.594  1.00  0.00    -0.368 OA 
HETATM   19  O2* UNL     1      -6.237  11.332  68.125  1.00  0.00    -0.049 OA 
HETATM   20  H3* UNL     1      -5.722  10.840  65.658  1.00  0.00     0.000 HD 
BRANCH  14  21
HETATM   21  C5* UNL     1      -9.856   9.618  65.807  1.00  0.00    -0.302 C  
HETATM   22  O5* UNL     1      -9.173   8.689  64.973  1.00  0.00    -0.433 OA 
HETATM   23  H5* UNL     1      -9.755   7.984  64.711  1.00  0.00     0.000 HD 
ENDBRANCH  14  21
ENDBRANCH   8  12
TORSDOF 2
ENDMDL
MODEL      190
REMARK 921   NORMALIZED FREE ENERGY PREDICTED BY IDOCK:   -2.76 KCAL/MOL
REMARK 922        TOTAL FREE ENERGY PREDICTED BY IDOCK:   -3.06 KCAL/MOL
REMARK 923 INTER-LIGAND FREE ENERGY PREDICTED BY IDOCK:   -3.06 KCAL/MOL
REMARK 924 INTRA-LIGAND FREE ENERGY PREDICTED BY IDOCK:   -0.00 KCAL/MOL
REMARK 927      BINDING AFFINITY PREDICTED BY RF-SCORE:    0.00 PKD
ROOT
HETATM    1  N   UNL     1      -9.919   8.993  65.661  1.00  0.00    -0.413 NA 
HETATM    2  H2  UNL     1     -10.874   9.222  65.382  1.00  0.00     0.000 HD 
HETATM    3  C   UNL     1      -9.682   8.434  66.871  1.00  0.00    -0.227 C  
HETATM    4  H1  UNL     1      -9.142   9.184  65.029  1.00  0.00     0.000 HD 
HETATM    5  N   UNL     1     -10.664   8.191  67.670  1.00  0.00    -0.480 N  
HETATM    6  C   UNL     1     -10.374   7.612  68.877  1.00  0.00    -0.212 C  
HETATM    7  H   UNL     1     -11.624   8.423  67.412  1.00  0.00     0.000 HD 
HETATM    8  N   UNL     1      -9.217   6.889  68.957  1.00  0.00    -0.138 N  
HETATM    9  O   UNL     1     -11.120   7.751  69.838  1.00  0.00    -0.230 OA 
HETATM   10  N   UNL     1      -8.393   8.171  67.188  1.00  0.00    -0.119 NA 
HETATM   11  C   UNL     1      -8.212   7.397  68.198  1.00  0.00    -0.124 C  
ENDROOT
BRANCH   8  12
HETATM   12  C1* UNL     1      -8.870   6.115  70.128  1.00  0.00    -0.144 C  
HETATM   13  O4* UNL     1      -7.724   5.307  69.769  1.00  0.00    -0.070 OA 
HETATM   14  C4* UNL     1      -8.211   4.020  69.312  1.00  0.00    -0.061 C  
HETATM   15  C3* UNL     1      -9.510   3.755  70.061  1.00  0.00    -0.193 C  
HETATM   16  H2* UNL     1     -10.273   4.329  72.526  1.00  0.00     0.000 HD 
HETATM   17  C2* UNL     1      -9.859   5.088  70.729  1.00  0.00    -0.208 C  
HETATM   18  O3* UNL     1      -9.314   2.695  71.001  1.00  0.00    -0.121 OA 
HETATM   19  O2* UNL     1      -9.665   4.960  72.157  1.00  0.00    -0.153 OA 
HETATM   20  H3* UNL     1     -10.125   2.530  71.468  1.00  0.00     0.000 HD 
BRANCH  14  21
HETATM   21  C5* UNL     1      -8.442   4.034  67.792  1.00  0.00    -0.095 C  
HETATM   22  O5* UNL     1      -7.200   4.031  67.096  1.00  0.00    -0.066 OA 
HETATM   23  H5* UNL     1      -7.344   4.040  66.157  1.00  0.00     0.000 HD 
ENDBRANCH  14  21
ENDBRANCH   8  12
TORSDOF 2
ENDMDL
MODEL      191
REMARK 921   NORMALIZED FREE ENERGY PREDICTED BY IDOCK:   -2.74 KCAL/MOL
REMARK 922        TOTAL FREE ENERGY PREDICTED BY IDOCK:   -3.04 KCAL/MOL
REMARK 923 INTER-LIGAND FREE ENERGY PREDICTED BY IDOCK:   -2.98 KCAL/MOL
REMARK 924 INTRA-LIGAND FREE ENERGY PREDICTED BY IDOCK:   -0.05 KCAL/MOL
REMARK 927      BINDING AFFINITY PREDICTED BY RF-SCORE:    0.00 PKD
ROOT
HETATM    1  N   UNL     1     -11.214   6.716  66.736  1.00  0.00    -0.761 NA 
HETATM    2  H2  UNL     1     -12.207   6.510  66.853  1.00  0.00     0.000 HD 
HETATM    3  C   UNL     1     -10.469   7.087  67.804  1.00  0.00    -0.223 C  
HETATM    4  H1  UNL     1     -10.782   6.642  65.815  1.00  0.00     0.000 HD 
HETATM    5  N   UNL     1     -11.015   7.179  68.967  1.00  0.00    -0.422 N  
HETATM    6  C   UNL     1     -10.215   7.544  70.018  1.00  0.00    -0.215 C  
HETATM    7  H   UNL     1     -12.008   6.987  69.101  1.00  0.00     0.000 HD 
HETATM    8  N   UNL     1      -8.876   7.297  69.896  1.00  0.00    -0.142 N  
HETATM    9  O   UNL     1     -10.688   8.077  71.014  1.00  0.00    -0.216 OA 
HETATM   10  N   UNL     1      -9.163   7.364  67.579  1.00  0.00    -0.130 NA 
HETATM   11  C   UNL     1      -8.419   7.436  68.624  1.00  0.00    -0.129 C  
ENDROOT
BRANCH   8  12
HETATM   12  C1* UNL     1      -7.949   7.506  70.985  1.00  0.00    -0.095 C  
HETATM   13  O4* UNL     1      -6.800   6.667  70.721  1.00  0.00    -0.059 OA 
HETATM   14  C4* UNL     1      -7.002   5.404  71.402  1.00  0.00    -0.065 C  
HETATM   15  C3* UNL     1      -7.842   5.704  72.637  1.00  0.00    -0.102 C  
HETATM   16  H2* UNL     1      -7.887   7.777  74.276  1.00  0.00     0.000 HD 
HETATM   17  C2* UNL     1      -8.333   7.141  72.440  1.00  0.00    -0.108 C  
HETATM   18  O3* UNL     1      -7.041   5.545  73.811  1.00  0.00    -0.083 OA 
HETATM   19  O2* UNL     1      -7.651   8.001  73.384  1.00  0.00    -0.133 OA 
HETATM   20  H3* UNL     1      -7.565   5.732  74.581  1.00  0.00     0.000 HD 
BRANCH  14  21
HETATM   21  C5* UNL     1      -7.713   4.398  70.482  1.00  0.00    -0.053 C  
HETATM   22  O5* UNL     1      -6.989   4.230  69.268  1.00  0.00    -0.048 OA 
HETATM   23  H5* UNL     1      -7.429   3.609  68.700  1.00  0.00     0.000 HD 
ENDBRANCH  14  21
ENDBRANCH   8  12
TORSDOF 2
ENDMDL
MODEL      192
REMARK 921   NORMALIZED FREE ENERGY PREDICTED BY IDOCK:   -2.73 KCAL/MOL
REMARK 922        TOTAL FREE ENERGY PREDICTED BY IDOCK:   -3.02 KCAL/MOL
REMARK 923 INTER-LIGAND FREE ENERGY PREDICTED BY IDOCK:   -4.05 KCAL/MOL
REMARK 924 INTRA-LIGAND FREE ENERGY PREDICTED BY IDOCK:    1.03 KCAL/MOL
REMARK 927      BINDING AFFINITY PREDICTED BY RF-SCORE:    0.00 PKD
ROOT
HETATM    1  N   UNL     1      -5.626  15.847  68.261  1.00  0.00    -0.102 NA 
HETATM    2  H2  UNL     1      -4.732  15.389  68.438  1.00  0.00     0.000 HD 
HETATM    3  C   UNL     1      -6.689  15.120  67.845  1.00  0.00    -0.152 C  
HETATM    4  H1  UNL     1      -5.721  16.853  68.398  1.00  0.00     0.000 HD 
HETATM    5  N   UNL     1      -6.570  13.849  67.673  1.00  0.00    -0.177 N  
HETATM    6  C   UNL     1      -7.679  13.155  67.264  1.00  0.00    -0.098 C  
HETATM    7  H   UNL     1      -5.681  13.375  67.835  1.00  0.00     0.000 HD 
HETATM    8  N   UNL     1      -8.897  13.708  67.547  1.00  0.00    -0.193 N  
HETATM    9  O   UNL     1      -7.572  12.093  66.664  1.00  0.00    -0.009 OA 
HETATM   10  N   UNL     1      -7.842  15.790  67.610  1.00  0.00    -0.140 NA 
HETATM   11  C   UNL     1      -8.896  15.065  67.493  1.00  0.00    -0.185 C  
ENDROOT
BRANCH   8  12
HETATM   12  C1* UNL     1     -10.138  13.011  67.295  1.00  0.00    -0.235 C  
HETATM   13  O4* UNL     1     -10.196  12.763  65.870  1.00  0.00    -0.277 OA 
HETATM   14  C4* UNL     1     -10.921  13.858  65.256  1.00  0.00    -0.331 C  
HETATM   15  C3* UNL     1     -11.919  14.357  66.293  1.00  0.00    -0.376 C  
HETATM   16  H2* UNL     1     -13.332  13.089  68.131  1.00  0.00     0.000 HD 
HETATM   17  C2* UNL     1     -11.502  13.676  67.599  1.00  0.00    -0.325 C  
HETATM   18  O3* UNL     1     -13.246  14.014  65.884  1.00  0.00    -0.571 OA 
HETATM   19  O2* UNL     1     -12.495  12.680  67.944  1.00  0.00    -0.062 OA 
HETATM   20  H3* UNL     1     -13.868  14.326  66.531  1.00  0.00     0.000 HD 
BRANCH  14  21
HETATM   21  C5* UNL     1      -9.957  14.979  64.832  1.00  0.00    -0.032 C  
HETATM   22  O5* UNL     1     -10.679  16.090  64.313  1.00  0.00    -0.783 OA 
HETATM   23  H5* UNL     1     -10.083  16.783  64.052  1.00  0.00     0.000 HD 
ENDBRANCH  14  21
ENDBRANCH   8  12
TORSDOF 2
ENDMDL
MODEL      193
REMARK 921   NORMALIZED FREE ENERGY PREDICTED BY IDOCK:   -2.73 KCAL/MOL
REMARK 922        TOTAL FREE ENERGY PREDICTED BY IDOCK:   -3.02 KCAL/MOL
REMARK 923 INTER-LIGAND FREE ENERGY PREDICTED BY IDOCK:   -3.71 KCAL/MOL
REMARK 924 INTRA-LIGAND FREE ENERGY PREDICTED BY IDOCK:    0.69 KCAL/MOL
REMARK 927      BINDING AFFINITY PREDICTED BY RF-SCORE:    0.00 PKD
ROOT
HETATM    1  N   UNL     1     -11.241   5.044  65.627  1.00  0.00    -0.868 NA 
HETATM    2  H2  UNL     1     -10.794   4.411  64.963  1.00  0.00     0.000 HD 
HETATM    3  C   UNL     1     -10.570   5.454  66.729  1.00  0.00    -0.271 C  
HETATM    4  H1  UNL     1     -12.193   5.369  65.462  1.00  0.00     0.000 HD 
HETATM    5  N   UNL     1      -9.367   5.044  66.938  1.00  0.00    -0.125 N  
HETATM    6  C   UNL     1      -8.725   5.499  68.060  1.00  0.00    -0.106 C  
HETATM    7  H   UNL     1      -8.908   4.403  66.290  1.00  0.00     0.000 HD 
HETATM    8  N   UNL     1      -9.157   6.684  68.586  1.00  0.00    -0.127 N  
HETATM    9  O   UNL     1      -7.814   4.858  68.567  1.00  0.00    -0.080 OA 
HETATM   10  N   UNL     1     -11.225   6.279  67.580  1.00  0.00    -0.263 NA 
HETATM   11  C   UNL     1     -10.496   6.874  68.454  1.00  0.00    -0.204 C  
ENDROOT
BRANCH   8  12
HETATM   12  C1* UNL     1      -8.475   7.338  69.679  1.00  0.00    -0.133 C  
HETATM   13  O4* UNL     1      -8.166   6.312  70.652  1.00  0.00    -0.121 OA 
HETATM   14  C4* UNL     1      -9.247   6.272  71.617  1.00  0.00    -0.144 C  
HETATM   15  C3* UNL     1      -9.811   7.684  71.700  1.00  0.00    -0.162 C  
HETATM   16  H2* UNL     1      -8.652  10.055  71.549  1.00  0.00     0.000 HD 
HETATM   17  C2* UNL     1      -9.179   8.430  70.521  1.00  0.00    -0.151 C  
HETATM   18  O3* UNL     1      -9.478   8.260  72.966  1.00  0.00    -0.264 OA 
HETATM   19  O2* UNL     1      -8.220   9.386  71.032  1.00  0.00    -0.294 OA 
HETATM   20  H3* UNL     1      -9.829   9.141  73.017  1.00  0.00     0.000 HD 
BRANCH  14  21
HETATM   21  C5* UNL     1     -10.329   5.270  71.180  1.00  0.00    -0.221 C  
HETATM   22  O5* UNL     1      -9.830   3.938  71.233  1.00  0.00    -0.176 OA 
HETATM   23  H5* UNL     1     -10.499   3.320  70.963  1.00  0.00     0.000 HD 
ENDBRANCH  14  21
ENDBRANCH   8  12
TORSDOF 2
ENDMDL
MODEL      194
REMARK 921   NORMALIZED FREE ENERGY PREDICTED BY IDOCK:   -2.72 KCAL/MOL
REMARK 922        TOTAL FREE ENERGY PREDICTED BY IDOCK:   -3.01 KCAL/MOL
REMARK 923 INTER-LIGAND FREE ENERGY PREDICTED BY IDOCK:   -3.19 KCAL/MOL
REMARK 924 INTRA-LIGAND FREE ENERGY PREDICTED BY IDOCK:    0.18 KCAL/MOL
REMARK 927      BINDING AFFINITY PREDICTED BY RF-SCORE:    0.00 PKD
ROOT
HETATM    1  N   UNL     1      -9.433   3.628  72.300  1.00  0.00    -0.122 NA 
HETATM    2  H2  UNL     1     -10.226   3.552  72.939  1.00  0.00     0.000 HD 
HETATM    3  C   UNL     1      -9.499   4.458  71.233  1.00  0.00    -0.157 C  
HETATM    4  H1  UNL     1      -8.590   3.078  72.465  1.00  0.00     0.000 HD 
HETATM    5  N   UNL     1     -10.564   5.153  71.025  1.00  0.00    -0.180 N  
HETATM    6  C   UNL     1     -10.575   5.990  69.940  1.00  0.00    -0.279 C  
HETATM    7  H   UNL     1     -11.369   5.083  71.647  1.00  0.00     0.000 HD 
HETATM    8  N   UNL     1      -9.364   6.414  69.469  1.00  0.00    -0.143 N  
HETATM    9  O   UNL     1     -11.629   6.327  69.416  1.00  0.00    -0.403 OA 
HETATM   10  N   UNL     1      -8.421   4.499  70.415  1.00  0.00    -0.077 NA 
HETATM   11  C   UNL     1      -8.385   5.480  69.586  1.00  0.00    -0.102 C  
ENDROOT
BRANCH   8  12
HETATM   12  C1* UNL     1      -9.247   7.406  68.423  1.00  0.00    -0.138 C  
HETATM   13  O4* UNL     1      -8.146   8.271  68.791  1.00  0.00    -0.112 OA 
HETATM   14  C4* UNL     1      -8.689   9.399  69.520  1.00  0.00    -0.161 C  
HETATM   15  C3* UNL     1     -10.094   9.632  68.981  1.00  0.00    -0.186 C  
HETATM   16  H2* UNL     1     -11.112   9.388  66.554  1.00  0.00     0.000 HD 
HETATM   17  C2* UNL     1     -10.399   8.396  68.130  1.00  0.00    -0.204 C  
HETATM   18  O3* UNL     1     -10.123  10.848  68.228  1.00  0.00    -0.164 OA 
HETATM   19  O2* UNL     1     -10.405   8.780  66.734  1.00  0.00    -0.279 OA 
HETATM   20  H3* UNL     1     -10.999  10.993  67.892  1.00  0.00     0.000 HD 
BRANCH  14  21
HETATM   21  C5* UNL     1      -8.719   9.108  71.030  1.00  0.00    -0.189 C  
HETATM   22  O5* UNL     1      -7.406   9.166  71.578  1.00  0.00    -0.293 OA 
HETATM   23  H5* UNL     1      -7.425   8.986  72.510  1.00  0.00     0.000 HD 
ENDBRANCH  14  21
ENDBRANCH   8  12
TORSDOF 2
ENDMDL
MODEL      195
REMARK 921   NORMALIZED FREE ENERGY PREDICTED BY IDOCK:   -2.69 KCAL/MOL
REMARK 922        TOTAL FREE ENERGY PREDICTED BY IDOCK:   -2.98 KCAL/MOL
REMARK 923 INTER-LIGAND FREE ENERGY PREDICTED BY IDOCK:   -4.07 KCAL/MOL
REMARK 924 INTRA-LIGAND FREE ENERGY PREDICTED BY IDOCK:    1.09 KCAL/MOL
REMARK 927      BINDING AFFINITY PREDICTED BY RF-SCORE:    0.00 PKD
ROOT
HETATM    1  N   UNL     1      -5.962  14.639  69.107  1.00  0.00    -0.098 NA 
HETATM    2  H2  UNL     1      -5.586  15.344  69.742  1.00  0.00     0.000 HD 
HETATM    3  C   UNL     1      -7.280  14.639  68.798  1.00  0.00    -0.124 C  
HETATM    4  H1  UNL     1      -5.345  13.934  68.704  1.00  0.00     0.000 HD 
HETATM    5  N   UNL     1      -8.059  15.530  69.307  1.00  0.00    -0.235 N  
HETATM    6  C   UNL     1      -9.382  15.497  68.952  1.00  0.00    -0.222 C  
HETATM    7  H   UNL     1      -7.703  16.236  69.952  1.00  0.00     0.000 HD 
HETATM    8  N   UNL     1      -9.691  14.901  67.762  1.00  0.00    -0.211 N  
HETATM    9  O   UNL     1     -10.242  15.973  69.682  1.00  0.00    -0.258 OA 
HETATM   10  N   UNL     1      -7.719  13.667  67.964  1.00  0.00    -0.127 NA 
HETATM   11  C   UNL     1      -8.890  13.845  67.465  1.00  0.00    -0.196 C  
ENDROOT
BRANCH   8  12
HETATM   12  C1* UNL     1     -11.027  14.925  67.210  1.00  0.00    -0.323 C  
HETATM   13  O4* UNL     1     -11.872  14.197  68.133  1.00  0.00    -0.331 OA 
HETATM   14  C4* UNL     1     -11.933  12.818  67.691  1.00  0.00    -0.273 C  
HETATM   15  C3* UNL     1     -11.778  12.839  66.175  1.00  0.00    -0.403 C  
HETATM   16  H2* UNL     1     -12.620  14.547  64.341  1.00  0.00     0.000 HD 
HETATM   17  C2* UNL     1     -11.338  14.268  65.844  1.00  0.00    -0.328 C  
HETATM   18  O3* UNL     1     -13.021  12.482  65.562  1.00  0.00    -0.336 OA 
HETATM   19  O2* UNL     1     -12.429  14.950  65.180  1.00  0.00    -0.172 OA 
HETATM   20  H3* UNL     1     -12.924  12.495  64.617  1.00  0.00     0.000 HD 
BRANCH  14  21
HETATM   21  C5* UNL     1     -10.819  11.987  68.348  1.00  0.00    -0.233 C  
HETATM   22  O5* UNL     1     -10.632  10.760  67.651  1.00  0.00    -0.199 OA 
HETATM   23  H5* UNL     1      -9.944  10.246  68.057  1.00  0.00     0.000 HD 
ENDBRANCH  14  21
ENDBRANCH   8  12
TORSDOF 2
ENDMDL
MODEL      196
REMARK 921   NORMALIZED FREE ENERGY PREDICTED BY IDOCK:   -2.69 KCAL/MOL
REMARK 922        TOTAL FREE ENERGY PREDICTED BY IDOCK:   -2.98 KCAL/MOL
REMARK 923 INTER-LIGAND FREE ENERGY PREDICTED BY IDOCK:   -3.51 KCAL/MOL
REMARK 924 INTRA-LIGAND FREE ENERGY PREDICTED BY IDOCK:    0.53 KCAL/MOL
REMARK 927      BINDING AFFINITY PREDICTED BY RF-SCORE:    0.00 PKD
ROOT
HETATM    1  N   UNL     1      -6.536   7.319  67.497  1.00  0.00    -0.053 NA 
HETATM    2  H2  UNL     1      -6.679   6.313  67.403  1.00  0.00     0.000 HD 
HETATM    3  C   UNL     1      -7.597   8.159  67.492  1.00  0.00    -0.101 C  
HETATM    4  H1  UNL     1      -5.592   7.693  67.595  1.00  0.00     0.000 HD 
HETATM    5  N   UNL     1      -8.790   7.686  67.368  1.00  0.00    -0.124 N  
HETATM    6  C   UNL     1      -9.831   8.575  67.383  1.00  0.00    -0.187 C  
HETATM    7  H   UNL     1      -8.952   6.684  67.263  1.00  0.00     0.000 HD 
HETATM    8  N   UNL     1      -9.619   9.771  68.010  1.00  0.00    -0.142 N  
HETATM    9  O   UNL     1     -10.898   8.305  66.846  1.00  0.00    -0.228 OA 
HETATM   10  N   UNL     1      -7.338   9.483  67.602  1.00  0.00    -0.083 NA 
HETATM   11  C   UNL     1      -8.347  10.229  67.876  1.00  0.00    -0.114 C  
ENDROOT
BRANCH   8  12
HETATM   12  C1* UNL     1     -10.677  10.735  68.216  1.00  0.00    -0.213 C  
HETATM   13  O4* UNL     1     -11.449  10.774  66.993  1.00  0.00    -0.349 OA 
HETATM   14  C4* UNL     1     -10.919  11.837  66.164  1.00  0.00    -0.307 C  
HETATM   15  C3* UNL     1     -10.367  12.895  67.111  1.00  0.00    -0.238 C  
HETATM   16  H2* UNL     1     -11.190  13.745  69.475  1.00  0.00     0.000 HD 
HETATM   17  C2* UNL     1     -10.358  12.225  68.487  1.00  0.00    -0.223 C  
HETATM   18  O3* UNL     1     -11.196  14.060  67.064  1.00  0.00    -0.297 OA 
HETATM   19  O2* UNL     1     -11.386  12.830  69.309  1.00  0.00    -0.263 OA 
HETATM   20  H3* UNL     1     -10.852  14.719  67.654  1.00  0.00     0.000 HD 
BRANCH  14  21
HETATM   21  C5* UNL     1      -9.818  11.303  65.231  1.00  0.00    -0.246 C  
HETATM   22  O5* UNL     1     -10.303  10.210  64.460  1.00  0.00    -0.342 OA 
HETATM   23  H5* UNL     1      -9.622   9.880  63.884  1.00  0.00     0.000 HD 
ENDBRANCH  14  21
ENDBRANCH   8  12
TORSDOF 2
ENDMDL
MODEL      197
REMARK 921   NORMALIZED FREE ENERGY PREDICTED BY IDOCK:   -2.68 KCAL/MOL
REMARK 922        TOTAL FREE ENERGY PREDICTED BY IDOCK:   -2.97 KCAL/MOL
REMARK 923 INTER-LIGAND FREE ENERGY PREDICTED BY IDOCK:   -3.27 KCAL/MOL
REMARK 924 INTRA-LIGAND FREE ENERGY PREDICTED BY IDOCK:    0.30 KCAL/MOL
REMARK 927      BINDING AFFINITY PREDICTED BY RF-SCORE:    0.00 PKD
ROOT
HETATM    1  N   UNL     1      -8.308   7.658  70.012  1.00  0.00    -0.132 NA 
HETATM    2  H2  UNL     1      -8.960   6.882  70.134  1.00  0.00     0.000 HD 
HETATM    3  C   UNL     1      -8.243   8.309  68.826  1.00  0.00    -0.117 C  
HETATM    4  H1  UNL     1      -7.705   7.944  70.783  1.00  0.00     0.000 HD 
HETATM    5  N   UNL     1      -9.006   7.947  67.853  1.00  0.00    -0.130 N  
HETATM    6  C   UNL     1      -8.913   8.646  66.678  1.00  0.00    -0.145 C  
HETATM    7  H   UNL     1      -9.656   7.167  67.953  1.00  0.00     0.000 HD 
HETATM    8  N   UNL     1      -8.439   9.926  66.752  1.00  0.00    -0.124 N  
HETATM    9  O   UNL     1      -9.232   8.133  65.613  1.00  0.00    -0.108 OA 
HETATM   10  N   UNL     1      -7.345   9.317  68.723  1.00  0.00    -0.074 NA 
HETATM   11  C   UNL     1      -7.491  10.093  67.710  1.00  0.00    -0.089 C  
ENDROOT
BRANCH   8  12
HETATM   12  C1* UNL     1      -8.425  10.812  65.610  1.00  0.00    -0.163 C  
HETATM   13  O4* UNL     1      -9.066  12.041  66.027  1.00  0.00    -0.191 OA 
HETATM   14  C4* UNL     1     -10.471  11.951  65.686  1.00  0.00    -0.262 C  
HETATM   15  C3* UNL     1     -10.564  11.068  64.448  1.00  0.00    -0.325 C  
HETATM   16  H2* UNL     1      -8.974  10.798  62.353  1.00  0.00     0.000 HD 
HETATM   17  C2* UNL     1      -9.173  10.443  64.305  1.00  0.00    -0.255 C  
HETATM   18  O3* UNL     1     -10.936  11.863  63.319  1.00  0.00    -0.601 OA 
HETATM   19  O2* UNL     1      -8.516  11.024  63.154  1.00  0.00    -0.087 OA 
HETATM   20  H3* UNL     1     -10.994  11.311  62.547  1.00  0.00     0.000 HD 
BRANCH  14  21
HETATM   21  C5* UNL     1     -11.278  11.354  66.851  1.00  0.00    -0.264 C  
HETATM   22  O5* UNL     1     -10.986  12.039  68.065  1.00  0.00    -0.201 OA 
HETATM   23  H5* UNL     1     -11.485  11.670  68.785  1.00  0.00     0.000 HD 
ENDBRANCH  14  21
ENDBRANCH   8  12
TORSDOF 2
ENDMDL
MODEL      198
REMARK 921   NORMALIZED FREE ENERGY PREDICTED BY IDOCK:   -2.67 KCAL/MOL
REMARK 922        TOTAL FREE ENERGY PREDICTED BY IDOCK:   -2.96 KCAL/MOL
REMARK 923 INTER-LIGAND FREE ENERGY PREDICTED BY IDOCK:   -3.53 KCAL/MOL
REMARK 924 INTRA-LIGAND FREE ENERGY PREDICTED BY IDOCK:    0.57 KCAL/MOL
REMARK 927      BINDING AFFINITY PREDICTED BY RF-SCORE:    0.00 PKD
ROOT
HETATM    1  N   UNL     1     -10.700  12.962  68.940  1.00  0.00    -0.374 NA 
HETATM    2  H2  UNL     1     -10.033  13.641  69.309  1.00  0.00     0.000 HD 
HETATM    3  C   UNL     1     -10.338  11.666  68.793  1.00  0.00    -0.195 C  
HETATM    4  H1  UNL     1     -11.641  13.260  68.681  1.00  0.00     0.000 HD 
HETATM    5  N   UNL     1      -9.150  11.290  69.121  1.00  0.00    -0.402 N  
HETATM    6  C   UNL     1      -8.837   9.966  68.967  1.00  0.00    -0.156 C  
HETATM    7  H   UNL     1      -8.467  11.956  69.482  1.00  0.00     0.000 HD 
HETATM    8  N   UNL     1      -9.874   9.076  68.976  1.00  0.00    -0.171 N  
HETATM    9  O   UNL     1      -7.676   9.606  68.819  1.00  0.00    -0.078 OA 
HETATM   10  N   UNL     1     -11.263  10.820  68.281  1.00  0.00    -0.276 NA 
HETATM   11  C   UNL     1     -11.008   9.568  68.411  1.00  0.00    -0.069 C  
ENDROOT
BRANCH   8  12
HETATM   12  C1* UNL     1      -9.666   7.645  68.964  1.00  0.00    -0.160 C  
HETATM   13  O4* UNL     1      -8.694   7.375  67.926  1.00  0.00    -0.124 OA 
HETATM   14  C4* UNL     1      -9.416   7.076  66.705  1.00  0.00    -0.163 C  
HETATM   15  C3* UNL     1     -10.735   6.440  67.123  1.00  0.00    -0.361 C  
HETATM   16  H2* UNL     1     -11.355   4.811  69.111  1.00  0.00     0.000 HD 
HETATM   17  C2* UNL     1     -10.824   6.673  68.634  1.00  0.00    -0.262 C  
HETATM   18  O3* UNL     1     -10.731   5.053  66.773  1.00  0.00    -0.310 OA 
HETATM   19  O2* UNL     1     -10.644   5.408  69.314  1.00  0.00    -0.258 OA 
HETATM   20  H3* UNL     1     -11.554   4.656  67.033  1.00  0.00     0.000 HD 
BRANCH  14  21
HETATM   21  C5* UNL     1      -9.655   8.356  65.887  1.00  0.00    -0.049 C  
HETATM   22  O5* UNL     1      -8.454   9.112  65.779  1.00  0.00    -0.128 OA 
HETATM   23  H5* UNL     1      -8.602   9.903  65.273  1.00  0.00     0.000 HD 
ENDBRANCH  14  21
ENDBRANCH   8  12
TORSDOF 2
ENDMDL
MODEL      199
REMARK 921   NORMALIZED FREE ENERGY PREDICTED BY IDOCK:   -2.67 KCAL/MOL
REMARK 922        TOTAL FREE ENERGY PREDICTED BY IDOCK:   -2.95 KCAL/MOL
REMARK 923 INTER-LIGAND FREE ENERGY PREDICTED BY IDOCK:   -2.98 KCAL/MOL
REMARK 924 INTRA-LIGAND FREE ENERGY PREDICTED BY IDOCK:    0.02 KCAL/MOL
REMARK 927      BINDING AFFINITY PREDICTED BY RF-SCORE:    0.00 PKD
ROOT
HETATM    1  N   UNL     1     -10.510  20.739  65.882  1.00  0.00     0.093 NA 
HETATM    2  H2  UNL     1     -11.064  21.292  66.537  1.00  0.00     0.000 HD 
HETATM    3  C   UNL     1      -9.465  20.004  66.330  1.00  0.00    -0.403 C  
HETATM    4  H1  UNL     1     -10.743  20.739  64.890  1.00  0.00     0.000 HD 
HETATM    5  N   UNL     1      -9.170  20.004  67.585  1.00  0.00    -0.341 N  
HETATM    6  C   UNL     1      -8.113  19.234  67.990  1.00  0.00    -0.306 C  
HETATM    7  H   UNL     1      -9.706  20.559  68.253  1.00  0.00     0.000 HD 
HETATM    8  N   UNL     1      -7.776  18.173  67.197  1.00  0.00    -0.216 N  
HETATM    9  O   UNL     1      -7.496  19.499  69.014  1.00  0.00    -0.363 OA 
HETATM   10  N   UNL     1      -8.759  19.308  65.408  1.00  0.00     0.249 NA 
HETATM   11  C   UNL     1      -7.965  18.411  65.873  1.00  0.00    -0.005 C  
ENDROOT
BRANCH   8  12
HETATM   12  C1* UNL     1      -6.775  17.205  67.585  1.00  0.00    -0.142 C  
HETATM   13  O4* UNL     1      -7.024  16.012  66.804  1.00  0.00    -0.215 OA 
HETATM   14  C4* UNL     1      -7.878  15.138  67.583  1.00  0.00    -0.160 C  
HETATM   15  C3* UNL     1      -7.557  15.406  69.048  1.00  0.00    -0.177 C  
HETATM   16  H2* UNL     1      -5.292  15.994  70.276  1.00  0.00     0.000 HD 
HETATM   17  C2* UNL     1      -6.698  16.674  69.037  1.00  0.00    -0.202 C  
HETATM   18  O3* UNL     1      -6.877  14.277  69.603  1.00  0.00    -0.191 OA 
HETATM   19  O2* UNL     1      -5.338  16.320  69.385  1.00  0.00    -0.112 OA 
HETATM   20  H3* UNL     1      -6.677  14.445  70.517  1.00  0.00     0.000 HD 
BRANCH  14  21
HETATM   21  C5* UNL     1      -9.360  15.417  67.282  1.00  0.00    -0.210 C  
HETATM   22  O5* UNL     1      -9.862  14.488  66.328  1.00  0.00    -0.276 OA 
HETATM   23  H5* UNL     1     -10.778  14.661  66.143  1.00  0.00     0.000 HD 
ENDBRANCH  14  21
ENDBRANCH   8  12
TORSDOF 2
ENDMDL
MODEL      200
REMARK 921   NORMALIZED FREE ENERGY PREDICTED BY IDOCK:   -2.66 KCAL/MOL
REMARK 922        TOTAL FREE ENERGY PREDICTED BY IDOCK:   -2.95 KCAL/MOL
REMARK 923 INTER-LIGAND FREE ENERGY PREDICTED BY IDOCK:   -3.50 KCAL/MOL
REMARK 924 INTRA-LIGAND FREE ENERGY PREDICTED BY IDOCK:    0.54 KCAL/MOL
REMARK 927      BINDING AFFINITY PREDICTED BY RF-SCORE:    0.00 PKD
ROOT
HETATM    1  N   UNL     1      -9.060  14.094  68.926  1.00  0.00    -0.381 NA 
HETATM    2  H2  UNL     1      -9.811  14.451  69.519  1.00  0.00     0.000 HD 
HETATM    3  C   UNL     1      -9.267  13.000  68.157  1.00  0.00    -0.212 C  
HETATM    4  H1  UNL     1      -8.154  14.561  68.913  1.00  0.00     0.000 HD 
HETATM    5  N   UNL     1     -10.413  12.410  68.174  1.00  0.00    -0.213 N  
HETATM    6  C   UNL     1     -10.577  11.315  67.367  1.00  0.00    -0.224 C  
HETATM    7  H   UNL     1     -11.171  12.747  68.768  1.00  0.00     0.000 HD 
HETATM    8  N   UNL     1      -9.763  11.222  66.273  1.00  0.00    -0.209 N  
HETATM    9  O   UNL     1     -11.412  10.459  67.628  1.00  0.00    -0.401 OA 
HETATM   10  N   UNL     1      -8.227  12.566  67.407  1.00  0.00    -0.174 NA 
HETATM   11  C   UNL     1      -8.516  11.717  66.487  1.00  0.00    -0.125 C  
ENDROOT
BRANCH   8  12
HETATM   12  C1* UNL     1      -9.930  10.193  65.271  1.00  0.00    -0.311 C  
HETATM   13  O4* UNL     1     -10.241   8.969  65.977  1.00  0.00    -0.225 OA 
HETATM   14  C4* UNL     1      -9.000   8.259  66.209  1.00  0.00    -0.183 C  
HETATM   15  C3* UNL     1      -8.070   8.617  65.057  1.00  0.00    -0.143 C  
HETATM   16  H2* UNL     1      -8.535   9.073  62.495  1.00  0.00     0.000 HD 
HETATM   17  C2* UNL     1      -8.760   9.784  64.344  1.00  0.00    -0.206 C  
HETATM   18  O3* UNL     1      -7.891   7.477  64.213  1.00  0.00    -0.128 OA 
HETATM   19  O2* UNL     1      -9.253   9.324  63.063  1.00  0.00    -0.098 OA 
HETATM   20  H3* UNL     1      -7.311   7.701  63.494  1.00  0.00     0.000 HD 
BRANCH  14  21
HETATM   21  C5* UNL     1      -8.386   8.662  67.560  1.00  0.00    -0.120 C  
HETATM   22  O5* UNL     1      -9.311   8.437  68.618  1.00  0.00    -0.143 OA 
HETATM   23  H5* UNL     1      -8.931   8.686  69.453  1.00  0.00     0.000 HD 
ENDBRANCH  14  21
ENDBRANCH   8  12
TORSDOF 2
ENDMDL
MODEL      201
REMARK 921   NORMALIZED FREE ENERGY PREDICTED BY IDOCK:   -2.64 KCAL/MOL
REMARK 922        TOTAL FREE ENERGY PREDICTED BY IDOCK:   -2.93 KCAL/MOL
REMARK 923 INTER-LIGAND FREE ENERGY PREDICTED BY IDOCK:   -3.74 KCAL/MOL
REMARK 924 INTRA-LIGAND FREE ENERGY PREDICTED BY IDOCK:    0.81 KCAL/MOL
REMARK 927      BINDING AFFINITY PREDICTED BY RF-SCORE:    0.00 PKD
ROOT
HETATM    1  N   UNL     1     -10.293   3.882  72.529  1.00  0.00    -0.162 NA 
HETATM    2  H2  UNL     1     -11.050   3.668  73.180  1.00  0.00     0.000 HD 
HETATM    3  C   UNL     1     -10.296   5.052  71.847  1.00  0.00    -0.204 C  
HETATM    4  H1  UNL     1      -9.534   3.215  72.391  1.00  0.00     0.000 HD 
HETATM    5  N   UNL     1     -11.255   5.895  72.022  1.00  0.00    -0.274 N  
HETATM    6  C   UNL     1     -11.205   7.070  71.320  1.00  0.00    -0.264 C  
HETATM    7  H   UNL     1     -12.025   5.693  72.661  1.00  0.00     0.000 HD 
HETATM    8  N   UNL     1      -9.974   7.494  70.904  1.00  0.00    -0.181 N  
HETATM    9  O   UNL     1     -12.225   7.700  71.072  1.00  0.00    -0.301 OA 
HETATM   10  N   UNL     1      -9.274   5.267  70.986  1.00  0.00    -0.145 NA 
HETATM   11  C   UNL     1      -9.140   6.475  70.569  1.00  0.00    -0.152 C  
ENDROOT
BRANCH   8  12
HETATM   12  C1* UNL     1      -9.770   8.782  70.280  1.00  0.00    -0.176 C  
HETATM   13  O4* UNL     1     -10.733   8.881  69.204  1.00  0.00    -0.217 OA 
HETATM   14  C4* UNL     1     -10.094   8.417  67.989  1.00  0.00    -0.199 C  
HETATM   15  C3* UNL     1      -8.611   8.738  68.126  1.00  0.00    -0.134 C  
HETATM   16  H2* UNL     1      -7.345  10.771  69.246  1.00  0.00     0.000 HD 
HETATM   17  C2* UNL     1      -8.428   9.133  69.594  1.00  0.00    -0.133 C  
HETATM   18  O3* UNL     1      -8.262   9.788  67.219  1.00  0.00    -0.116 OA 
HETATM   19  O2* UNL     1      -8.169  10.555  69.667  1.00  0.00    -0.128 OA 
HETATM   20  H3* UNL     1      -7.338   9.988  67.305  1.00  0.00     0.000 HD 
BRANCH  14  21
HETATM   21  C5* UNL     1     -10.316   6.908  67.799  1.00  0.00    -0.203 C  
HETATM   22  O5* UNL     1     -11.630   6.652  67.315  1.00  0.00    -0.747 OA 
HETATM   23  H5* UNL     1     -11.767   5.719  67.197  1.00  0.00     0.000 HD 
ENDBRANCH  14  21
ENDBRANCH   8  12
TORSDOF 2
ENDMDL
MODEL      202
REMARK 921   NORMALIZED FREE ENERGY PREDICTED BY IDOCK:   -2.63 KCAL/MOL
REMARK 922        TOTAL FREE ENERGY PREDICTED BY IDOCK:   -2.92 KCAL/MOL
REMARK 923 INTER-LIGAND FREE ENERGY PREDICTED BY IDOCK:   -3.02 KCAL/MOL
REMARK 924 INTRA-LIGAND FREE ENERGY PREDICTED BY IDOCK:    0.10 KCAL/MOL
REMARK 927      BINDING AFFINITY PREDICTED BY RF-SCORE:    0.00 PKD
ROOT
HETATM    1  N   UNL     1      -5.684  15.896  68.205  1.00  0.00    -0.104 NA 
HETATM    2  H2  UNL     1      -4.780  15.551  68.530  1.00  0.00     0.000 HD 
HETATM    3  C   UNL     1      -6.657  15.023  67.855  1.00  0.00    -0.158 C  
HETATM    4  H1  UNL     1      -5.856  16.899  68.145  1.00  0.00     0.000 HD 
HETATM    5  N   UNL     1      -6.440  13.755  67.931  1.00  0.00    -0.146 N  
HETATM    6  C   UNL     1      -7.460  12.912  67.579  1.00  0.00    -0.155 C  
HETATM    7  H   UNL     1      -5.539  13.392  68.244  1.00  0.00     0.000 HD 
HETATM    8  N   UNL     1      -8.732  13.406  67.663  1.00  0.00    -0.185 N  
HETATM    9  O   UNL     1      -7.232  11.772  67.196  1.00  0.00    -0.132 OA 
HETATM   10  N   UNL     1      -7.826  15.544  67.415  1.00  0.00    -0.168 NA 
HETATM   11  C   UNL     1      -8.816  14.727  67.358  1.00  0.00    -0.193 C  
ENDROOT
BRANCH   8  12
HETATM   12  C1* UNL     1      -9.898  12.577  67.455  1.00  0.00    -0.198 C  
HETATM   13  O4* UNL     1     -11.053  13.414  67.702  1.00  0.00    -0.253 OA 
HETATM   14  C4* UNL     1     -11.435  13.251  69.090  1.00  0.00    -0.305 C  
HETATM   15  C3* UNL     1     -11.040  11.835  69.488  1.00  0.00    -0.133 C  
HETATM   16  H2* UNL     1     -11.050   9.559  68.143  1.00  0.00     0.000 HD 
HETATM   17  C2* UNL     1     -10.161  11.334  68.339  1.00  0.00    -0.195 C  
HETATM   18  O3* UNL     1     -12.217  11.044  69.675  1.00  0.00    -0.330 OA 
HETATM   19  O2* UNL     1     -10.888  10.323  67.601  1.00  0.00    -0.271 OA 
HETATM   20  H3* UNL     1     -11.970  10.161  69.924  1.00  0.00     0.000 HD 
BRANCH  14  21
HETATM   21  C5* UNL     1     -10.727  14.291  69.975  1.00  0.00     0.246 C  
HETATM   22  O5* UNL     1     -11.226  14.238  71.307  1.00  0.00    -0.341 OA 
HETATM   23  H5* UNL     1     -10.789  14.881  71.853  1.00  0.00     0.000 HD 
ENDBRANCH  14  21
ENDBRANCH   8  12
TORSDOF 2
ENDMDL
MODEL      203
REMARK 921   NORMALIZED FREE ENERGY PREDICTED BY IDOCK:   -2.62 KCAL/MOL
REMARK 922        TOTAL FREE ENERGY PREDICTED BY IDOCK:   -2.91 KCAL/MOL
REMARK 923 INTER-LIGAND FREE ENERGY PREDICTED BY IDOCK:   -3.62 KCAL/MOL
REMARK 924 INTRA-LIGAND FREE ENERGY PREDICTED BY IDOCK:    0.71 KCAL/MOL
REMARK 927      BINDING AFFINITY PREDICTED BY RF-SCORE:    0.00 PKD
ROOT
HETATM    1  N   UNL     1     -10.910   6.456  66.787  1.00  0.00    -0.542 NA 
HETATM    2  H2  UNL     1     -11.375   7.185  66.246  1.00  0.00     0.000 HD 
HETATM    3  C   UNL     1     -10.745   6.604  68.123  1.00  0.00    -0.258 C  
HETATM    4  H1  UNL     1     -10.569   5.614  66.323  1.00  0.00     0.000 HD 
HETATM    5  N   UNL     1     -11.176   7.667  68.709  1.00  0.00    -0.316 N  
HETATM    6  C   UNL     1     -10.998   7.763  70.064  1.00  0.00    -0.214 C  
HETATM    7  H   UNL     1     -11.635   8.411  68.183  1.00  0.00     0.000 HD 
HETATM    8  N   UNL     1     -10.861   6.594  70.758  1.00  0.00    -0.240 N  
HETATM    9  O   UNL     1     -10.955   8.854  70.618  1.00  0.00    -0.224 OA 
HETATM   10  N   UNL     1     -10.103   5.609  68.780  1.00  0.00    -0.170 NA 
HETATM   11  C   UNL     1     -10.204   5.630  70.061  1.00  0.00    -0.252 C  
ENDROOT
BRANCH   8  12
HETATM   12  C1* UNL     1     -10.808   6.553  72.202  1.00  0.00    -0.232 C  
HETATM   13  O4* UNL     1      -9.964   7.653  72.619  1.00  0.00    -0.186 OA 
HETATM   14  C4* UNL     1      -8.612   7.151  72.757  1.00  0.00    -0.114 C  
HETATM   15  C3* UNL     1      -8.729   5.686  73.157  1.00  0.00    -0.120 C  
HETATM   16  H2* UNL     1     -10.462   4.412  74.692  1.00  0.00     0.000 HD 
HETATM   17  C2* UNL     1     -10.204   5.337  72.945  1.00  0.00    -0.183 C  
HETATM   18  O3* UNL     1      -8.308   5.525  74.514  1.00  0.00    -0.106 OA 
HETATM   19  O2* UNL     1     -10.833   5.159  74.236  1.00  0.00    -0.309 OA 
HETATM   20  H3* UNL     1      -8.381   4.611  74.763  1.00  0.00     0.000 HD 
BRANCH  14  21
HETATM   21  C5* UNL     1      -7.837   7.303  71.437  1.00  0.00    -0.096 C  
HETATM   22  O5* UNL     1      -6.740   6.397  71.393  1.00  0.00    -0.053 OA 
HETATM   23  H5* UNL     1      -6.261   6.492  70.578  1.00  0.00     0.000 HD 
ENDBRANCH  14  21
ENDBRANCH   8  12
TORSDOF 2
ENDMDL
MODEL      204
REMARK 921   NORMALIZED FREE ENERGY PREDICTED BY IDOCK:   -2.61 KCAL/MOL
REMARK 922        TOTAL FREE ENERGY PREDICTED BY IDOCK:   -2.89 KCAL/MOL
REMARK 923 INTER-LIGAND FREE ENERGY PREDICTED BY IDOCK:   -3.44 KCAL/MOL
REMARK 924 INTRA-LIGAND FREE ENERGY PREDICTED BY IDOCK:    0.54 KCAL/MOL
REMARK 927      BINDING AFFINITY PREDICTED BY RF-SCORE:    0.00 PKD
ROOT
HETATM    1  N   UNL     1      -8.243   3.421  66.378  1.00  0.00    -0.095 NA 
HETATM    2  H2  UNL     1      -8.519   3.288  65.405  1.00  0.00     0.000 HD 
HETATM    3  C   UNL     1      -8.942   4.266  67.172  1.00  0.00    -0.123 C  
HETATM    4  H1  UNL     1      -7.440   2.917  66.754  1.00  0.00     0.000 HD 
HETATM    5  N   UNL     1      -9.956   4.903  66.697  1.00  0.00    -0.204 N  
HETATM    6  C   UNL     1     -10.639   5.735  67.544  1.00  0.00    -0.253 C  
HETATM    7  H   UNL     1     -10.241   4.791  65.724  1.00  0.00     0.000 HD 
HETATM    8  N   UNL     1     -10.548   5.471  68.882  1.00  0.00    -0.217 N  
HETATM    9  O   UNL     1     -11.290   6.678  67.112  1.00  0.00    -0.343 OA 
HETATM   10  N   UNL     1      -8.513   4.411  68.448  1.00  0.00    -0.092 NA 
HETATM   11  C   UNL     1      -9.335   4.984  69.252  1.00  0.00    -0.125 C  
ENDROOT
BRANCH   8  12
HETATM   12  C1* UNL     1     -11.330   6.186  69.866  1.00  0.00    -0.384 C  
HETATM   13  O4* UNL     1     -11.295   7.583  69.490  1.00  0.00    -0.034 OA 
HETATM   14  C4* UNL     1     -10.199   8.210  70.203  1.00  0.00    -0.199 C  
HETATM   15  C3* UNL     1     -10.044   7.454  71.516  1.00  0.00    -0.185 C  
HETATM   16  H2* UNL     1     -11.818   6.341  73.128  1.00  0.00     0.000 HD 
HETATM   17  C2* UNL     1     -10.914   6.204  71.356  1.00  0.00    -0.277 C  
HETATM   18  O3* UNL     1     -10.461   8.288  72.601  1.00  0.00    -0.320 OA 
HETATM   19  O2* UNL     1     -12.074   6.329  72.213  1.00  0.00    -0.304 OA 
HETATM   20  H3* UNL     1     -10.364   7.817  73.420  1.00  0.00     0.000 HD 
BRANCH  14  21
HETATM   21  C5* UNL     1      -8.905   8.148  69.374  1.00  0.00    -0.143 C  
HETATM   22  O5* UNL     1      -9.093   8.764  68.105  1.00  0.00    -0.140 OA 
HETATM   23  H5* UNL     1      -8.294   8.725  67.593  1.00  0.00     0.000 HD 
ENDBRANCH  14  21
ENDBRANCH   8  12
TORSDOF 2
ENDMDL
MODEL      205
REMARK 921   NORMALIZED FREE ENERGY PREDICTED BY IDOCK:   -2.59 KCAL/MOL
REMARK 922        TOTAL FREE ENERGY PREDICTED BY IDOCK:   -2.86 KCAL/MOL
REMARK 923 INTER-LIGAND FREE ENERGY PREDICTED BY IDOCK:   -2.87 KCAL/MOL
REMARK 924 INTRA-LIGAND FREE ENERGY PREDICTED BY IDOCK:    0.00 KCAL/MOL
REMARK 927      BINDING AFFINITY PREDICTED BY RF-SCORE:    0.00 PKD
ROOT
HETATM    1  N   UNL     1      -9.170   6.619  65.282  1.00  0.00    -0.218 NA 
HETATM    2  H2  UNL     1      -8.375   6.164  64.832  1.00  0.00     0.000 HD 
HETATM    3  C   UNL     1      -9.299   6.579  66.629  1.00  0.00    -0.158 C  
HETATM    4  H1  UNL     1      -9.867   7.104  64.719  1.00  0.00     0.000 HD 
HETATM    5  N   UNL     1      -8.418   5.965  67.341  1.00  0.00    -0.105 N  
HETATM    6  C   UNL     1      -8.586   5.965  68.701  1.00  0.00    -0.110 C  
HETATM    7  H   UNL     1      -7.622   5.497  66.908  1.00  0.00     0.000 HD 
HETATM    8  N   UNL     1      -9.328   6.981  69.235  1.00  0.00    -0.146 N  
HETATM    9  O   UNL     1      -8.099   5.084  69.396  1.00  0.00    -0.078 OA 
HETATM   10  N   UNL     1     -10.385   7.186  67.163  1.00  0.00    -0.257 NA 
HETATM   11  C   UNL     1     -10.348   7.382  68.433  1.00  0.00    -0.194 C  
ENDROOT
BRANCH   8  12
HETATM   12  C1* UNL     1      -9.462   7.172  70.662  1.00  0.00    -0.161 C  
HETATM   13  O4* UNL     1      -9.882   8.543  70.862  1.00  0.00    -0.174 OA 
HETATM   14  C4* UNL     1      -8.696   9.349  71.069  1.00  0.00     0.004 C  
HETATM   15  C3* UNL     1      -7.663   8.443  71.729  1.00  0.00    -0.116 C  
HETATM   16  H2* UNL     1      -7.904   6.490  73.493  1.00  0.00     0.000 HD 
HETATM   17  C2* UNL     1      -8.242   7.031  71.604  1.00  0.00    -0.104 C  
HETATM   18  O3* UNL     1      -7.469   8.848  73.087  1.00  0.00    -0.360 OA 
HETATM   19  O2* UNL     1      -8.653   6.577  72.915  1.00  0.00    -0.123 OA 
HETATM   20  H3* UNL     1      -6.825   8.283  73.498  1.00  0.00     0.000 HD 
BRANCH  14  21
HETATM   21  C5* UNL     1      -8.173   9.901  69.733  1.00  0.00    -0.180 C  
HETATM   22  O5* UNL     1      -8.885  11.077  69.364  1.00  0.00    -0.388 OA 
HETATM   23  H5* UNL     1      -8.561  11.418  68.538  1.00  0.00     0.000 HD 
ENDBRANCH  14  21
ENDBRANCH   8  12
TORSDOF 2
ENDMDL
MODEL      206
REMARK 921   NORMALIZED FREE ENERGY PREDICTED BY IDOCK:   -2.50 KCAL/MOL
REMARK 922        TOTAL FREE ENERGY PREDICTED BY IDOCK:   -2.76 KCAL/MOL
REMARK 923 INTER-LIGAND FREE ENERGY PREDICTED BY IDOCK:   -3.30 KCAL/MOL
REMARK 924 INTRA-LIGAND FREE ENERGY PREDICTED BY IDOCK:    0.54 KCAL/MOL
REMARK 927      BINDING AFFINITY PREDICTED BY RF-SCORE:    0.00 PKD
ROOT
HETATM    1  N   UNL     1      -9.543  11.367  67.436  1.00  0.00    -0.173 NA 
HETATM    2  H2  UNL     1      -9.068  12.248  67.636  1.00  0.00     0.000 HD 
HETATM    3  C   UNL     1      -9.547  10.374  68.355  1.00  0.00    -0.148 C  
HETATM    4  H1  UNL     1     -10.016  11.234  66.542  1.00  0.00     0.000 HD 
HETATM    5  N   UNL     1      -8.949  10.542  69.485  1.00  0.00    -0.388 N  
HETATM    6  C   UNL     1      -8.993   9.513  70.388  1.00  0.00    -0.243 C  
HETATM    7  H   UNL     1      -8.461  11.412  69.699  1.00  0.00     0.000 HD 
HETATM    8  N   UNL     1     -10.032   8.631  70.275  1.00  0.00    -0.182 N  
HETATM    9  O   UNL     1      -8.130   9.391  71.247  1.00  0.00    -0.319 OA 
HETATM   10  N   UNL     1     -10.179   9.224  68.021  1.00  0.00    -0.198 NA 
HETATM   11  C   UNL     1     -10.414   8.414  68.989  1.00  0.00    -0.201 C  
ENDROOT
BRANCH   8  12
HETATM   12  C1* UNL     1     -10.269   7.588  71.247  1.00  0.00    -0.188 C  
HETATM   13  O4* UNL     1      -8.980   7.010  71.561  1.00  0.00    -0.139 OA 
HETATM   14  C4* UNL     1      -8.776   5.871  70.689  1.00  0.00    -0.137 C  
HETATM   15  C3* UNL     1     -10.156   5.300  70.388  1.00  0.00    -0.254 C  
HETATM   16  H2* UNL     1     -12.336   5.089  71.868  1.00  0.00     0.000 HD 
HETATM   17  C2* UNL     1     -11.139   6.356  70.900  1.00  0.00    -0.298 C  
HETATM   18  O3* UNL     1     -10.305   4.037  71.043  1.00  0.00     0.013 OA 
HETATM   19  O2* UNL     1     -11.802   5.845  72.081  1.00  0.00    -0.285 OA 
HETATM   20  H3* UNL     1     -11.166   3.681  70.855  1.00  0.00     0.000 HD 
BRANCH  14  21
HETATM   21  C5* UNL     1      -8.061   6.296  69.396  1.00  0.00    -0.113 C  
HETATM   22  O5* UNL     1      -6.856   6.992  69.696  1.00  0.00    -0.048 OA 
HETATM   23  H5* UNL     1      -6.414   7.254  68.896  1.00  0.00     0.000 HD 
ENDBRANCH  14  21
ENDBRANCH   8  12
TORSDOF 2
ENDMDL
MODEL      207
REMARK 921   NORMALIZED FREE ENERGY PREDICTED BY IDOCK:   -2.46 KCAL/MOL
REMARK 922        TOTAL FREE ENERGY PREDICTED BY IDOCK:   -2.72 KCAL/MOL
REMARK 923 INTER-LIGAND FREE ENERGY PREDICTED BY IDOCK:   -2.82 KCAL/MOL
REMARK 924 INTRA-LIGAND FREE ENERGY PREDICTED BY IDOCK:    0.10 KCAL/MOL
REMARK 927      BINDING AFFINITY PREDICTED BY RF-SCORE:    0.00 PKD
ROOT
HETATM    1  N   UNL     1      -5.376  13.010  70.415  1.00  0.00    -0.114 NA 
HETATM    2  H2  UNL     1      -5.744  12.297  71.046  1.00  0.00     0.000 HD 
HETATM    3  C   UNL     1      -6.068  13.355  69.304  1.00  0.00    -0.098 C  
HETATM    4  H1  UNL     1      -4.486  13.464  70.621  1.00  0.00     0.000 HD 
HETATM    5  N   UNL     1      -7.192  12.783  69.044  1.00  0.00    -0.267 N  
HETATM    6  C   UNL     1      -7.861  13.177  67.915  1.00  0.00    -0.151 C  
HETATM    7  H   UNL     1      -7.571  12.061  69.657  1.00  0.00     0.000 HD 
HETATM    8  N   UNL     1      -7.592  14.430  67.438  1.00  0.00    -0.188 N  
HETATM    9  O   UNL     1      -8.655  12.429  67.359  1.00  0.00    -0.163 OA 
HETATM   10  N   UNL     1      -5.516  14.294  68.500  1.00  0.00    -0.091 NA 
HETATM   11  C   UNL     1      -6.299  14.807  67.620  1.00  0.00    -0.116 C  
ENDROOT
BRANCH   8  12
HETATM   12  C1* UNL     1      -8.331  15.015  66.342  1.00  0.00     0.189 C  
HETATM   13  O4* UNL     1      -7.824  16.359  66.168  1.00  0.00    -0.261 OA 
HETATM   14  C4* UNL     1      -8.659  17.255  66.943  1.00  0.00    -0.240 C  
HETATM   15  C3* UNL     1     -10.050  16.635  66.976  1.00  0.00    -0.281 C  
HETATM   16  H2* UNL     1     -11.409  15.261  65.173  1.00  0.00     0.000 HD 
HETATM   17  C2* UNL     1      -9.862  15.217  66.430  1.00  0.00    -0.280 C  
HETATM   18  O3* UNL     1     -10.944  17.423  66.184  1.00  0.00    -0.029 OA 
HETATM   19  O2* UNL     1     -10.469  15.136  65.118  1.00  0.00    -0.377 OA 
HETATM   20  H3* UNL     1     -11.812  17.036  66.204  1.00  0.00     0.000 HD 
BRANCH  14  21
HETATM   21  C5* UNL     1      -8.099  17.428  68.364  1.00  0.00    -0.264 C  
HETATM   22  O5* UNL     1      -8.951  18.263  69.141  1.00  0.00    -0.084 OA 
HETATM   23  H5* UNL     1      -8.604  18.370  70.019  1.00  0.00     0.000 HD 
ENDBRANCH  14  21
ENDBRANCH   8  12
TORSDOF 2
ENDMDL
MODEL      208
REMARK 921   NORMALIZED FREE ENERGY PREDICTED BY IDOCK:   -2.44 KCAL/MOL
REMARK 922        TOTAL FREE ENERGY PREDICTED BY IDOCK:   -2.70 KCAL/MOL
REMARK 923 INTER-LIGAND FREE ENERGY PREDICTED BY IDOCK:   -2.69 KCAL/MOL
REMARK 924 INTRA-LIGAND FREE ENERGY PREDICTED BY IDOCK:   -0.01 KCAL/MOL
REMARK 927      BINDING AFFINITY PREDICTED BY RF-SCORE:    0.00 PKD
ROOT
HETATM    1  N   UNL     1      -8.711   2.807  67.337  1.00  0.00    -0.109 NA 
HETATM    2  H2  UNL     1      -9.341   2.548  66.577  1.00  0.00     0.000 HD 
HETATM    3  C   UNL     1      -8.604   4.102  67.717  1.00  0.00    -0.100 C  
HETATM    4  H1  UNL     1      -8.162   2.091  67.812  1.00  0.00     0.000 HD 
HETATM    5  N   UNL     1      -9.298   5.007  67.117  1.00  0.00    -0.120 N  
HETATM    6  C   UNL     1      -9.164   6.300  67.548  1.00  0.00    -0.108 C  
HETATM    7  H   UNL     1      -9.925   4.768  66.349  1.00  0.00     0.000 HD 
HETATM    8  N   UNL     1      -8.741   6.487  68.834  1.00  0.00    -0.127 N  
HETATM    9  O   UNL     1      -9.406   7.241  66.802  1.00  0.00    -0.149 OA 
HETATM   10  N   UNL     1      -7.737   4.382  68.719  1.00  0.00    -0.066 NA 
HETATM   11  C   UNL     1      -7.854   5.546  69.249  1.00  0.00    -0.091 C  
ENDROOT
BRANCH   8  12
HETATM   12  C1* UNL     1      -8.695   7.794  69.450  1.00  0.00    -0.135 C  
HETATM   13  O4* UNL     1      -8.814   7.587  70.877  1.00  0.00    -0.142 OA 
HETATM   14  C4* UNL     1     -10.216   7.693  71.229  1.00  0.00    -0.187 C  
HETATM   15  C3* UNL     1     -10.842   8.665  70.237  1.00  0.00    -0.235 C  
HETATM   16  H2* UNL     1      -9.903  10.845  69.074  1.00  0.00     0.000 HD 
HETATM   17  C2* UNL     1      -9.780   8.856  69.150  1.00  0.00    -0.168 C  
HETATM   18  O3* UNL     1     -11.179   9.883  70.907  1.00  0.00    -0.315 OA 
HETATM   19  O2* UNL     1      -9.236  10.193  69.258  1.00  0.00    -0.185 OA 
HETATM   20  H3* UNL     1     -11.570  10.489  70.288  1.00  0.00     0.000 HD 
BRANCH  14  21
HETATM   21  C5* UNL     1     -10.901   6.318  71.161  1.00  0.00    -0.266 C  
HETATM   22  O5* UNL     1     -10.099   5.327  71.795  1.00  0.00    -0.186 OA 
HETATM   23  H5* UNL     1     -10.522   4.477  71.753  1.00  0.00     0.000 HD 
ENDBRANCH  14  21
ENDBRANCH   8  12
TORSDOF 2
ENDMDL
MODEL      209
REMARK 921   NORMALIZED FREE ENERGY PREDICTED BY IDOCK:   -2.43 KCAL/MOL
REMARK 922        TOTAL FREE ENERGY PREDICTED BY IDOCK:   -2.69 KCAL/MOL
REMARK 923 INTER-LIGAND FREE ENERGY PREDICTED BY IDOCK:   -2.70 KCAL/MOL
REMARK 924 INTRA-LIGAND FREE ENERGY PREDICTED BY IDOCK:    0.02 KCAL/MOL
REMARK 927      BINDING AFFINITY PREDICTED BY RF-SCORE:    0.00 PKD
ROOT
HETATM    1  N   UNL     1      -6.936   4.653  73.991  1.00  0.00    -0.073 NA 
HETATM    2  H2  UNL     1      -7.135   3.704  74.311  1.00  0.00     0.000 HD 
HETATM    3  C   UNL     1      -7.109   4.980  72.689  1.00  0.00    -0.083 C  
HETATM    4  H1  UNL     1      -6.607   5.356  74.653  1.00  0.00     0.000 HD 
HETATM    5  N   UNL     1      -7.524   4.092  71.853  1.00  0.00    -0.063 N  
HETATM    6  C   UNL     1      -7.697   4.477  70.550  1.00  0.00    -0.053 C  
HETATM    7  H   UNL     1      -7.719   3.136  72.152  1.00  0.00     0.000 HD 
HETATM    8  N   UNL     1      -7.912   5.806  70.317  1.00  0.00    -0.102 N  
HETATM    9  O   UNL     1      -7.647   3.659  69.640  1.00  0.00    -0.051 OA 
HETATM   10  N   UNL     1      -6.809   6.250  72.327  1.00  0.00    -0.072 NA 
HETATM   11  C   UNL     1      -7.239   6.618  71.173  1.00  0.00    -0.078 C  
ENDROOT
BRANCH   8  12
HETATM   12  C1* UNL     1      -8.247   6.317  69.006  1.00  0.00    -0.114 C  
HETATM   13  O4* UNL     1      -8.882   7.601  69.209  1.00  0.00    -0.136 OA 
HETATM   14  C4* UNL     1     -10.314   7.387  69.268  1.00  0.00    -0.204 C  
HETATM   15  C3* UNL     1     -10.611   6.177  68.392  1.00  0.00    -0.265 C  
HETATM   16  H2* UNL     1      -9.536   5.334  66.129  1.00  0.00     0.000 HD 
HETATM   17  C2* UNL     1      -9.240   5.566  68.087  1.00  0.00    -0.109 C  
HETATM   18  O3* UNL     1     -11.308   6.597  67.216  1.00  0.00    -0.716 OA 
HETATM   19  O2* UNL     1      -8.926   5.795  66.693  1.00  0.00    -0.118 OA 
HETATM   20  H3* UNL     1     -11.493   5.842  66.669  1.00  0.00     0.000 HD 
BRANCH  14  21
HETATM   21  C5* UNL     1     -10.768   7.144  70.717  1.00  0.00    -0.231 C  
HETATM   22  O5* UNL     1     -11.059   8.378  71.365  1.00  0.00    -0.236 OA 
HETATM   23  H5* UNL     1     -11.339   8.227  72.260  1.00  0.00     0.000 HD 
ENDBRANCH  14  21
ENDBRANCH   8  12
TORSDOF 2
ENDMDL
MODEL      210
REMARK 921   NORMALIZED FREE ENERGY PREDICTED BY IDOCK:   -2.42 KCAL/MOL
REMARK 922        TOTAL FREE ENERGY PREDICTED BY IDOCK:   -2.68 KCAL/MOL
REMARK 923 INTER-LIGAND FREE ENERGY PREDICTED BY IDOCK:   -2.66 KCAL/MOL
REMARK 924 INTRA-LIGAND FREE ENERGY PREDICTED BY IDOCK:   -0.01 KCAL/MOL
REMARK 927      BINDING AFFINITY PREDICTED BY RF-SCORE:    0.00 PKD
ROOT
HETATM    1  N   UNL     1     -11.196   3.002  63.964  1.00  0.00    -0.555 NA 
HETATM    2  H2  UNL     1     -11.812   3.594  63.406  1.00  0.00     0.000 HD 
HETATM    3  C   UNL     1     -10.134   3.543  64.606  1.00  0.00    -0.124 C  
HETATM    4  H1  UNL     1     -11.380   2.001  64.039  1.00  0.00     0.000 HD 
HETATM    5  N   UNL     1      -9.902   4.807  64.512  1.00  0.00    -0.362 N  
HETATM    6  C   UNL     1      -8.824   5.308  65.191  1.00  0.00    -0.129 C  
HETATM    7  H   UNL     1     -10.501   5.413  63.951  1.00  0.00     0.000 HD 
HETATM    8  N   UNL     1      -8.389   4.600  66.277  1.00  0.00    -0.110 N  
HETATM    9  O   UNL     1      -8.274   6.340  64.828  1.00  0.00    -0.137 OA 
HETATM   10  N   UNL     1      -9.345   2.700  65.314  1.00  0.00    -0.122 NA 
HETATM   11  C   UNL     1      -8.525   3.257  66.132  1.00  0.00    -0.111 C  
ENDROOT
BRANCH   8  12
HETATM   12  C1* UNL     1      -7.354   5.094  67.157  1.00  0.00    -0.082 C  
HETATM   13  O4* UNL     1      -7.481   4.364  68.400  1.00  0.00    -0.063 OA 
HETATM   14  C4* UNL     1      -8.325   5.138  69.289  1.00  0.00    -0.087 C  
HETATM   15  C3* UNL     1      -8.109   6.603  68.930  1.00  0.00    -0.116 C  
HETATM   16  H2* UNL     1      -5.962   7.924  68.137  1.00  0.00     0.000 HD 
HETATM   17  C2* UNL     1      -7.331   6.574  67.611  1.00  0.00    -0.095 C  
HETATM   18  O3* UNL     1      -7.395   7.254  69.984  1.00  0.00    -0.079 OA 
HETATM   19  O2* UNL     1      -5.975   7.016  67.858  1.00  0.00    -0.026 OA 
HETATM   20  H3* UNL     1      -7.260   8.168  69.759  1.00  0.00     0.000 HD 
BRANCH  14  21
HETATM   21  C5* UNL     1      -9.801   4.740  69.122  1.00  0.00    -0.184 C  
HETATM   22  O5* UNL     1     -10.643   5.617  69.861  1.00  0.00    -0.281 OA 
HETATM   23  H5* UNL     1     -11.555   5.371  69.758  1.00  0.00     0.000 HD 
ENDBRANCH  14  21
ENDBRANCH   8  12
TORSDOF 2
ENDMDL
MODEL      211
REMARK 921   NORMALIZED FREE ENERGY PREDICTED BY IDOCK:   -2.40 KCAL/MOL
REMARK 922        TOTAL FREE ENERGY PREDICTED BY IDOCK:   -2.65 KCAL/MOL
REMARK 923 INTER-LIGAND FREE ENERGY PREDICTED BY IDOCK:   -3.29 KCAL/MOL
REMARK 924 INTRA-LIGAND FREE ENERGY PREDICTED BY IDOCK:    0.64 KCAL/MOL
REMARK 927      BINDING AFFINITY PREDICTED BY RF-SCORE:    0.00 PKD
ROOT
HETATM    1  N   UNL     1     -10.086   3.014  72.405  1.00  0.00    -0.163 NA 
HETATM    2  H2  UNL     1      -9.327   2.341  72.519  1.00  0.00     0.000 HD 
HETATM    3  C   UNL     1      -9.844   4.221  71.842  1.00  0.00    -0.179 C  
HETATM    4  H1  UNL     1     -11.029   2.777  72.714  1.00  0.00     0.000 HD 
HETATM    5  N   UNL     1      -8.653   4.520  71.451  1.00  0.00    -0.110 N  
HETATM    6  C   UNL     1      -8.463   5.748  70.875  1.00  0.00    -0.126 C  
HETATM    7  H   UNL     1      -7.880   3.865  71.566  1.00  0.00     0.000 HD 
HETATM    8  N   UNL     1      -9.552   6.343  70.303  1.00  0.00    -0.164 N  
HETATM    9  O   UNL     1      -7.363   6.286  70.887  1.00  0.00    -0.076 OA 
HETATM   10  N   UNL     1     -10.890   5.074  71.736  1.00  0.00    -0.094 NA 
HETATM   11  C   UNL     1     -10.713   6.082  70.959  1.00  0.00    -0.265 C  
ENDROOT
BRANCH   8  12
HETATM   12  C1* UNL     1      -9.454   7.569  69.543  1.00  0.00    -0.156 C  
HETATM   13  O4* UNL     1      -8.523   8.423  70.249  1.00  0.00    -0.119 OA 
HETATM   14  C4* UNL     1      -9.285   9.274  71.140  1.00  0.00    -0.155 C  
HETATM   15  C3* UNL     1     -10.642   9.490  70.483  1.00  0.00    -0.297 C  
HETATM   16  H2* UNL     1     -11.351   9.753  67.950  1.00  0.00     0.000 HD 
HETATM   17  C2* UNL     1     -10.688   8.479  69.333  1.00  0.00    -0.156 C  
HETATM   18  O3* UNL     1     -10.749  10.845  70.037  1.00  0.00    -0.455 OA 
HETATM   19  O2* UNL     1     -10.594   9.194  68.078  1.00  0.00    -0.229 OA 
HETATM   20  H3* UNL     1     -11.596  10.979  69.627  1.00  0.00     0.000 HD 
BRANCH  14  21
HETATM   21  C5* UNL     1      -9.439   8.617  72.522  1.00  0.00    -0.177 C  
HETATM   22  O5* UNL     1      -8.180   8.534  73.180  1.00  0.00    -0.368 OA 
HETATM   23  H5* UNL     1      -8.276   8.127  74.034  1.00  0.00     0.000 HD 
ENDBRANCH  14  21
ENDBRANCH   8  12
TORSDOF 2
ENDMDL
MODEL      212
REMARK 921   NORMALIZED FREE ENERGY PREDICTED BY IDOCK:   -2.36 KCAL/MOL
REMARK 922        TOTAL FREE ENERGY PREDICTED BY IDOCK:   -2.61 KCAL/MOL
REMARK 923 INTER-LIGAND FREE ENERGY PREDICTED BY IDOCK:   -3.39 KCAL/MOL
REMARK 924 INTRA-LIGAND FREE ENERGY PREDICTED BY IDOCK:    0.78 KCAL/MOL
REMARK 927      BINDING AFFINITY PREDICTED BY RF-SCORE:    0.00 PKD
ROOT
HETATM    1  N   UNL     1      -7.328   5.724  66.828  1.00  0.00    -0.078 NA 
HETATM    2  H2  UNL     1      -7.226   4.899  66.235  1.00  0.00     0.000 HD 
HETATM    3  C   UNL     1      -7.926   5.619  68.037  1.00  0.00    -0.097 C  
HETATM    4  H1  UNL     1      -6.980   6.628  66.510  1.00  0.00     0.000 HD 
HETATM    5  N   UNL     1      -8.367   4.477  68.439  1.00  0.00    -0.089 N  
HETATM    6  C   UNL     1      -8.951   4.420  69.677  1.00  0.00    -0.099 C  
HETATM    7  H   UNL     1      -8.282   3.644  67.856  1.00  0.00     0.000 HD 
HETATM    8  N   UNL     1      -8.595   5.384  70.578  1.00  0.00    -0.120 N  
HETATM    9  O   UNL     1      -9.764   3.546  69.950  1.00  0.00    -0.176 OA 
HETATM   10  N   UNL     1      -8.048   6.753  68.767  1.00  0.00    -0.119 NA 
HETATM   11  C   UNL     1      -8.353   6.592  70.004  1.00  0.00    -0.134 C  
ENDROOT
BRANCH   8  12
HETATM   12  C1* UNL     1      -9.032   5.353  71.956  1.00  0.00    -0.134 C  
HETATM   13  O4* UNL     1     -10.415   4.925  71.945  1.00  0.00    -0.205 OA 
HETATM   14  C4* UNL     1     -11.249   6.110  71.919  1.00  0.00    -0.284 C  
HETATM   15  C3* UNL     1     -10.477   7.204  72.645  1.00  0.00    -0.237 C  
HETATM   16  H2* UNL     1      -8.861   7.128  74.736  1.00  0.00     0.000 HD 
HETATM   17  C2* UNL     1      -9.062   6.642  72.812  1.00  0.00    -0.136 C  
HETATM   18  O3* UNL     1     -11.113   7.491  73.894  1.00  0.00    -0.476 OA 
HETATM   19  O2* UNL     1      -8.842   6.337  74.210  1.00  0.00    -0.130 OA 
HETATM   20  H3* UNL     1     -10.632   8.173  74.346  1.00  0.00     0.000 HD 
BRANCH  14  21
HETATM   21  C5* UNL     1     -11.561   6.523  70.471  1.00  0.00    -0.393 C  
HETATM   22  O5* UNL     1     -12.508   7.587  70.446  1.00  0.00    -0.487 OA 
HETATM   23  H5* UNL     1     -12.701   7.842  69.552  1.00  0.00     0.000 HD 
ENDBRANCH  14  21
ENDBRANCH   8  12
TORSDOF 2
ENDMDL
MODEL      213
REMARK 921   NORMALIZED FREE ENERGY PREDICTED BY IDOCK:   -2.35 KCAL/MOL
REMARK 922        TOTAL FREE ENERGY PREDICTED BY IDOCK:   -2.60 KCAL/MOL
REMARK 923 INTER-LIGAND FREE ENERGY PREDICTED BY IDOCK:   -2.56 KCAL/MOL
REMARK 924 INTRA-LIGAND FREE ENERGY PREDICTED BY IDOCK:   -0.05 KCAL/MOL
REMARK 927      BINDING AFFINITY PREDICTED BY RF-SCORE:    0.00 PKD
ROOT
HETATM    1  N   UNL     1      -6.904   9.914  68.401  1.00  0.00    -0.063 NA 
HETATM    2  H2  UNL     1      -6.022  10.142  67.940  1.00  0.00     0.000 HD 
HETATM    3  C   UNL     1      -7.755   9.026  67.836  1.00  0.00    -0.097 C  
HETATM    4  H1  UNL     1      -7.145  10.356  69.288  1.00  0.00     0.000 HD 
HETATM    5  N   UNL     1      -7.450   8.468  66.715  1.00  0.00    -0.082 N  
HETATM    6  C   UNL     1      -8.337   7.565  66.191  1.00  0.00    -0.138 C  
HETATM    7  H   UNL     1      -6.578   8.691  66.235  1.00  0.00     0.000 HD 
HETATM    8  N   UNL     1      -9.186   6.948  67.067  1.00  0.00    -0.137 N  
HETATM    9  O   UNL     1      -8.367   7.336  64.989  1.00  0.00    -0.126 OA 
HETATM   10  N   UNL     1      -8.916   8.781  68.488  1.00  0.00    -0.138 NA 
HETATM   11  C   UNL     1      -9.570   7.747  68.096  1.00  0.00    -0.151 C  
ENDROOT
BRANCH   8  12
HETATM   12  C1* UNL     1     -10.070   5.877  66.662  1.00  0.00    -0.183 C  
HETATM   13  O4* UNL     1     -10.444   5.168  67.867  1.00  0.00    -0.129 OA 
HETATM   14  C4* UNL     1      -9.519   4.066  68.042  1.00  0.00    -0.165 C  
HETATM   15  C3* UNL     1      -9.078   3.641  66.648  1.00  0.00    -0.162 C  
HETATM   16  H2* UNL     1     -10.370   3.545  64.344  1.00  0.00     0.000 HD 
HETATM   17  C2* UNL     1      -9.579   4.751  65.720  1.00  0.00    -0.179 C  
HETATM   18  O3* UNL     1      -9.637   2.361  66.338  1.00  0.00    -0.375 OA 
HETATM   19  O2* UNL     1     -10.671   4.236  64.922  1.00  0.00    -0.247 OA 
HETATM   20  H3* UNL     1      -9.362   2.096  65.468  1.00  0.00     0.000 HD 
BRANCH  14  21
HETATM   21  C5* UNL     1      -8.314   4.498  68.895  1.00  0.00    -0.080 C  
HETATM   22  O5* UNL     1      -8.749   5.075  70.122  1.00  0.00    -0.105 OA 
HETATM   23  H5* UNL     1      -8.005   5.341  70.648  1.00  0.00     0.000 HD 
ENDBRANCH  14  21
ENDBRANCH   8  12
TORSDOF 2
ENDMDL
MODEL      214
REMARK 921   NORMALIZED FREE ENERGY PREDICTED BY IDOCK:   -2.33 KCAL/MOL
REMARK 922        TOTAL FREE ENERGY PREDICTED BY IDOCK:   -2.57 KCAL/MOL
REMARK 923 INTER-LIGAND FREE ENERGY PREDICTED BY IDOCK:   -3.16 KCAL/MOL
REMARK 924 INTRA-LIGAND FREE ENERGY PREDICTED BY IDOCK:    0.59 KCAL/MOL
REMARK 927      BINDING AFFINITY PREDICTED BY RF-SCORE:    0.00 PKD
ROOT
HETATM    1  N   UNL     1      -6.322  10.348  71.256  1.00  0.00    -0.299 NA 
HETATM    2  H2  UNL     1      -5.622  11.082  71.138  1.00  0.00     0.000 HD 
HETATM    3  C   UNL     1      -6.889   9.771  70.170  1.00  0.00    -0.109 C  
HETATM    4  H1  UNL     1      -6.595  10.049  72.192  1.00  0.00     0.000 HD 
HETATM    5  N   UNL     1      -6.543  10.149  68.988  1.00  0.00    -0.051 N  
HETATM    6  C   UNL     1      -7.135   9.525  67.922  1.00  0.00    -0.081 C  
HETATM    7  H   UNL     1      -5.853  10.888  68.851  1.00  0.00     0.000 HD 
HETATM    8  N   UNL     1      -7.629   8.268  68.133  1.00  0.00    -0.097 N  
HETATM    9  O   UNL     1      -7.222  10.081  66.835  1.00  0.00    -0.089 OA 
HETATM   10  N   UNL     1      -7.823   8.817  70.395  1.00  0.00    -0.087 NA 
HETATM   11  C   UNL     1      -8.138   8.094  69.381  1.00  0.00    -0.116 C  
ENDROOT
BRANCH   8  12
HETATM   12  C1* UNL     1      -8.149   7.451  67.059  1.00  0.00    -0.113 C  
HETATM   13  O4* UNL     1      -9.007   8.304  66.265  1.00  0.00    -0.162 OA 
HETATM   14  C4* UNL     1     -10.361   8.159  66.759  1.00  0.00    -0.291 C  
HETATM   15  C3* UNL     1     -10.477   6.742  67.306  1.00  0.00    -0.282 C  
HETATM   16  H2* UNL     1      -9.421   4.454  66.508  1.00  0.00     0.000 HD 
HETATM   17  C2* UNL     1      -9.039   6.219  67.353  1.00  0.00    -0.111 C  
HETATM   18  O3* UNL     1     -11.324   5.967  66.453  1.00  0.00    -0.730 OA 
HETATM   19  O2* UNL     1      -8.874   5.210  66.328  1.00  0.00    -0.119 OA 
HETATM   20  H3* UNL     1     -11.396   5.083  66.794  1.00  0.00     0.000 HD 
BRANCH  14  21
HETATM   21  C5* UNL     1     -10.656   9.199  67.853  1.00  0.00    -0.214 C  
HETATM   22  O5* UNL     1     -10.443  10.517  67.361  1.00  0.00    -0.213 OA 
HETATM   23  H5* UNL     1     -10.624  11.160  68.037  1.00  0.00     0.000 HD 
ENDBRANCH  14  21
ENDBRANCH   8  12
TORSDOF 2
ENDMDL
MODEL      215
REMARK 921   NORMALIZED FREE ENERGY PREDICTED BY IDOCK:   -2.31 KCAL/MOL
REMARK 922        TOTAL FREE ENERGY PREDICTED BY IDOCK:   -2.56 KCAL/MOL
REMARK 923 INTER-LIGAND FREE ENERGY PREDICTED BY IDOCK:   -3.32 KCAL/MOL
REMARK 924 INTRA-LIGAND FREE ENERGY PREDICTED BY IDOCK:    0.76 KCAL/MOL
REMARK 927      BINDING AFFINITY PREDICTED BY RF-SCORE:    0.00 PKD
ROOT
HETATM    1  N   UNL     1      -6.030   5.501  71.360  1.00  0.00    -0.027 NA 
HETATM    2  H2  UNL     1      -5.655   5.297  72.288  1.00  0.00     0.000 HD 
HETATM    3  C   UNL     1      -6.922   6.506  71.196  1.00  0.00    -0.068 C  
HETATM    4  H1  UNL     1      -5.733   4.948  70.557  1.00  0.00     0.000 HD 
HETATM    5  N   UNL     1      -7.296   7.205  72.212  1.00  0.00    -0.079 N  
HETATM    6  C   UNL     1      -8.189   8.220  71.992  1.00  0.00    -0.160 C  
HETATM    7  H   UNL     1      -6.940   7.008  73.148  1.00  0.00     0.000 HD 
HETATM    8  N   UNL     1      -8.234   8.746  70.732  1.00  0.00    -0.139 N  
HETATM    9  O   UNL     1      -8.919   8.622  72.889  1.00  0.00    -0.343 OA 
HETATM   10  N   UNL     1      -7.395   6.714  69.945  1.00  0.00    -0.083 NA 
HETATM   11  C   UNL     1      -8.008   7.827  69.757  1.00  0.00    -0.115 C  
ENDROOT
BRANCH   8  12
HETATM   12  C1* UNL     1      -9.029   9.909  70.408  1.00  0.00     0.053 C  
HETATM   13  O4* UNL     1     -10.310   9.733  71.058  1.00  0.00    -0.273 OA 
HETATM   14  C4* UNL     1     -11.209   9.105  70.112  1.00  0.00    -0.187 C  
HETATM   15  C3* UNL     1     -10.771   9.560  68.725  1.00  0.00    -0.190 C  
HETATM   16  H2* UNL     1      -9.795  11.856  67.852  1.00  0.00     0.000 HD 
HETATM   17  C2* UNL     1      -9.412  10.231  68.943  1.00  0.00    -0.188 C  
HETATM   18  O3* UNL     1     -11.751  10.449  68.181  1.00  0.00    -0.714 OA 
HETATM   19  O2* UNL     1      -9.560  11.659  68.751  1.00  0.00    -0.167 OA 
HETATM   20  H3* UNL     1     -11.477  10.733  67.317  1.00  0.00     0.000 HD 
BRANCH  14  21
HETATM   21  C5* UNL     1     -11.147   7.573  70.235  1.00  0.00    -0.248 C  
HETATM   22  O5* UNL     1     -12.025   6.959  69.298  1.00  0.00    -0.389 OA 
HETATM   23  H5* UNL     1     -11.986   6.013  69.375  1.00  0.00     0.000 HD 
ENDBRANCH  14  21
ENDBRANCH   8  12
TORSDOF 2
ENDMDL
MODEL      216
REMARK 921   NORMALIZED FREE ENERGY PREDICTED BY IDOCK:   -2.30 KCAL/MOL
REMARK 922        TOTAL FREE ENERGY PREDICTED BY IDOCK:   -2.54 KCAL/MOL
REMARK 923 INTER-LIGAND FREE ENERGY PREDICTED BY IDOCK:   -2.49 KCAL/MOL
REMARK 924 INTRA-LIGAND FREE ENERGY PREDICTED BY IDOCK:   -0.05 KCAL/MOL
REMARK 927      BINDING AFFINITY PREDICTED BY RF-SCORE:    0.00 PKD
ROOT
HETATM    1  N   UNL     1      -8.216   7.525  73.981  1.00  0.00    -0.158 NA 
HETATM    2  H2  UNL     1      -7.344   8.033  74.133  1.00  0.00     0.000 HD 
HETATM    3  C   UNL     1      -8.777   7.492  72.750  1.00  0.00    -0.133 C  
HETATM    4  H1  UNL     1      -8.666   7.040  74.758  1.00  0.00     0.000 HD 
HETATM    5  N   UNL     1      -8.208   8.104  71.769  1.00  0.00    -0.118 N  
HETATM    6  C   UNL     1      -8.808   8.030  70.539  1.00  0.00    -0.137 C  
HETATM    7  H   UNL     1      -7.342   8.626  71.903  1.00  0.00     0.000 HD 
HETATM    8  N   UNL     1      -9.627   6.959  70.311  1.00  0.00    -0.169 N  
HETATM    9  O   UNL     1      -8.620   8.895  69.693  1.00  0.00    -0.124 OA 
HETATM   10  N   UNL     1      -9.943   6.816  72.620  1.00  0.00    -0.169 NA 
HETATM   11  C   UNL     1     -10.308   6.559  71.415  1.00  0.00    -0.206 C  
ENDROOT
BRANCH   8  12
HETATM   12  C1* UNL     1     -10.204   6.692  69.012  1.00  0.00    -0.177 C  
HETATM   13  O4* UNL     1     -10.656   5.318  69.032  1.00  0.00    -0.188 OA 
HETATM   14  C4* UNL     1      -9.591   4.489  68.504  1.00  0.00    -0.149 C  
HETATM   15  C3* UNL     1      -8.828   5.346  67.503  1.00  0.00    -0.105 C  
HETATM   16  H2* UNL     1      -9.630   7.203  65.800  1.00  0.00     0.000 HD 
HETATM   17  C2* UNL     1      -9.347   6.769  67.726  1.00  0.00    -0.116 C  
HETATM   18  O3* UNL     1      -9.072   4.866  66.177  1.00  0.00    -0.126 OA 
HETATM   19  O2* UNL     1     -10.156   7.155  66.590  1.00  0.00    -0.209 OA 
HETATM   20  H3* UNL     1      -8.595   5.401  65.553  1.00  0.00     0.000 HD 
BRANCH  14  21
HETATM   21  C5* UNL     1      -8.667   4.005  69.634  1.00  0.00    -0.079 C  
HETATM   22  O5* UNL     1      -9.388   3.202  70.562  1.00  0.00    -0.131 OA 
HETATM   23  H5* UNL     1      -8.817   2.903  71.260  1.00  0.00     0.000 HD 
ENDBRANCH  14  21
ENDBRANCH   8  12
TORSDOF 2
ENDMDL
MODEL      217
REMARK 921   NORMALIZED FREE ENERGY PREDICTED BY IDOCK:   -2.29 KCAL/MOL
REMARK 922        TOTAL FREE ENERGY PREDICTED BY IDOCK:   -2.53 KCAL/MOL
REMARK 923 INTER-LIGAND FREE ENERGY PREDICTED BY IDOCK:   -3.07 KCAL/MOL
REMARK 924 INTRA-LIGAND FREE ENERGY PREDICTED BY IDOCK:    0.54 KCAL/MOL
REMARK 927      BINDING AFFINITY PREDICTED BY RF-SCORE:    0.00 PKD
ROOT
HETATM    1  N   UNL     1      -8.211   6.005  73.910  1.00  0.00    -0.111 NA 
HETATM    2  H2  UNL     1      -8.316   4.994  74.004  1.00  0.00     0.000 HD 
HETATM    3  C   UNL     1      -8.745   6.645  72.844  1.00  0.00    -0.121 C  
HETATM    4  H1  UNL     1      -7.704   6.534  74.619  1.00  0.00     0.000 HD 
HETATM    5  N   UNL     1      -9.386   5.977  71.948  1.00  0.00    -0.151 N  
HETATM    6  C   UNL     1      -9.920   6.673  70.896  1.00  0.00    -0.187 C  
HETATM    7  H   UNL     1      -9.493   4.965  72.020  1.00  0.00     0.000 HD 
HETATM    8  N   UNL     1     -10.186   7.999  71.098  1.00  0.00    -0.192 N  
HETATM    9  O   UNL     1     -10.135   6.125  69.822  1.00  0.00    -0.166 OA 
HETATM   10  N   UNL     1      -8.555   7.984  72.768  1.00  0.00    -0.173 NA 
HETATM   11  C   UNL     1      -9.293   8.606  71.921  1.00  0.00    -0.287 C  
ENDROOT
BRANCH   8  12
HETATM   12  C1* UNL     1     -10.877   8.806  70.118  1.00  0.00    -0.227 C  
HETATM   13  O4* UNL     1     -10.315   8.468  68.828  1.00  0.00    -0.214 OA 
HETATM   14  C4* UNL     1      -9.245   9.404  68.548  1.00  0.00    -0.131 C  
HETATM   15  C3* UNL     1      -9.614  10.709  69.241  1.00  0.00    -0.144 C  
HETATM   16  H2* UNL     1     -11.943  11.895  69.638  1.00  0.00     0.000 HD 
HETATM   17  C2* UNL     1     -10.791  10.351  70.153  1.00  0.00    -0.271 C  
HETATM   18  O3* UNL     1      -9.950  11.695  68.259  1.00  0.00    -0.188 OA 
HETATM   19  O2* UNL     1     -11.996  10.947  69.617  1.00  0.00    -0.304 OA 
HETATM   20  H3* UNL     1     -10.180  12.508  68.692  1.00  0.00     0.000 HD 
BRANCH  14  21
HETATM   21  C5* UNL     1      -7.901   8.865  69.065  1.00  0.00    -0.091 C  
HETATM   22  O5* UNL     1      -7.653   7.561  68.553  1.00  0.00    -0.108 OA 
HETATM   23  H5* UNL     1      -6.822   7.228  68.873  1.00  0.00     0.000 HD 
ENDBRANCH  14  21
ENDBRANCH   8  12
TORSDOF 2
ENDMDL
MODEL      218
REMARK 921   NORMALIZED FREE ENERGY PREDICTED BY IDOCK:   -2.27 KCAL/MOL
REMARK 922        TOTAL FREE ENERGY PREDICTED BY IDOCK:   -2.51 KCAL/MOL
REMARK 923 INTER-LIGAND FREE ENERGY PREDICTED BY IDOCK:   -3.13 KCAL/MOL
REMARK 924 INTRA-LIGAND FREE ENERGY PREDICTED BY IDOCK:    0.62 KCAL/MOL
REMARK 927      BINDING AFFINITY PREDICTED BY RF-SCORE:    0.00 PKD
ROOT
HETATM    1  N   UNL     1      -7.351  10.166  70.800  1.00  0.00    -0.400 NA 
HETATM    2  H2  UNL     1      -7.612   9.405  71.429  1.00  0.00     0.000 HD 
HETATM    3  C   UNL     1      -8.062  10.385  69.670  1.00  0.00    -0.103 C  
HETATM    4  H1  UNL     1      -6.555  10.762  71.024  1.00  0.00     0.000 HD 
HETATM    5  N   UNL     1      -9.069   9.631  69.388  1.00  0.00    -0.175 N  
HETATM    6  C   UNL     1      -9.765   9.902  68.240  1.00  0.00    -0.144 C  
HETATM    7  H   UNL     1      -9.338   8.860  69.999  1.00  0.00     0.000 HD 
HETATM    8  N   UNL     1      -9.696  11.180  67.758  1.00  0.00    -0.169 N  
HETATM    9  O   UNL     1     -10.409   9.029  67.672  1.00  0.00    -0.226 OA 
HETATM   10  N   UNL     1      -7.654  11.398  68.870  1.00  0.00    -0.127 NA 
HETATM   11  C   UNL     1      -8.489  11.768  67.966  1.00  0.00    -0.157 C  
ENDROOT
BRANCH   8  12
HETATM   12  C1* UNL     1     -10.494  11.627  66.638  1.00  0.00    -0.233 C  
HETATM   13  O4* UNL     1     -10.557  10.524  65.704  1.00  0.00    -0.177 OA 
HETATM   14  C4* UNL     1      -9.484  10.689  64.744  1.00  0.00    -0.256 C  
HETATM   15  C3* UNL     1      -9.245  12.187  64.610  1.00  0.00     0.473 C  
HETATM   16  H2* UNL     1     -10.900  14.247  64.669  1.00  0.00     0.000 HD 
HETATM   17  C2* UNL     1     -10.039  12.816  65.759  1.00  0.00    -0.286 C  
HETATM   18  O3* UNL     1      -9.683  12.629  63.322  1.00  0.00    -0.567 OA 
HETATM   19  O2* UNL     1     -11.180  13.517  65.209  1.00  0.00    -0.288 OA 
HETATM   20  H3* UNL     1      -9.534  13.563  63.239  1.00  0.00     0.000 HD 
BRANCH  14  21
HETATM   21  C5* UNL     1      -8.212   9.968  65.221  1.00  0.00    -0.148 C  
HETATM   22  O5* UNL     1      -8.487   8.599  65.502  1.00  0.00    -0.146 OA 
HETATM   23  H5* UNL     1      -7.701   8.154  65.796  1.00  0.00     0.000 HD 
ENDBRANCH  14  21
ENDBRANCH   8  12
TORSDOF 2
ENDMDL
MODEL      219
REMARK 921   NORMALIZED FREE ENERGY PREDICTED BY IDOCK:   -2.26 KCAL/MOL
REMARK 922        TOTAL FREE ENERGY PREDICTED BY IDOCK:   -2.50 KCAL/MOL
REMARK 923 INTER-LIGAND FREE ENERGY PREDICTED BY IDOCK:   -3.03 KCAL/MOL
REMARK 924 INTRA-LIGAND FREE ENERGY PREDICTED BY IDOCK:    0.54 KCAL/MOL
REMARK 927      BINDING AFFINITY PREDICTED BY RF-SCORE:    0.00 PKD
ROOT
HETATM    1  N   UNL     1     -11.337   6.253  67.170  1.00  0.00    -0.673 NA 
HETATM    2  H2  UNL     1     -11.516   5.248  67.160  1.00  0.00     0.000 HD 
HETATM    3  C   UNL     1     -10.221   6.749  66.587  1.00  0.00    -0.141 C  
HETATM    4  H1  UNL     1     -12.000   6.884  67.619  1.00  0.00     0.000 HD 
HETATM    5  N   UNL     1      -9.384   5.951  66.019  1.00  0.00    -0.275 N  
HETATM    6  C   UNL     1      -8.277   6.503  65.430  1.00  0.00    -0.135 C  
HETATM    7  H   UNL     1      -9.540   4.943  66.008  1.00  0.00     0.000 HD 
HETATM    8  N   UNL     1      -8.368   7.810  65.039  1.00  0.00    -0.123 N  
HETATM    9  O   UNL     1      -7.253   5.850  65.277  1.00  0.00    -0.069 OA 
HETATM   10  N   UNL     1     -10.034   8.089  66.650  1.00  0.00    -0.261 NA 
HETATM   11  C   UNL     1      -9.137   8.566  65.864  1.00  0.00    -0.183 C  
ENDROOT
BRANCH   8  12
HETATM   12  C1* UNL     1      -7.323   8.464  64.283  1.00  0.00    -0.096 C  
HETATM   13  O4* UNL     1      -6.065   8.052  64.867  1.00  0.00    -0.045 OA 
HETATM   14  C4* UNL     1      -5.688   9.040  65.858  1.00  0.00    -0.050 C  
HETATM   15  C3* UNL     1      -6.259  10.371  65.387  1.00  0.00    -0.127 C  
HETATM   16  H2* UNL     1      -6.568  11.399  62.971  1.00  0.00     0.000 HD 
HETATM   17  C2* UNL     1      -7.213  10.007  64.245  1.00  0.00    -0.133 C  
HETATM   18  O3* UNL     1      -5.194  11.229  64.970  1.00  0.00    -0.498 OA 
HETATM   19  O2* UNL     1      -6.635  10.452  62.994  1.00  0.00    -0.140 OA 
HETATM   20  H3* UNL     1      -5.551  12.059  64.677  1.00  0.00     0.000 HD 
BRANCH  14  21
HETATM   21  C5* UNL     1      -6.240   8.661  67.242  1.00  0.00    -0.056 C  
HETATM   22  O5* UNL     1      -5.854   7.336  67.591  1.00  0.00    -0.027 OA 
HETATM   23  H5* UNL     1      -6.196   7.102  68.446  1.00  0.00     0.000 HD 
ENDBRANCH  14  21
ENDBRANCH   8  12
TORSDOF 2
ENDMDL
MODEL      220
REMARK 921   NORMALIZED FREE ENERGY PREDICTED BY IDOCK:   -2.23 KCAL/MOL
REMARK 922        TOTAL FREE ENERGY PREDICTED BY IDOCK:   -2.46 KCAL/MOL
REMARK 923 INTER-LIGAND FREE ENERGY PREDICTED BY IDOCK:   -3.03 KCAL/MOL
REMARK 924 INTRA-LIGAND FREE ENERGY PREDICTED BY IDOCK:    0.57 KCAL/MOL
REMARK 927      BINDING AFFINITY PREDICTED BY RF-SCORE:    0.00 PKD
ROOT
HETATM    1  N   UNL     1     -11.087   5.326  66.223  1.00  0.00    -0.696 NA 
HETATM    2  H2  UNL     1     -10.963   4.819  65.345  1.00  0.00     0.000 HD 
HETATM    3  C   UNL     1     -10.260   6.350  66.537  1.00  0.00    -0.081 C  
HETATM    4  H1  UNL     1     -11.835   5.060  66.863  1.00  0.00     0.000 HD 
HETATM    5  N   UNL     1      -9.316   6.685  65.728  1.00  0.00    -0.386 N  
HETATM    6  C   UNL     1      -8.514   7.737  66.085  1.00  0.00    -0.138 C  
HETATM    7  H   UNL     1      -9.170   6.184  64.851  1.00  0.00     0.000 HD 
HETATM    8  N   UNL     1      -9.038   8.649  66.958  1.00  0.00    -0.134 N  
HETATM    9  O   UNL     1      -7.377   7.840  65.644  1.00  0.00    -0.070 OA 
HETATM   10  N   UNL     1     -10.467   6.968  67.724  1.00  0.00    -0.203 NA 
HETATM   11  C   UNL     1      -9.870   8.095  67.878  1.00  0.00    -0.169 C  
ENDROOT
BRANCH   8  12
HETATM   12  C1* UNL     1      -8.350   9.873  67.302  1.00  0.00    -0.121 C  
HETATM   13  O4* UNL     1      -6.981   9.510  67.602  1.00  0.00    -0.078 OA 
HETATM   14  C4* UNL     1      -6.880   9.289  69.031  1.00  0.00    -0.055 C  
HETATM   15  C3* UNL     1      -7.910  10.200  69.687  1.00  0.00    -0.175 C  
HETATM   16  H2* UNL     1      -8.759  12.628  69.077  1.00  0.00     0.000 HD 
HETATM   17  C2* UNL     1      -8.777  10.710  68.532  1.00  0.00    -0.141 C  
HETATM   18  O3* UNL     1      -7.242  11.252  70.389  1.00  0.00    -0.317 OA 
HETATM   19  O2* UNL     1      -8.496  12.114  68.322  1.00  0.00    -0.170 OA 
HETATM   20  H3* UNL     1      -7.885  11.819  70.798  1.00  0.00     0.000 HD 
BRANCH  14  21
HETATM   21  C5* UNL     1      -7.148   7.815  69.374  1.00  0.00    -0.071 C  
HETATM   22  O5* UNL     1      -6.354   6.959  68.559  1.00  0.00    -0.029 OA 
HETATM   23  H5* UNL     1      -6.520   6.047  68.771  1.00  0.00     0.000 HD 
ENDBRANCH  14  21
ENDBRANCH   8  12
TORSDOF 2
ENDMDL
MODEL      221
REMARK 921   NORMALIZED FREE ENERGY PREDICTED BY IDOCK:   -2.22 KCAL/MOL
REMARK 922        TOTAL FREE ENERGY PREDICTED BY IDOCK:   -2.46 KCAL/MOL
REMARK 923 INTER-LIGAND FREE ENERGY PREDICTED BY IDOCK:   -3.58 KCAL/MOL
REMARK 924 INTRA-LIGAND FREE ENERGY PREDICTED BY IDOCK:    1.12 KCAL/MOL
REMARK 927      BINDING AFFINITY PREDICTED BY RF-SCORE:    0.00 PKD
ROOT
HETATM    1  N   UNL     1     -10.737   6.182  72.342  1.00  0.00    -0.221 NA 
HETATM    2  H2  UNL     1     -10.268   5.931  73.213  1.00  0.00     0.000 HD 
HETATM    3  C   UNL     1     -10.164   7.070  71.495  1.00  0.00    -0.198 C  
HETATM    4  H1  UNL     1     -11.637   5.765  72.108  1.00  0.00     0.000 HD 
HETATM    5  N   UNL     1      -9.026   7.597  71.791  1.00  0.00    -0.118 N  
HETATM    6  C   UNL     1      -8.481   8.478  70.895  1.00  0.00    -0.152 C  
HETATM    7  H   UNL     1      -8.547   7.366  72.662  1.00  0.00     0.000 HD 
HETATM    8  N   UNL     1      -8.877   8.365  69.592  1.00  0.00    -0.140 N  
HETATM    9  O   UNL     1      -7.683   9.333  71.258  1.00  0.00    -0.314 OA 
HETATM   10  N   UNL     1     -10.845   7.374  70.365  1.00  0.00    -0.239 NA 
HETATM   11  C   UNL     1     -10.174   7.985  69.456  1.00  0.00    -0.209 C  
ENDROOT
BRANCH   8  12
HETATM   12  C1* UNL     1      -8.273   9.139  68.530  1.00  0.00    -0.115 C  
HETATM   13  O4* UNL     1      -8.426  10.532  68.892  1.00  0.00    -0.134 OA 
HETATM   14  C4* UNL     1      -9.645  11.022  68.281  1.00  0.00    -0.171 C  
HETATM   15  C3* UNL     1      -9.839  10.226  66.996  1.00  0.00    -0.193 C  
HETATM   16  H2* UNL     1      -8.113   9.277  65.235  1.00  0.00     0.000 HD 
HETATM   17  C2* UNL     1      -8.827   9.081  67.086  1.00  0.00    -0.119 C  
HETATM   18  O3* UNL     1      -9.619  11.077  65.868  1.00  0.00    -0.201 OA 
HETATM   19  O2* UNL     1      -7.773   9.312  66.121  1.00  0.00    -0.095 OA 
HETATM   20  H3* UNL     1      -9.741  10.581  65.067  1.00  0.00     0.000 HD 
BRANCH  14  21
HETATM   21  C5* UNL     1     -10.841  10.838  69.230  1.00  0.00    -0.242 C  
HETATM   22  O5* UNL     1     -11.940  10.250  68.543  1.00  0.00    -0.720 OA 
HETATM   23  H5* UNL     1     -12.679  10.137  69.129  1.00  0.00     0.000 HD 
ENDBRANCH  14  21
ENDBRANCH   8  12
TORSDOF 2
ENDMDL
MODEL      222
REMARK 921   NORMALIZED FREE ENERGY PREDICTED BY IDOCK:   -2.20 KCAL/MOL
REMARK 922        TOTAL FREE ENERGY PREDICTED BY IDOCK:   -2.43 KCAL/MOL
REMARK 923 INTER-LIGAND FREE ENERGY PREDICTED BY IDOCK:   -3.08 KCAL/MOL
REMARK 924 INTRA-LIGAND FREE ENERGY PREDICTED BY IDOCK:    0.65 KCAL/MOL
REMARK 927      BINDING AFFINITY PREDICTED BY RF-SCORE:    0.00 PKD
ROOT
HETATM    1  N   UNL     1      -9.737   9.800  68.354  1.00  0.00    -0.147 NA 
HETATM    2  H2  UNL     1      -8.902  10.106  67.853  1.00  0.00     0.000 HD 
HETATM    3  C   UNL     1      -9.799   8.550  68.869  1.00  0.00    -0.176 C  
HETATM    4  H1  UNL     1     -10.526  10.436  68.467  1.00  0.00     0.000 HD 
HETATM    5  N   UNL     1      -8.801   7.746  68.727  1.00  0.00    -0.135 N  
HETATM    6  C   UNL     1      -8.907   6.497  69.279  1.00  0.00    -0.132 C  
HETATM    7  H   UNL     1      -7.963   8.031  68.220  1.00  0.00     0.000 HD 
HETATM    8  N   UNL     1      -9.773   6.351  70.326  1.00  0.00    -0.167 N  
HETATM    9  O   UNL     1      -8.257   5.557  68.839  1.00  0.00    -0.097 OA 
HETATM   10  N   UNL     1     -10.941   8.200  69.507  1.00  0.00    -0.119 NA 
HETATM   11  C   UNL     1     -10.878   7.135  70.222  1.00  0.00    -0.249 C  
ENDROOT
BRANCH   8  12
HETATM   12  C1* UNL     1      -9.870   5.123  71.082  1.00  0.00    -0.186 C  
HETATM   13  O4* UNL     1     -11.088   5.208  71.860  1.00  0.00    -0.115 OA 
HETATM   14  C4* UNL     1     -10.749   5.746  73.163  1.00  0.00    -0.262 C  
HETATM   15  C3* UNL     1      -9.323   5.303  73.460  1.00  0.00    -0.133 C  
HETATM   16  H2* UNL     1      -8.014   3.077  72.893  1.00  0.00     0.000 HD 
HETATM   17  C2* UNL     1      -8.799   4.746  72.134  1.00  0.00    -0.124 C  
HETATM   18  O3* UNL     1      -9.332   4.330  74.508  1.00  0.00    -0.104 OA 
HETATM   19  O2* UNL     1      -8.672   3.309  72.248  1.00  0.00    -0.081 OA 
HETATM   20  H3* UNL     1      -8.442   4.054  74.694  1.00  0.00     0.000 HD 
BRANCH  14  21
HETATM   21  C5* UNL     1     -10.863   7.280  73.164  1.00  0.00    -0.357 C  
HETATM   22  O5* UNL     1     -12.218   7.682  72.993  1.00  0.00    -0.499 OA 
HETATM   23  H5* UNL     1     -12.287   8.630  72.994  1.00  0.00     0.000 HD 
ENDBRANCH  14  21
ENDBRANCH   8  12
TORSDOF 2
ENDMDL
MODEL      223
REMARK 921   NORMALIZED FREE ENERGY PREDICTED BY IDOCK:   -2.17 KCAL/MOL
REMARK 922        TOTAL FREE ENERGY PREDICTED BY IDOCK:   -2.40 KCAL/MOL
REMARK 923 INTER-LIGAND FREE ENERGY PREDICTED BY IDOCK:   -2.94 KCAL/MOL
REMARK 924 INTRA-LIGAND FREE ENERGY PREDICTED BY IDOCK:    0.55 KCAL/MOL
REMARK 927      BINDING AFFINITY PREDICTED BY RF-SCORE:    0.00 PKD
ROOT
HETATM    1  N   UNL     1      -8.210  17.201  65.732  1.00  0.00    -0.451 NA 
HETATM    2  H2  UNL     1      -8.583  16.984  64.807  1.00  0.00     0.000 HD 
HETATM    3  C   UNL     1      -8.976  17.016  66.832  1.00  0.00    -0.229 C  
HETATM    4  H1  UNL     1      -7.259  17.557  65.828  1.00  0.00     0.000 HD 
HETATM    5  N   UNL     1     -10.177  16.566  66.710  1.00  0.00    -0.289 N  
HETATM    6  C   UNL     1     -10.907  16.383  67.854  1.00  0.00    -0.328 C  
HETATM    7  H   UNL     1     -10.570  16.353  65.793  1.00  0.00     0.000 HD 
HETATM    8  N   UNL     1     -10.209  16.195  69.014  1.00  0.00    -0.234 N  
HETATM    9  O   UNL     1     -12.131  16.399  67.830  1.00  0.00     0.434 OA 
HETATM   10  N   UNL     1      -8.429  17.340  68.027  1.00  0.00    -0.223 NA 
HETATM   11  C   UNL     1      -9.050  16.902  69.063  1.00  0.00    -0.174 C  
ENDROOT
BRANCH   8  12
HETATM   12  C1* UNL     1     -10.858  15.853  70.260  1.00  0.00    -0.340 C  
HETATM   13  O4* UNL     1     -10.364  14.547  70.642  1.00  0.00     0.531 OA 
HETATM   14  C4* UNL     1     -11.283  13.553  70.124  1.00  0.00     0.251 C  
HETATM   15  C3* UNL     1     -12.659  14.206  70.093  1.00  0.00    -0.268 C  
HETATM   16  H2* UNL     1     -13.823  15.941  71.711  1.00  0.00     0.000 HD 
HETATM   17  C2* UNL     1     -12.395  15.693  70.342  1.00  0.00    -0.391 C  
HETATM   18  O3* UNL     1     -13.493  13.613  71.092  1.00  0.00    -0.198 OA 
HETATM   19  O2* UNL     1     -12.879  16.040  71.661  1.00  0.00    -0.441 OA 
HETATM   20  H3* UNL     1     -14.351  14.020  71.072  1.00  0.00     0.000 HD 
BRANCH  14  21
HETATM   21  C5* UNL     1     -10.856  13.097  68.719  1.00  0.00    -0.246 C  
HETATM   22  O5* UNL     1     -11.996  12.896  67.890  1.00  0.00    -0.349 OA 
HETATM   23  H5* UNL     1     -11.732  12.614  67.022  1.00  0.00     0.000 HD 
ENDBRANCH  14  21
ENDBRANCH   8  12
TORSDOF 2
ENDMDL
MODEL      224
REMARK 921   NORMALIZED FREE ENERGY PREDICTED BY IDOCK:   -2.16 KCAL/MOL
REMARK 922        TOTAL FREE ENERGY PREDICTED BY IDOCK:   -2.39 KCAL/MOL
REMARK 923 INTER-LIGAND FREE ENERGY PREDICTED BY IDOCK:   -3.23 KCAL/MOL
REMARK 924 INTRA-LIGAND FREE ENERGY PREDICTED BY IDOCK:    0.84 KCAL/MOL
REMARK 927      BINDING AFFINITY PREDICTED BY RF-SCORE:    0.00 PKD
ROOT
HETATM    1  N   UNL     1     -10.275  14.038  69.207  1.00  0.00    -0.433 NA 
HETATM    2  H2  UNL     1      -9.791  14.807  69.672  1.00  0.00     0.000 HD 
HETATM    3  C   UNL     1      -9.583  13.171  68.433  1.00  0.00    -0.186 C  
HETATM    4  H1  UNL     1     -11.281  13.923  69.326  1.00  0.00     0.000 HD 
HETATM    5  N   UNL     1      -8.311  13.317  68.282  1.00  0.00    -0.156 N  
HETATM    6  C   UNL     1      -7.654  12.404  67.500  1.00  0.00    -0.155 C  
HETATM    7  H   UNL     1      -7.812  14.085  68.731  1.00  0.00     0.000 HD 
HETATM    8  N   UNL     1      -8.235  11.175  67.357  1.00  0.00    -0.128 N  
HETATM    9  O   UNL     1      -6.599  12.691  66.949  1.00  0.00    -0.095 OA 
HETATM   10  N   UNL     1     -10.287  12.184  67.830  1.00  0.00    -0.202 NA 
HETATM   11  C   UNL     1      -9.592  11.221  67.339  1.00  0.00    -0.169 C  
ENDROOT
BRANCH   8  12
HETATM   12  C1* UNL     1      -7.575  10.084  66.676  1.00  0.00    -0.104 C  
HETATM   13  O4* UNL     1      -7.226  10.566  65.357  1.00  0.00    -0.138 OA 
HETATM   14  C4* UNL     1      -8.302  10.212  64.453  1.00  0.00    -0.171 C  
HETATM   15  C3* UNL     1      -8.919   8.927  64.990  1.00  0.00    -0.108 C  
HETATM   16  H2* UNL     1      -7.851   6.829  66.191  1.00  0.00     0.000 HD 
HETATM   17  C2* UNL     1      -8.318   8.757  66.389  1.00  0.00    -0.116 C  
HETATM   18  O3* UNL     1      -8.605   7.842  64.113  1.00  0.00    -0.372 OA 
HETATM   19  O2* UNL     1      -7.394   7.643  66.368  1.00  0.00    -0.076 OA 
HETATM   20  H3* UNL     1      -8.989   7.040  64.449  1.00  0.00     0.000 HD 
BRANCH  14  21
HETATM   21  C5* UNL     1      -9.347  11.339  64.384  1.00  0.00    -0.124 C  
HETATM   22  O5* UNL     1     -10.588  10.841  63.897  1.00  0.00    -0.499 OA 
HETATM   23  H5* UNL     1     -11.234  11.538  63.853  1.00  0.00     0.000 HD 
ENDBRANCH  14  21
ENDBRANCH   8  12
TORSDOF 2
ENDMDL
MODEL      225
REMARK 921   NORMALIZED FREE ENERGY PREDICTED BY IDOCK:   -2.11 KCAL/MOL
REMARK 922        TOTAL FREE ENERGY PREDICTED BY IDOCK:   -2.33 KCAL/MOL
REMARK 923 INTER-LIGAND FREE ENERGY PREDICTED BY IDOCK:   -3.10 KCAL/MOL
REMARK 924 INTRA-LIGAND FREE ENERGY PREDICTED BY IDOCK:    0.77 KCAL/MOL
REMARK 927      BINDING AFFINITY PREDICTED BY RF-SCORE:    0.00 PKD
ROOT
HETATM    1  N   UNL     1      -6.347   9.054  67.147  1.00  0.00    -0.059 NA 
HETATM    2  H2  UNL     1      -6.108   8.635  66.248  1.00  0.00     0.000 HD 
HETATM    3  C   UNL     1      -7.175   8.406  67.999  1.00  0.00    -0.091 C  
HETATM    4  H1  UNL     1      -5.961   9.962  67.405  1.00  0.00     0.000 HD 
HETATM    5  N   UNL     1      -7.662   7.258  67.672  1.00  0.00    -0.110 N  
HETATM    6  C   UNL     1      -8.485   6.636  68.574  1.00  0.00    -0.122 C  
HETATM    7  H   UNL     1      -7.443   6.828  66.774  1.00  0.00     0.000 HD 
HETATM    8  N   UNL     1      -8.340   6.983  69.889  1.00  0.00    -0.137 N  
HETATM    9  O   UNL     1      -9.316   5.816  68.208  1.00  0.00    -0.116 OA 
HETATM   10  N   UNL     1      -7.467   9.025  69.167  1.00  0.00    -0.071 NA 
HETATM   11  C   UNL     1      -8.014   8.289  70.068  1.00  0.00    -0.104 C  
ENDROOT
BRANCH   8  12
HETATM   12  C1* UNL     1      -9.047   6.300  70.950  1.00  0.00    -0.151 C  
HETATM   13  O4* UNL     1     -10.447   6.296  70.583  1.00  0.00    -0.205 OA 
HETATM   14  C4* UNL     1     -11.070   7.456  71.189  1.00  0.00    -0.252 C  
HETATM   15  C3* UNL     1     -10.306   7.740  72.475  1.00  0.00    -0.268 C  
HETATM   16  H2* UNL     1      -9.177   6.134  74.245  1.00  0.00     0.000 HD 
HETATM   17  C2* UNL     1      -9.055   6.860  72.392  1.00  0.00    -0.133 C  
HETATM   18  O3* UNL     1     -11.131   7.430  73.602  1.00  0.00    -0.576 OA 
HETATM   19  O2* UNL     1      -9.172   5.790  73.360  1.00  0.00    -0.133 OA 
HETATM   20  H3* UNL     1     -10.654   7.608  74.404  1.00  0.00     0.000 HD 
BRANCH  14  21
HETATM   21  C5* UNL     1     -11.017   8.662  70.237  1.00  0.00    -0.236 C  
HETATM   22  O5* UNL     1     -11.163   9.879  70.961  1.00  0.00    -0.340 OA 
HETATM   23  H5* UNL     1     -11.130  10.624  70.373  1.00  0.00     0.000 HD 
ENDBRANCH  14  21
ENDBRANCH   8  12
TORSDOF 2
ENDMDL
MODEL      226
REMARK 921   NORMALIZED FREE ENERGY PREDICTED BY IDOCK:   -2.07 KCAL/MOL
REMARK 922        TOTAL FREE ENERGY PREDICTED BY IDOCK:   -2.29 KCAL/MOL
REMARK 923 INTER-LIGAND FREE ENERGY PREDICTED BY IDOCK:   -2.85 KCAL/MOL
REMARK 924 INTRA-LIGAND FREE ENERGY PREDICTED BY IDOCK:    0.57 KCAL/MOL
REMARK 927      BINDING AFFINITY PREDICTED BY RF-SCORE:    0.00 PKD
ROOT
HETATM    1  N   UNL     1      -7.910  20.867  64.774  1.00  0.00     0.367 NA 
HETATM    2  H2  UNL     1      -8.440  21.735  64.852  1.00  0.00     0.000 HD 
HETATM    3  C   UNL     1      -7.954  19.955  65.774  1.00  0.00    -0.187 C  
HETATM    4  H1  UNL     1      -7.347  20.684  63.944  1.00  0.00     0.000 HD 
HETATM    5  N   UNL     1      -8.666  20.185  66.823  1.00  0.00    -0.417 N  
HETATM    6  C   UNL     1      -8.689  19.225  67.800  1.00  0.00    -0.306 C  
HETATM    7  H   UNL     1      -9.194  21.052  66.922  1.00  0.00     0.000 HD 
HETATM    8  N   UNL     1      -8.407  17.943  67.418  1.00  0.00    -0.222 N  
HETATM    9  O   UNL     1      -8.941  19.515  68.962  1.00  0.00    -0.343 OA 
HETATM   10  N   UNL     1      -7.214  18.832  65.618  1.00  0.00    -0.494 NA 
HETATM   11  C   UNL     1      -7.482  17.869  66.426  1.00  0.00    -0.273 C  
ENDROOT
BRANCH   8  12
HETATM   12  C1* UNL     1      -8.535  16.822  68.322  1.00  0.00    -0.222 C  
HETATM   13  O4* UNL     1      -7.960  17.237  69.584  1.00  0.00     0.342 OA 
HETATM   14  C4* UNL     1      -6.570  16.829  69.598  1.00  0.00    -0.148 C  
HETATM   15  C3* UNL     1      -6.476  15.569  68.746  1.00  0.00    -0.107 C  
HETATM   16  H2* UNL     1      -8.141  13.544  68.407  1.00  0.00     0.000 HD 
HETATM   17  C2* UNL     1      -7.827  15.477  68.031  1.00  0.00    -0.126 C  
HETATM   18  O3* UNL     1      -6.213  14.441  69.586  1.00  0.00    -0.108 OA 
HETATM   19  O2* UNL     1      -8.576  14.370  68.587  1.00  0.00    -0.171 OA 
HETATM   20  H3* UNL     1      -6.154  13.656  69.055  1.00  0.00     0.000 HD 
BRANCH  14  21
HETATM   21  C5* UNL     1      -5.670  17.942  69.037  1.00  0.00    -0.200 C  
HETATM   22  O5* UNL     1      -6.010  19.199  69.612  1.00  0.00    -0.238 OA 
HETATM   23  H5* UNL     1      -5.455  19.887  69.265  1.00  0.00     0.000 HD 
ENDBRANCH  14  21
ENDBRANCH   8  12
TORSDOF 2
ENDMDL
MODEL      227
REMARK 921   NORMALIZED FREE ENERGY PREDICTED BY IDOCK:   -2.07 KCAL/MOL
REMARK 922        TOTAL FREE ENERGY PREDICTED BY IDOCK:   -2.28 KCAL/MOL
REMARK 923 INTER-LIGAND FREE ENERGY PREDICTED BY IDOCK:   -3.44 KCAL/MOL
REMARK 924 INTRA-LIGAND FREE ENERGY PREDICTED BY IDOCK:    1.15 KCAL/MOL
REMARK 927      BINDING AFFINITY PREDICTED BY RF-SCORE:    0.00 PKD
ROOT
HETATM    1  N   UNL     1      -9.821  11.519  64.913  1.00  0.00    -0.248 NA 
HETATM    2  H2  UNL     1     -10.453  12.196  64.485  1.00  0.00     0.000 HD 
HETATM    3  C   UNL     1     -10.076  11.042  66.153  1.00  0.00    -0.237 C  
HETATM    4  H1  UNL     1      -8.995  11.201  64.405  1.00  0.00     0.000 HD 
HETATM    5  N   UNL     1     -11.120  11.444  66.794  1.00  0.00    -0.294 N  
HETATM    6  C   UNL     1     -11.342  10.920  68.040  1.00  0.00    -0.312 C  
HETATM    7  H   UNL     1     -11.758  12.127  66.386  1.00  0.00     0.000 HD 
HETATM    8  N   UNL     1     -10.787   9.701  68.310  1.00  0.00    -0.215 N  
HETATM    9  O   UNL     1     -12.001  11.531  68.871  1.00  0.00    -0.333 OA 
HETATM   10  N   UNL     1      -9.189  10.160  66.671  1.00  0.00    -0.153 NA 
HETATM   11  C   UNL     1      -9.584   9.513  67.708  1.00  0.00    -0.133 C  
ENDROOT
BRANCH   8  12
HETATM   12  C1* UNL     1     -11.063   8.980  69.533  1.00  0.00    -0.024 C  
HETATM   13  O4* UNL     1     -10.535   9.782  70.617  1.00  0.00    -0.289 OA 
HETATM   14  C4* UNL     1      -9.187   9.328  70.893  1.00  0.00    -0.233 C  
HETATM   15  C3* UNL     1      -9.145   7.846  70.544  1.00  0.00    -0.154 C  
HETATM   16  H2* UNL     1     -10.946   5.927  70.787  1.00  0.00     0.000 HD 
HETATM   17  C2* UNL     1     -10.451   7.582  69.791  1.00  0.00    -0.230 C  
HETATM   18  O3* UNL     1      -9.027   7.075  71.743  1.00  0.00    -0.134 OA 
HETATM   19  O2* UNL     1     -11.322   6.786  70.629  1.00  0.00    -0.290 OA 
HETATM   20  H3* UNL     1      -9.001   6.151  71.525  1.00  0.00     0.000 HD 
BRANCH  14  21
HETATM   21  C5* UNL     1      -8.165  10.120  70.059  1.00  0.00    -0.035 C  
HETATM   22  O5* UNL     1      -6.845   9.898  70.541  1.00  0.00    -0.122 OA 
HETATM   23  H5* UNL     1      -6.214  10.387  70.027  1.00  0.00     0.000 HD 
ENDBRANCH  14  21
ENDBRANCH   8  12
TORSDOF 2
ENDMDL
MODEL      228
REMARK 921   NORMALIZED FREE ENERGY PREDICTED BY IDOCK:   -2.04 KCAL/MOL
REMARK 922        TOTAL FREE ENERGY PREDICTED BY IDOCK:   -2.26 KCAL/MOL
REMARK 923 INTER-LIGAND FREE ENERGY PREDICTED BY IDOCK:   -3.00 KCAL/MOL
REMARK 924 INTRA-LIGAND FREE ENERGY PREDICTED BY IDOCK:    0.74 KCAL/MOL
REMARK 927      BINDING AFFINITY PREDICTED BY RF-SCORE:    0.00 PKD
ROOT
HETATM    1  N   UNL     1      -9.050   8.430  72.290  1.00  0.00    -0.224 NA 
HETATM    2  H2  UNL     1      -8.515   9.272  72.507  1.00  0.00     0.000 HD 
HETATM    3  C   UNL     1      -8.848   7.782  71.119  1.00  0.00    -0.137 C  
HETATM    4  H1  UNL     1      -9.737   8.076  72.955  1.00  0.00     0.000 HD 
HETATM    5  N   UNL     1      -7.980   8.230  70.278  1.00  0.00    -0.099 N  
HETATM    6  C   UNL     1      -7.803   7.531  69.114  1.00  0.00    -0.119 C  
HETATM    7  H   UNL     1      -7.443   9.075  70.474  1.00  0.00     0.000 HD 
HETATM    8  N   UNL     1      -8.140   6.206  69.126  1.00  0.00    -0.108 N  
HETATM    9  O   UNL     1      -7.370   8.080  68.109  1.00  0.00    -0.091 OA 
HETATM   10  N   UNL     1      -9.603   6.683  70.883  1.00  0.00    -0.175 NA 
HETATM   11  C   UNL     1      -9.209   5.932  69.918  1.00  0.00    -0.146 C  
ENDROOT
BRANCH   8  12
HETATM   12  C1* UNL     1      -7.870   5.329  68.008  1.00  0.00    -0.091 C  
HETATM   13  O4* UNL     1      -8.141   6.090  66.807  1.00  0.00    -0.104 OA 
HETATM   14  C4* UNL     1      -9.513   5.834  66.416  1.00  0.00    -0.156 C  
HETATM   15  C3* UNL     1      -9.842   4.421  66.881  1.00  0.00    -0.207 C  
HETATM   16  H2* UNL     1      -8.380   2.223  67.010  1.00  0.00     0.000 HD 
HETATM   17  C2* UNL     1      -8.683   4.029  67.800  1.00  0.00    -0.104 C  
HETATM   18  O3* UNL     1      -9.969   3.560  65.745  1.00  0.00    -0.399 OA 
HETATM   19  O2* UNL     1      -7.881   3.021  67.138  1.00  0.00    -0.074 OA 
HETATM   20  H3* UNL     1     -10.174   2.679  66.035  1.00  0.00     0.000 HD 
BRANCH  14  21
HETATM   21  C5* UNL     1     -10.462   6.861  67.056  1.00  0.00    -0.304 C  
HETATM   22  O5* UNL     1     -10.368   8.114  66.388  1.00  0.00    -0.458 OA 
HETATM   23  H5* UNL     1     -10.954   8.749  66.784  1.00  0.00     0.000 HD 
ENDBRANCH  14  21
ENDBRANCH   8  12
TORSDOF 2
ENDMDL
MODEL      229
REMARK 921   NORMALIZED FREE ENERGY PREDICTED BY IDOCK:   -2.00 KCAL/MOL
REMARK 922        TOTAL FREE ENERGY PREDICTED BY IDOCK:   -2.21 KCAL/MOL
REMARK 923 INTER-LIGAND FREE ENERGY PREDICTED BY IDOCK:   -2.19 KCAL/MOL
REMARK 924 INTRA-LIGAND FREE ENERGY PREDICTED BY IDOCK:   -0.02 KCAL/MOL
REMARK 927      BINDING AFFINITY PREDICTED BY RF-SCORE:    0.00 PKD
ROOT
HETATM    1  N   UNL     1     -11.287   8.202  69.239  1.00  0.00    -0.282 NA 
HETATM    2  H2  UNL     1     -12.143   7.789  68.866  1.00  0.00     0.000 HD 
HETATM    3  C   UNL     1     -10.651   7.617  70.281  1.00  0.00    -0.230 C  
HETATM    4  H1  UNL     1     -10.911   9.055  68.828  1.00  0.00     0.000 HD 
HETATM    5  N   UNL     1     -11.128   6.538  70.801  1.00  0.00    -0.280 N  
HETATM    6  C   UNL     1     -10.439   5.976  71.844  1.00  0.00    -0.218 C  
HETATM    7  H   UNL     1     -11.987   6.117  70.447  1.00  0.00     0.000 HD 
HETATM    8  N   UNL     1      -9.106   6.262  71.934  1.00  0.00    -0.143 N  
HETATM    9  O   UNL     1     -11.006   5.260  72.659  1.00  0.00    -0.238 OA 
HETATM   10  N   UNL     1      -9.532   8.224  70.741  1.00  0.00    -0.158 NA 
HETATM   11  C   UNL     1      -8.797   7.520  71.526  1.00  0.00    -0.124 C  
ENDROOT
BRANCH   8  12
HETATM   12  C1* UNL     1      -8.243   5.623  72.902  1.00  0.00    -0.119 C  
HETATM   13  O4* UNL     1      -6.882   5.898  72.493  1.00  0.00    -0.074 OA 
HETATM   14  C4* UNL     1      -6.433   4.796  71.666  1.00  0.00    -0.023 C  
HETATM   15  C3* UNL     1      -7.170   3.555  72.154  1.00  0.00    -0.050 C  
HETATM   16  H2* UNL     1      -7.923   2.790  74.570  1.00  0.00     0.000 HD 
HETATM   17  C2* UNL     1      -8.257   4.087  73.092  1.00  0.00    -0.089 C  
HETATM   18  O3* UNL     1      -6.249   2.678  72.810  1.00  0.00    -0.009 OA 
HETATM   19  O2* UNL     1      -7.914   3.733  74.454  1.00  0.00    -0.079 OA 
HETATM   20  H3* UNL     1      -6.709   1.905  73.114  1.00  0.00     0.000 HD 
BRANCH  14  21
HETATM   21  C5* UNL     1      -6.736   5.069  70.183  1.00  0.00    -0.037 C  
HETATM   22  O5* UNL     1      -6.707   3.859  69.434  1.00  0.00    -0.039 OA 
HETATM   23  H5* UNL     1      -6.893   4.029  68.518  1.00  0.00     0.000 HD 
ENDBRANCH  14  21
ENDBRANCH   8  12
TORSDOF 2
ENDMDL
MODEL      230
REMARK 921   NORMALIZED FREE ENERGY PREDICTED BY IDOCK:   -1.97 KCAL/MOL
REMARK 922        TOTAL FREE ENERGY PREDICTED BY IDOCK:   -2.17 KCAL/MOL
REMARK 923 INTER-LIGAND FREE ENERGY PREDICTED BY IDOCK:   -2.13 KCAL/MOL
REMARK 924 INTRA-LIGAND FREE ENERGY PREDICTED BY IDOCK:   -0.05 KCAL/MOL
REMARK 927      BINDING AFFINITY PREDICTED BY RF-SCORE:    0.00 PKD
ROOT
HETATM    1  N   UNL     1      -9.565  11.824  68.645  1.00  0.00    -0.341 NA 
HETATM    2  H2  UNL     1      -8.862  12.565  68.633  1.00  0.00     0.000 HD 
HETATM    3  C   UNL     1      -9.427  10.746  67.837  1.00  0.00    -0.157 C  
HETATM    4  H1  UNL     1     -10.371  11.895  69.265  1.00  0.00     0.000 HD 
HETATM    5  N   UNL     1      -8.408  10.657  67.054  1.00  0.00    -0.125 N  
HETATM    6  C   UNL     1      -8.306   9.540  66.267  1.00  0.00    -0.115 C  
HETATM    7  H   UNL     1      -7.701  11.392  67.021  1.00  0.00     0.000 HD 
HETATM    8  N   UNL     1      -8.954   8.416  66.697  1.00  0.00    -0.143 N  
HETATM    9  O   UNL     1      -7.670   9.562  65.221  1.00  0.00    -0.105 OA 
HETATM   10  N   UNL     1     -10.402   9.808  67.888  1.00  0.00    -0.198 NA 
HETATM   11  C   UNL     1     -10.122   8.681  67.339  1.00  0.00    -0.229 C  
ENDROOT
BRANCH   8  12
HETATM   12  C1* UNL     1      -8.810   7.140  66.032  1.00  0.00    -0.131 C  
HETATM   13  O4* UNL     1      -9.129   6.122  67.011  1.00  0.00    -0.116 OA 
HETATM   14  C4* UNL     1      -7.893   5.705  67.641  1.00  0.00    -0.097 C  
HETATM   15  C3* UNL     1      -6.793   5.877  66.601  1.00  0.00    -0.059 C  
HETATM   16  H2* UNL     1      -6.780   5.537  63.980  1.00  0.00     0.000 HD 
HETATM   17  C2* UNL     1      -7.442   6.682  65.472  1.00  0.00    -0.079 C  
HETATM   18  O3* UNL     1      -6.332   4.592  66.175  1.00  0.00    -0.034 OA 
HETATM   19  O2* UNL     1      -7.619   5.818  64.324  1.00  0.00    -0.070 OA 
HETATM   20  H3* UNL     1      -5.646   4.699  65.526  1.00  0.00     0.000 HD 
BRANCH  14  21
HETATM   21  C5* UNL     1      -7.606   6.553  68.892  1.00  0.00    -0.100 C  
HETATM   22  O5* UNL     1      -6.210   6.794  69.025  1.00  0.00    -0.025 OA 
HETATM   23  H5* UNL     1      -6.033   7.318  69.798  1.00  0.00     0.000 HD 
ENDBRANCH  14  21
ENDBRANCH   8  12
TORSDOF 2
ENDMDL
MODEL      231
REMARK 921   NORMALIZED FREE ENERGY PREDICTED BY IDOCK:   -1.94 KCAL/MOL
REMARK 922        TOTAL FREE ENERGY PREDICTED BY IDOCK:   -2.14 KCAL/MOL
REMARK 923 INTER-LIGAND FREE ENERGY PREDICTED BY IDOCK:   -2.72 KCAL/MOL
REMARK 924 INTRA-LIGAND FREE ENERGY PREDICTED BY IDOCK:    0.57 KCAL/MOL
REMARK 927      BINDING AFFINITY PREDICTED BY RF-SCORE:    0.00 PKD
ROOT
HETATM    1  N   UNL     1      -5.131   9.106  71.882  1.00  0.00    -0.045 NA 
HETATM    2  H2  UNL     1      -4.488   9.414  71.151  1.00  0.00     0.000 HD 
HETATM    3  C   UNL     1      -6.331   8.575  71.550  1.00  0.00    -0.057 C  
HETATM    4  H1  UNL     1      -4.869   9.198  72.864  1.00  0.00     0.000 HD 
HETATM    5  N   UNL     1      -6.661   8.459  70.310  1.00  0.00    -0.035 N  
HETATM    6  C   UNL     1      -7.880   7.902  70.025  1.00  0.00    -0.105 C  
HETATM    7  H   UNL     1      -6.036   8.771  69.566  1.00  0.00     0.000 HD 
HETATM    8  N   UNL     1      -8.421   7.076  70.970  1.00  0.00    -0.132 N  
HETATM    9  O   UNL     1      -8.455   8.150  68.974  1.00  0.00    -0.127 OA 
HETATM   10  N   UNL     1      -7.144   8.203  72.567  1.00  0.00    -0.094 NA 
HETATM   11  C   UNL     1      -8.137   7.455  72.243  1.00  0.00    -0.101 C  
ENDROOT
BRANCH   8  12
HETATM   12  C1* UNL     1      -9.630   6.319  70.732  1.00  0.00    -0.176 C  
HETATM   13  O4* UNL     1     -10.577   7.227  70.121  1.00  0.00    -0.220 OA 
HETATM   14  C4* UNL     1     -11.387   7.805  71.175  1.00  0.00    -0.269 C  
HETATM   15  C3* UNL     1     -11.472   6.761  72.282  1.00  0.00    -0.276 C  
HETATM   16  H2* UNL     1     -11.606   4.122  72.207  1.00  0.00     0.000 HD 
HETATM   17  C2* UNL     1     -10.430   5.704  71.906  1.00  0.00    -0.225 C  
HETATM   18  O3* UNL     1     -12.801   6.236  72.343  1.00  0.00    -0.546 OA 
HETATM   19  O2* UNL     1     -11.115   4.500  71.487  1.00  0.00     0.382 OA 
HETATM   20  H3* UNL     1     -12.854   5.585  73.033  1.00  0.00     0.000 HD 
BRANCH  14  21
HETATM   21  C5* UNL     1     -10.756   9.108  71.694  1.00  0.00    -0.371 C  
HETATM   22  O5* UNL     1     -10.549  10.025  70.624  1.00  0.00    -0.320 OA 
HETATM   23  H5* UNL     1     -10.160  10.830  70.945  1.00  0.00     0.000 HD 
ENDBRANCH  14  21
ENDBRANCH   8  12
TORSDOF 2
ENDMDL
MODEL      232
REMARK 921   NORMALIZED FREE ENERGY PREDICTED BY IDOCK:   -1.88 KCAL/MOL
REMARK 922        TOTAL FREE ENERGY PREDICTED BY IDOCK:   -2.08 KCAL/MOL
REMARK 923 INTER-LIGAND FREE ENERGY PREDICTED BY IDOCK:   -1.98 KCAL/MOL
REMARK 924 INTRA-LIGAND FREE ENERGY PREDICTED BY IDOCK:   -0.10 KCAL/MOL
REMARK 927      BINDING AFFINITY PREDICTED BY RF-SCORE:    0.00 PKD
ROOT
HETATM    1  N   UNL     1     -12.117  16.657  73.573  1.00  0.00    -0.407 NA 
HETATM    2  H2  UNL     1     -12.693  17.489  73.709  1.00  0.00     0.000 HD 
HETATM    3  C   UNL     1     -12.124  16.015  72.381  1.00  0.00    -0.535 C  
HETATM    4  H1  UNL     1     -11.537  16.308  74.336  1.00  0.00     0.000 HD 
HETATM    5  N   UNL     1     -12.857  16.457  71.418  1.00  0.00    -0.055 N  
HETATM    6  C   UNL     1     -12.818  15.781  70.227  1.00  0.00     0.041 C  
HETATM    7  H   UNL     1     -13.446  17.281  71.538  1.00  0.00     0.000 HD 
HETATM    8  N   UNL     1     -11.695  15.046  69.966  1.00  0.00    -0.285 N  
HETATM    9  O   UNL     1     -13.757  15.831  69.443  1.00  0.00     1.544 OA 
HETATM   10  N   UNL     1     -11.353  14.907  72.272  1.00  0.00    -0.116 NA 
HETATM   11  C   UNL     1     -11.153  14.482  71.077  1.00  0.00     0.308 C  
ENDROOT
BRANCH   8  12
HETATM   12  C1* UNL     1     -11.472  14.403  68.690  1.00  0.00    -0.287 C  
HETATM   13  O4* UNL     1     -10.057  14.108  68.615  1.00  0.00    -0.232 OA 
HETATM   14  C4* UNL     1      -9.405  15.214  67.944  1.00  0.00    -0.185 C  
HETATM   15  C3* UNL     1     -10.425  15.800  66.976  1.00  0.00    -0.309 C  
HETATM   16  H2* UNL     1     -12.311  14.672  65.508  1.00  0.00     0.000 HD 
HETATM   17  C2* UNL     1     -11.755  15.146  67.363  1.00  0.00    -0.175 C  
HETATM   18  O3* UNL     1     -10.032  15.510  65.632  1.00  0.00    -0.328 OA 
HETATM   19  O2* UNL     1     -12.138  14.215  66.323  1.00  0.00    -0.412 OA 
HETATM   20  H3* UNL     1     -10.668  15.876  65.028  1.00  0.00     0.000 HD 
BRANCH  14  21
HETATM   21  C5* UNL     1      -8.939  16.269  68.961  1.00  0.00    -0.254 C  
HETATM   22  O5* UNL     1      -9.594  17.511  68.729  1.00  0.00    -0.291 OA 
HETATM   23  H5* UNL     1      -9.306  18.163  69.358  1.00  0.00     0.000 HD 
ENDBRANCH  14  21
ENDBRANCH   8  12
TORSDOF 2
ENDMDL
MODEL      233
REMARK 921   NORMALIZED FREE ENERGY PREDICTED BY IDOCK:   -1.85 KCAL/MOL
REMARK 922        TOTAL FREE ENERGY PREDICTED BY IDOCK:   -2.04 KCAL/MOL
REMARK 923 INTER-LIGAND FREE ENERGY PREDICTED BY IDOCK:   -2.05 KCAL/MOL
REMARK 924 INTRA-LIGAND FREE ENERGY PREDICTED BY IDOCK:    0.01 KCAL/MOL
REMARK 927      BINDING AFFINITY PREDICTED BY RF-SCORE:    0.00 PKD
ROOT
HETATM    1  N   UNL     1      -6.790   9.700  67.736  1.00  0.00    -0.077 NA 
HETATM    2  H2  UNL     1      -6.623   9.084  66.941  1.00  0.00     0.000 HD 
HETATM    3  C   UNL     1      -7.640   9.322  68.720  1.00  0.00    -0.079 C  
HETATM    4  H1  UNL     1      -6.318  10.602  67.792  1.00  0.00     0.000 HD 
HETATM    5  N   UNL     1      -8.236   8.181  68.650  1.00  0.00    -0.124 N  
HETATM    6  C   UNL     1      -9.074   7.838  69.678  1.00  0.00    -0.146 C  
HETATM    7  H   UNL     1      -8.088   7.556  67.858  1.00  0.00     0.000 HD 
HETATM    8  N   UNL     1      -8.851   8.433  70.888  1.00  0.00    -0.148 N  
HETATM    9  O   UNL     1      -9.987   7.040  69.506  1.00  0.00    -0.159 OA 
HETATM   10  N   UNL     1      -7.833  10.193  69.739  1.00  0.00    -0.168 NA 
HETATM   11  C   UNL     1      -8.407   9.712  70.783  1.00  0.00     0.120 C  
ENDROOT
BRANCH   8  12
HETATM   12  C1* UNL     1      -9.574   8.053  72.081  1.00  0.00    -0.215 C  
HETATM   13  O4* UNL     1      -8.707   8.341  73.203  1.00  0.00    -0.227 OA 
HETATM   14  C4* UNL     1      -7.963   7.137  73.514  1.00  0.00    -0.107 C  
HETATM   15  C3* UNL     1      -8.853   5.962  73.128  1.00  0.00    -0.121 C  
HETATM   16  H2* UNL     1     -11.471   5.619  73.258  1.00  0.00     0.000 HD 
HETATM   17  C2* UNL     1      -9.998   6.584  72.323  1.00  0.00    -0.163 C  
HETATM   18  O3* UNL     1      -9.303   5.294  74.310  1.00  0.00    -0.126 OA 
HETATM   19  O2* UNL     1     -11.211   6.521  73.109  1.00  0.00    -0.205 OA 
HETATM   20  H3* UNL     1      -9.858   4.561  74.069  1.00  0.00     0.000 HD 
BRANCH  14  21
HETATM   21  C5* UNL     1      -6.636   7.102  72.738  1.00  0.00    -0.063 C  
HETATM   22  O5* UNL     1      -6.153   5.767  72.632  1.00  0.00    -0.038 OA 
HETATM   23  H5* UNL     1      -5.332   5.745  72.153  1.00  0.00     0.000 HD 
ENDBRANCH  14  21
ENDBRANCH   8  12
TORSDOF 2
ENDMDL
MODEL      234
REMARK 921   NORMALIZED FREE ENERGY PREDICTED BY IDOCK:   -1.79 KCAL/MOL
REMARK 922        TOTAL FREE ENERGY PREDICTED BY IDOCK:   -1.98 KCAL/MOL
REMARK 923 INTER-LIGAND FREE ENERGY PREDICTED BY IDOCK:   -1.93 KCAL/MOL
REMARK 924 INTRA-LIGAND FREE ENERGY PREDICTED BY IDOCK:   -0.04 KCAL/MOL
REMARK 927      BINDING AFFINITY PREDICTED BY RF-SCORE:    0.00 PKD
ROOT
HETATM    1  N   UNL     1      -6.642   6.122  70.027  1.00  0.00    -0.043 NA 
HETATM    2  H2  UNL     1      -7.440   5.883  70.618  1.00  0.00     0.000 HD 
HETATM    3  C   UNL     1      -6.837   6.456  68.730  1.00  0.00    -0.074 C  
HETATM    4  H1  UNL     1      -5.699   6.109  70.413  1.00  0.00     0.000 HD 
HETATM    5  N   UNL     1      -8.029   6.472  68.242  1.00  0.00    -0.109 N  
HETATM    6  C   UNL     1      -8.175   6.831  66.928  1.00  0.00    -0.113 C  
HETATM    7  H   UNL     1      -8.837   6.227  68.815  1.00  0.00     0.000 HD 
HETATM    8  N   UNL     1      -7.190   7.606  66.383  1.00  0.00    -0.077 N  
HETATM    9  O   UNL     1      -9.143   6.460  66.277  1.00  0.00    -0.153 OA 
HETATM   10  N   UNL     1      -5.737   6.744  67.995  1.00  0.00    -0.015 NA 
HETATM   11  C   UNL     1      -5.953   7.323  66.869  1.00  0.00    -0.038 C  
ENDROOT
BRANCH   8  12
HETATM   12  C1* UNL     1      -7.294   8.166  65.054  1.00  0.00    -0.082 C  
HETATM   13  O4* UNL     1      -6.292   9.205  64.960  1.00  0.00    -0.064 OA 
HETATM   14  C4* UNL     1      -6.917  10.462  65.319  1.00  0.00    -0.099 C  
HETATM   15  C3* UNL     1      -8.381  10.353  64.914  1.00  0.00    -0.165 C  
HETATM   16  H2* UNL     1      -9.559   9.165  62.867  1.00  0.00     0.000 HD 
HETATM   17  C2* UNL     1      -8.589   8.872  64.585  1.00  0.00    -0.143 C  
HETATM   18  O3* UNL     1      -8.635  11.212  63.799  1.00  0.00    -0.380 OA 
HETATM   19  O2* UNL     1      -8.764   8.731  63.155  1.00  0.00    -0.133 OA 
HETATM   20  H3* UNL     1      -9.548  11.144  63.546  1.00  0.00     0.000 HD 
BRANCH  14  21
HETATM   21  C5* UNL     1      -6.780  10.727  66.827  1.00  0.00    -0.110 C  
HETATM   22  O5* UNL     1      -7.878  11.498  67.303  1.00  0.00    -0.137 OA 
HETATM   23  H5* UNL     1      -7.793  11.662  68.235  1.00  0.00     0.000 HD 
ENDBRANCH  14  21
ENDBRANCH   8  12
TORSDOF 2
ENDMDL
MODEL      235
REMARK 921   NORMALIZED FREE ENERGY PREDICTED BY IDOCK:   -1.78 KCAL/MOL
REMARK 922        TOTAL FREE ENERGY PREDICTED BY IDOCK:   -1.97 KCAL/MOL
REMARK 923 INTER-LIGAND FREE ENERGY PREDICTED BY IDOCK:   -2.07 KCAL/MOL
REMARK 924 INTRA-LIGAND FREE ENERGY PREDICTED BY IDOCK:    0.10 KCAL/MOL
REMARK 927      BINDING AFFINITY PREDICTED BY RF-SCORE:    0.00 PKD
ROOT
HETATM    1  N   UNL     1      -9.284   4.166  72.861  1.00  0.00    -0.111 NA 
HETATM    2  H2  UNL     1      -9.195   4.255  73.874  1.00  0.00     0.000 HD 
HETATM    3  C   UNL     1      -9.260   5.270  72.079  1.00  0.00    -0.137 C  
HETATM    4  H1  UNL     1      -9.391   3.245  72.437  1.00  0.00     0.000 HD 
HETATM    5  N   UNL     1      -9.125   6.434  72.615  1.00  0.00    -0.136 N  
HETATM    6  C   UNL     1      -9.092   7.520  71.780  1.00  0.00    -0.125 C  
HETATM    7  H   UNL     1      -9.045   6.544  73.626  1.00  0.00     0.000 HD 
HETATM    8  N   UNL     1      -8.701   7.299  70.489  1.00  0.00    -0.147 N  
HETATM    9  O   UNL     1      -9.411   8.632  72.179  1.00  0.00    -0.283 OA 
HETATM   10  N   UNL     1      -9.401   5.086  70.745  1.00  0.00    -0.147 NA 
HETATM   11  C   UNL     1      -9.097   6.092  70.007  1.00  0.00    -0.147 C  
ENDROOT
BRANCH   8  12
HETATM   12  C1* UNL     1      -8.491   8.378  69.550  1.00  0.00    -0.124 C  
HETATM   13  O4* UNL     1      -7.287   8.060  68.812  1.00  0.00    -0.081 OA 
HETATM   14  C4* UNL     1      -6.170   8.695  69.482  1.00  0.00    -0.036 C  
HETATM   15  C3* UNL     1      -6.716   9.957  70.139  1.00  0.00    -0.112 C  
HETATM   16  H2* UNL     1      -8.575  11.675  69.379  1.00  0.00     0.000 HD 
HETATM   17  C2* UNL     1      -8.238   9.824  70.040  1.00  0.00    -0.191 C  
HETATM   18  O3* UNL     1      -6.212  11.108  69.457  1.00  0.00    -0.067 OA 
HETATM   19  O2* UNL     1      -8.730  10.788  69.078  1.00  0.00    -0.161 OA 
HETATM   20  H3* UNL     1      -6.552  11.895  69.867  1.00  0.00     0.000 HD 
BRANCH  14  21
HETATM   21  C5* UNL     1      -5.555   7.750  70.528  1.00  0.00    -0.026 C  
HETATM   22  O5* UNL     1      -5.294   8.448  71.741  1.00  0.00    -0.034 OA 
HETATM   23  H5* UNL     1      -4.913   7.864  72.387  1.00  0.00     0.000 HD 
ENDBRANCH  14  21
ENDBRANCH   8  12
TORSDOF 2
ENDMDL
MODEL      236
REMARK 921   NORMALIZED FREE ENERGY PREDICTED BY IDOCK:   -1.76 KCAL/MOL
REMARK 922        TOTAL FREE ENERGY PREDICTED BY IDOCK:   -1.95 KCAL/MOL
REMARK 923 INTER-LIGAND FREE ENERGY PREDICTED BY IDOCK:   -2.74 KCAL/MOL
REMARK 924 INTRA-LIGAND FREE ENERGY PREDICTED BY IDOCK:    0.79 KCAL/MOL
REMARK 927      BINDING AFFINITY PREDICTED BY RF-SCORE:    0.00 PKD
ROOT
HETATM    1  N   UNL     1      -6.141  16.472  68.954  1.00  0.00    -0.141 NA 
HETATM    2  H2  UNL     1      -5.144  16.533  68.743  1.00  0.00     0.000 HD 
HETATM    3  C   UNL     1      -6.831  15.348  68.649  1.00  0.00    -0.106 C  
HETATM    4  H1  UNL     1      -6.618  17.258  69.395  1.00  0.00     0.000 HD 
HETATM    5  N   UNL     1      -6.228  14.355  68.092  1.00  0.00    -0.125 N  
HETATM    6  C   UNL     1      -6.967  13.235  67.817  1.00  0.00    -0.153 C  
HETATM    7  H   UNL     1      -5.234  14.402  67.865  1.00  0.00     0.000 HD 
HETATM    8  N   UNL     1      -8.093  13.034  68.565  1.00  0.00    -0.122 N  
HETATM    9  O   UNL     1      -6.630  12.460  66.931  1.00  0.00    -0.070 OA 
HETATM   10  N   UNL     1      -8.154  15.338  68.938  1.00  0.00    -0.165 NA 
HETATM   11  C   UNL     1      -8.724  14.187  68.907  1.00  0.00     0.020 C  
ENDROOT
BRANCH   8  12
HETATM   12  C1* UNL     1      -8.879  11.824  68.469  1.00  0.00    -0.122 C  
HETATM   13  O4* UNL     1      -8.860  11.424  67.078  1.00  0.00    -0.158 OA 
HETATM   14  C4* UNL     1     -10.028  11.993  66.434  1.00  0.00    -0.219 C  
HETATM   15  C3* UNL     1     -11.110  12.090  67.501  1.00  0.00    -0.275 C  
HETATM   16  H2* UNL     1     -11.718  10.523  69.542  1.00  0.00     0.000 HD 
HETATM   17  C2* UNL     1     -10.385  11.820  68.823  1.00  0.00    -0.179 C  
HETATM   18  O3* UNL     1     -12.141  11.136  67.227  1.00  0.00    -0.242 OA 
HETATM   19  O2* UNL     1     -10.793  10.525  69.324  1.00  0.00    -0.210 OA 
HETATM   20  H3* UNL     1     -12.816  11.197  67.893  1.00  0.00     0.000 HD 
BRANCH  14  21
HETATM   21  C5* UNL     1      -9.706  13.377  65.847  1.00  0.00    -0.182 C  
HETATM   22  O5* UNL     1     -10.872  14.192  65.818  1.00  0.00    -0.287 OA 
HETATM   23  H5* UNL     1     -10.673  15.048  65.455  1.00  0.00     0.000 HD 
ENDBRANCH  14  21
ENDBRANCH   8  12
TORSDOF 2
ENDMDL
MODEL      237
REMARK 921   NORMALIZED FREE ENERGY PREDICTED BY IDOCK:   -1.76 KCAL/MOL
REMARK 922        TOTAL FREE ENERGY PREDICTED BY IDOCK:   -1.94 KCAL/MOL
REMARK 923 INTER-LIGAND FREE ENERGY PREDICTED BY IDOCK:   -2.48 KCAL/MOL
REMARK 924 INTRA-LIGAND FREE ENERGY PREDICTED BY IDOCK:    0.54 KCAL/MOL
REMARK 927      BINDING AFFINITY PREDICTED BY RF-SCORE:    0.00 PKD
ROOT
HETATM    1  N   UNL     1      -6.014   5.630  71.077  1.00  0.00    -0.028 NA 
HETATM    2  H2  UNL     1      -5.869   5.763  72.078  1.00  0.00     0.000 HD 
HETATM    3  C   UNL     1      -6.610   6.599  70.343  1.00  0.00    -0.048 C  
HETATM    4  H1  UNL     1      -5.709   4.767  70.627  1.00  0.00     0.000 HD 
HETATM    5  N   UNL     1      -6.995   7.690  70.912  1.00  0.00    -0.053 N  
HETATM    6  C   UNL     1      -7.580   8.646  70.124  1.00  0.00    -0.069 C  
HETATM    7  H   UNL     1      -6.868   7.836  71.913  1.00  0.00     0.000 HD 
HETATM    8  N   UNL     1      -7.275   8.626  68.792  1.00  0.00    -0.074 N  
HETATM    9  O   UNL     1      -8.350   9.470  70.600  1.00  0.00    -0.192 OA 
HETATM   10  N   UNL     1      -6.789   6.354  69.024  1.00  0.00    -0.063 NA 
HETATM   11  C   UNL     1      -7.090   7.373  68.302  1.00  0.00    -0.084 C  
ENDROOT
BRANCH   8  12
HETATM   12  C1* UNL     1      -7.714   9.661  67.883  1.00  0.00    -0.087 C  
HETATM   13  O4* UNL     1      -9.085   9.967  68.230  1.00  0.00    -0.122 OA 
HETATM   14  C4* UNL     1      -9.948   9.152  67.399  1.00  0.00    -0.206 C  
HETATM   15  C3* UNL     1      -9.206   8.926  66.089  1.00  0.00    -0.217 C  
HETATM   16  H2* UNL     1      -7.593  10.481  64.686  1.00  0.00     0.000 HD 
HETATM   17  C2* UNL     1      -7.777   9.409  66.357  1.00  0.00    -0.097 C  
HETATM   18  O3* UNL     1      -9.852   9.652  65.040  1.00  0.00    -0.423 OA 
HETATM   19  O2* UNL     1      -7.553  10.636  65.623  1.00  0.00    -0.151 OA 
HETATM   20  H3* UNL     1      -9.388   9.511  64.223  1.00  0.00     0.000 HD 
BRANCH  14  21
HETATM   21  C5* UNL     1     -10.268   7.816  68.091  1.00  0.00    -0.202 C  
HETATM   22  O5* UNL     1     -10.814   8.041  69.386  1.00  0.00    -0.360 OA 
HETATM   23  H5* UNL     1     -11.011   7.215  69.813  1.00  0.00     0.000 HD 
ENDBRANCH  14  21
ENDBRANCH   8  12
TORSDOF 2
ENDMDL
MODEL      238
REMARK 921   NORMALIZED FREE ENERGY PREDICTED BY IDOCK:   -1.73 KCAL/MOL
REMARK 922        TOTAL FREE ENERGY PREDICTED BY IDOCK:   -1.90 KCAL/MOL
REMARK 923 INTER-LIGAND FREE ENERGY PREDICTED BY IDOCK:   -2.70 KCAL/MOL
REMARK 924 INTRA-LIGAND FREE ENERGY PREDICTED BY IDOCK:    0.80 KCAL/MOL
REMARK 927      BINDING AFFINITY PREDICTED BY RF-SCORE:    0.00 PKD
ROOT
HETATM    1  N   UNL     1     -10.546   7.316  72.023  1.00  0.00    -0.205 NA 
HETATM    2  H2  UNL     1     -10.296   6.433  72.469  1.00  0.00     0.000 HD 
HETATM    3  C   UNL     1      -9.962   7.674  70.856  1.00  0.00    -0.180 C  
HETATM    4  H1  UNL     1     -11.236   7.929  72.456  1.00  0.00     0.000 HD 
HETATM    5  N   UNL     1      -9.090   6.899  70.309  1.00  0.00    -0.152 N  
HETATM    6  C   UNL     1      -8.539   7.300  69.121  1.00  0.00    -0.133 C  
HETATM    7  H   UNL     1      -8.821   6.017  70.746  1.00  0.00     0.000 HD 
HETATM    8  N   UNL     1      -9.265   8.174  68.362  1.00  0.00    -0.136 N  
HETATM    9  O   UNL     1      -7.438   6.895  68.769  1.00  0.00    -0.094 OA 
HETATM   10  N   UNL     1     -10.324   8.866  70.325  1.00  0.00    -0.198 NA 
HETATM   11  C   UNL     1      -9.983   9.059  69.101  1.00  0.00    -0.185 C  
ENDROOT
BRANCH   8  12
HETATM   12  C1* UNL     1      -8.859   8.562  67.029  1.00  0.00    -0.133 C  
HETATM   13  O4* UNL     1      -7.522   9.104  67.142  1.00  0.00    -0.086 OA 
HETATM   14  C4* UNL     1      -7.634  10.540  67.307  1.00  0.00    -0.096 C  
HETATM   15  C3* UNL     1      -8.899  10.966  66.573  1.00  0.00    -0.163 C  
HETATM   16  H2* UNL     1     -10.021  10.094  64.344  1.00  0.00     0.000 HD 
HETATM   17  C2* UNL     1      -9.626   9.657  66.249  1.00  0.00    -0.221 C  
HETATM   18  O3* UNL     1      -8.547  11.711  65.404  1.00  0.00    -0.389 OA 
HETATM   19  O2* UNL     1      -9.550   9.421  64.823  1.00  0.00    -0.150 OA 
HETATM   20  H3* UNL     1      -9.336  11.977  64.947  1.00  0.00     0.000 HD 
BRANCH  14  21
HETATM   21  C5* UNL     1      -7.709  10.912  68.797  1.00  0.00    -0.129 C  
HETATM   22  O5* UNL     1      -6.653  10.291  69.522  1.00  0.00    -0.050 OA 
HETATM   23  H5* UNL     1      -6.700  10.521  70.443  1.00  0.00     0.000 HD 
ENDBRANCH  14  21
ENDBRANCH   8  12
TORSDOF 2
ENDMDL
MODEL      239
REMARK 921   NORMALIZED FREE ENERGY PREDICTED BY IDOCK:   -1.61 KCAL/MOL
REMARK 922        TOTAL FREE ENERGY PREDICTED BY IDOCK:   -1.77 KCAL/MOL
REMARK 923 INTER-LIGAND FREE ENERGY PREDICTED BY IDOCK:   -1.82 KCAL/MOL
REMARK 924 INTRA-LIGAND FREE ENERGY PREDICTED BY IDOCK:    0.05 KCAL/MOL
REMARK 927      BINDING AFFINITY PREDICTED BY RF-SCORE:    0.00 PKD
ROOT
HETATM    1  N   UNL     1      -5.972  13.727  68.130  1.00  0.00    -0.111 NA 
HETATM    2  H2  UNL     1      -5.965  14.624  68.618  1.00  0.00     0.000 HD 
HETATM    3  C   UNL     1      -6.001  12.572  68.835  1.00  0.00    -0.070 C  
HETATM    4  H1  UNL     1      -5.956  13.700  67.111  1.00  0.00     0.000 HD 
HETATM    5  N   UNL     1      -6.022  12.606  70.123  1.00  0.00    -0.223 N  
HETATM    6  C   UNL     1      -6.066  11.411  70.791  1.00  0.00     0.164 C  
HETATM    7  H   UNL     1      -6.005  13.493  70.628  1.00  0.00     0.000 HD 
HETATM    8  N   UNL     1      -6.581  10.340  70.116  1.00  0.00    -0.123 N  
HETATM    9  O   UNL     1      -5.650  11.314  71.938  1.00  0.00    -0.272 OA 
HETATM   10  N   UNL     1      -5.990  11.417  68.129  1.00  0.00    -0.045 NA 
HETATM   11  C   UNL     1      -6.300  10.357  68.787  1.00  0.00    -0.047 C  
ENDROOT
BRANCH   8  12
HETATM   12  C1* UNL     1      -6.812   9.063  70.753  1.00  0.00    -0.075 C  
HETATM   13  O4* UNL     1      -7.581   8.265  69.822  1.00  0.00    -0.087 OA 
HETATM   14  C4* UNL     1      -8.985   8.445  70.132  1.00  0.00    -0.142 C  
HETATM   15  C3* UNL     1      -9.070   8.714  71.629  1.00  0.00    -0.247 C  
HETATM   16  H2* UNL     1      -7.675   7.776  73.669  1.00  0.00     0.000 HD 
HETATM   17  C2* UNL     1      -7.623   8.962  72.067  1.00  0.00     0.122 C  
HETATM   18  O3* UNL     1      -9.665   7.591  72.284  1.00  0.00    -0.152 OA 
HETATM   19  O2* UNL     1      -7.177   7.838  72.863  1.00  0.00    -0.076 OA 
HETATM   20  H3* UNL     1      -9.718   7.759  73.218  1.00  0.00     0.000 HD 
BRANCH  14  21
HETATM   21  C5* UNL     1      -9.574   9.615  69.327  1.00  0.00    -0.185 C  
HETATM   22  O5* UNL     1     -10.654   9.169  68.513  1.00  0.00    -0.254 OA 
HETATM   23  H5* UNL     1     -11.018   9.892  68.015  1.00  0.00     0.000 HD 
ENDBRANCH  14  21
ENDBRANCH   8  12
TORSDOF 2
ENDMDL
MODEL      240
REMARK 921   NORMALIZED FREE ENERGY PREDICTED BY IDOCK:   -1.54 KCAL/MOL
REMARK 922        TOTAL FREE ENERGY PREDICTED BY IDOCK:   -1.69 KCAL/MOL
REMARK 923 INTER-LIGAND FREE ENERGY PREDICTED BY IDOCK:   -3.59 KCAL/MOL
REMARK 924 INTRA-LIGAND FREE ENERGY PREDICTED BY IDOCK:    1.90 KCAL/MOL
REMARK 927      BINDING AFFINITY PREDICTED BY RF-SCORE:    0.00 PKD
ROOT
HETATM    1  N   UNL     1      -5.128  17.053  68.433  1.00  0.00    -0.124 NA 
HETATM    2  H2  UNL     1      -4.253  16.570  68.224  1.00  0.00     0.000 HD 
HETATM    3  C   UNL     1      -6.308  16.400  68.313  1.00  0.00    -0.127 C  
HETATM    4  H1  UNL     1      -5.114  18.028  68.732  1.00  0.00     0.000 HD 
HETATM    5  N   UNL     1      -6.325  15.168  67.936  1.00  0.00    -0.148 N  
HETATM    6  C   UNL     1      -7.543  14.548  67.844  1.00  0.00    -0.145 C  
HETATM    7  H   UNL     1      -5.462  14.673  67.713  1.00  0.00     0.000 HD 
HETATM    8  N   UNL     1      -8.559  15.057  68.604  1.00  0.00    -0.166 N  
HETATM    9  O   UNL     1      -7.707  13.588  67.102  1.00  0.00    -0.111 OA 
HETATM   10  N   UNL     1      -7.433  17.102  68.588  1.00  0.00    -0.234 NA 
HETATM   11  C   UNL     1      -8.502  16.407  68.743  1.00  0.00    -0.249 C  
ENDROOT
BRANCH   8  12
HETATM   12  C1* UNL     1      -9.848  14.410  68.704  1.00  0.00    -0.231 C  
HETATM   13  O4* UNL     1     -10.594  14.783  67.521  1.00  0.00    -0.254 OA 
HETATM   14  C4* UNL     1     -11.383  15.955  67.841  1.00  0.00    -0.252 C  
HETATM   15  C3* UNL     1     -11.713  15.867  69.326  1.00  0.00    -0.353 C  
HETATM   16  H2* UNL     1     -12.246  13.805  70.892  1.00  0.00     0.000 HD 
HETATM   17  C2* UNL     1     -10.820  14.743  69.861  1.00  0.00    -0.159 C  
HETATM   18  O3* UNL     1     -13.108  15.597  69.492  1.00  0.00    -0.289 OA 
HETATM   19  O2* UNL     1     -11.649  13.601  70.182  1.00  0.00    -0.236 OA 
HETATM   20  H3* UNL     1     -13.313  15.542  70.418  1.00  0.00     0.000 HD 
BRANCH  14  21
HETATM   21  C5* UNL     1     -10.601  17.241  67.526  1.00  0.00    -0.329 C  
HETATM   22  O5* UNL     1     -10.915  18.262  68.466  1.00  0.00    -0.188 OA 
HETATM   23  H5* UNL     1     -10.432  19.057  68.270  1.00  0.00     0.000 HD 
ENDBRANCH  14  21
ENDBRANCH   8  12
TORSDOF 2
ENDMDL
MODEL      241
REMARK 921   NORMALIZED FREE ENERGY PREDICTED BY IDOCK:   -1.45 KCAL/MOL
REMARK 922        TOTAL FREE ENERGY PREDICTED BY IDOCK:   -1.59 KCAL/MOL
REMARK 923 INTER-LIGAND FREE ENERGY PREDICTED BY IDOCK:   -1.51 KCAL/MOL
REMARK 924 INTRA-LIGAND FREE ENERGY PREDICTED BY IDOCK:   -0.09 KCAL/MOL
REMARK 927      BINDING AFFINITY PREDICTED BY RF-SCORE:    0.00 PKD
ROOT
HETATM    1  N   UNL     1      -7.424  10.393  68.136  1.00  0.00    -0.089 NA 
HETATM    2  H2  UNL     1      -7.227   9.952  67.236  1.00  0.00     0.000 HD 
HETATM    3  C   UNL     1      -7.040  11.672  68.361  1.00  0.00    -0.083 C  
HETATM    4  H1  UNL     1      -7.909   9.872  68.865  1.00  0.00     0.000 HD 
HETATM    5  N   UNL     1      -6.428  12.331  67.438  1.00  0.00    -0.144 N  
HETATM    6  C   UNL     1      -6.073  13.626  67.709  1.00  0.00    -0.136 C  
HETATM    7  H   UNL     1      -6.214  11.902  66.537  1.00  0.00     0.000 HD 
HETATM    8  N   UNL     1      -6.795  14.280  68.669  1.00  0.00    -0.092 N  
HETATM    9  O   UNL     1      -5.143  14.161  67.121  1.00  0.00    -0.095 OA 
HETATM   10  N   UNL     1      -7.314  12.193  69.580  1.00  0.00     0.258 NA 
HETATM   11  C   UNL     1      -7.203  13.469  69.680  1.00  0.00     0.379 C  
ENDROOT
BRANCH   8  12
HETATM   12  C1* UNL     1      -6.613  15.687  68.947  1.00  0.00    -0.116 C  
HETATM   13  O4* UNL     1      -7.730  16.096  69.771  1.00  0.00    -0.001 OA 
HETATM   14  C4* UNL     1      -8.765  16.610  68.896  1.00  0.00    -0.238 C  
HETATM   15  C3* UNL     1      -8.057  17.206  67.686  1.00  0.00    -0.179 C  
HETATM   16  H2* UNL     1      -5.767  18.505  67.447  1.00  0.00     0.000 HD 
HETATM   17  C2* UNL     1      -6.606  16.732  67.806  1.00  0.00    -0.144 C  
HETATM   18  O3* UNL     1      -8.181  18.631  67.712  1.00  0.00    -0.250 OA 
HETATM   19  O2* UNL     1      -5.771  17.863  68.148  1.00  0.00    -0.155 OA 
HETATM   20  H3* UNL     1      -7.740  19.002  66.957  1.00  0.00     0.000 HD 
BRANCH  14  21
HETATM   21  C5* UNL     1      -9.728  15.488  68.475  1.00  0.00    -0.203 C  
HETATM   22  O5* UNL     1      -9.671  15.281  67.068  1.00  0.00    -0.220 OA 
HETATM   23  H5* UNL     1     -10.267  14.588  66.808  1.00  0.00     0.000 HD 
ENDBRANCH  14  21
ENDBRANCH   8  12
TORSDOF 2
ENDMDL
MODEL      242
REMARK 921   NORMALIZED FREE ENERGY PREDICTED BY IDOCK:   -1.38 KCAL/MOL
REMARK 922        TOTAL FREE ENERGY PREDICTED BY IDOCK:   -1.52 KCAL/MOL
REMARK 923 INTER-LIGAND FREE ENERGY PREDICTED BY IDOCK:   -3.17 KCAL/MOL
REMARK 924 INTRA-LIGAND FREE ENERGY PREDICTED BY IDOCK:    1.65 KCAL/MOL
REMARK 927      BINDING AFFINITY PREDICTED BY RF-SCORE:    0.00 PKD
ROOT
HETATM    1  N   UNL     1      -9.333   8.170  65.494  1.00  0.00    -0.412 NA 
HETATM    2  H2  UNL     1      -8.445   8.317  65.013  1.00  0.00     0.000 HD 
HETATM    3  C   UNL     1      -9.353   7.958  66.831  1.00  0.00    -0.164 C  
HETATM    4  H1  UNL     1     -10.207   8.184  64.969  1.00  0.00     0.000 HD 
HETATM    5  N   UNL     1      -8.249   7.941  67.495  1.00  0.00    -0.123 N  
HETATM    6  C   UNL     1      -8.323   7.736  68.848  1.00  0.00    -0.128 C  
HETATM    7  H   UNL     1      -7.351   8.075  67.030  1.00  0.00     0.000 HD 
HETATM    8  N   UNL     1      -9.499   8.063  69.462  1.00  0.00    -0.160 N  
HETATM    9  O   UNL     1      -7.375   7.270  69.467  1.00  0.00    -0.081 OA 
HETATM   10  N   UNL     1     -10.561   7.753  67.406  1.00  0.00    -0.284 NA 
HETATM   11  C   UNL     1     -10.591   7.834  68.688  1.00  0.00    -0.120 C  
ENDROOT
BRANCH   8  12
HETATM   12  C1* UNL     1      -9.656   8.026  70.899  1.00  0.00    -0.161 C  
HETATM   13  O4* UNL     1      -8.620   7.155  71.410  1.00  0.00    -0.116 OA 
HETATM   14  C4* UNL     1      -9.172   5.819  71.518  1.00  0.00    -0.146 C  
HETATM   15  C3* UNL     1     -10.660   5.984  71.799  1.00  0.00    -0.229 C  
HETATM   16  H2* UNL     1     -11.999   7.772  73.213  1.00  0.00     0.000 HD 
HETATM   17  C2* UNL     1     -10.946   7.468  71.547  1.00  0.00    -0.229 C  
HETATM   18  O3* UNL     1     -10.942   5.583  73.142  1.00  0.00    -0.257 OA 
HETATM   19  O2* UNL     1     -11.207   8.115  72.815  1.00  0.00    -0.389 OA 
HETATM   20  H3* UNL     1     -11.870   5.686  73.317  1.00  0.00     0.000 HD 
BRANCH  14  21
HETATM   21  C5* UNL     1      -8.939   5.027  70.222  1.00  0.00    -0.116 C  
HETATM   22  O5* UNL     1      -7.629   4.470  70.203  1.00  0.00    -0.052 OA 
HETATM   23  H5* UNL     1      -7.485   3.980  69.401  1.00  0.00     0.000 HD 
ENDBRANCH  14  21
ENDBRANCH   8  12
TORSDOF 2
ENDMDL
MODEL      243
REMARK 921   NORMALIZED FREE ENERGY PREDICTED BY IDOCK:   -1.37 KCAL/MOL
REMARK 922        TOTAL FREE ENERGY PREDICTED BY IDOCK:   -1.50 KCAL/MOL
REMARK 923 INTER-LIGAND FREE ENERGY PREDICTED BY IDOCK:   -3.03 KCAL/MOL
REMARK 924 INTRA-LIGAND FREE ENERGY PREDICTED BY IDOCK:    1.52 KCAL/MOL
REMARK 927      BINDING AFFINITY PREDICTED BY RF-SCORE:    0.00 PKD
ROOT
HETATM    1  N   UNL     1      -7.819  10.689  64.495  1.00  0.00    -0.357 NA 
HETATM    2  H2  UNL     1      -6.855  10.369  64.598  1.00  0.00     0.000 HD 
HETATM    3  C   UNL     1      -8.332  11.586  65.368  1.00  0.00     0.432 C  
HETATM    4  H1  UNL     1      -8.396  10.332  63.734  1.00  0.00     0.000 HD 
HETATM    5  N   UNL     1      -7.603  12.037  66.330  1.00  0.00    -0.359 N  
HETATM    6  C   UNL     1      -8.164  12.955  67.179  1.00  0.00    -0.139 C  
HETATM    7  H   UNL     1      -6.640  11.722  66.455  1.00  0.00     0.000 HD 
HETATM    8  N   UNL     1      -9.209  13.690  66.695  1.00  0.00    -0.240 N  
HETATM    9  O   UNL     1      -7.747  13.094  68.321  1.00  0.00    -0.125 OA 
HETATM   10  N   UNL     1      -9.622  11.956  65.188  1.00  0.00    -0.171 NA 
HETATM   11  C   UNL     1     -10.001  12.998  65.836  1.00  0.00    -0.267 C  
ENDROOT
BRANCH   8  12
HETATM   12  C1* UNL     1      -9.794  14.783  67.439  1.00  0.00    -0.222 C  
HETATM   13  O4* UNL     1      -9.665  14.449  68.841  1.00  0.00    -0.210 OA 
HETATM   14  C4* UNL     1     -10.883  13.782  69.256  1.00  0.00    -0.103 C  
HETATM   15  C3* UNL     1     -12.005  14.346  68.393  1.00  0.00    -0.293 C  
HETATM   16  H2* UNL     1     -12.435  16.767  67.424  1.00  0.00     0.000 HD 
HETATM   17  C2* UNL     1     -11.294  15.137  67.292  1.00  0.00    -0.303 C  
HETATM   18  O3* UNL     1     -12.864  15.159  69.197  1.00  0.00    -0.322 OA 
HETATM   19  O2* UNL     1     -11.514  16.550  67.515  1.00  0.00     0.038 OA 
HETATM   20  H3* UNL     1     -13.564  15.510  68.658  1.00  0.00     0.000 HD 
BRANCH  14  21
HETATM   21  C5* UNL     1     -10.758  12.260  69.075  1.00  0.00    -0.107 C  
HETATM   22  O5* UNL     1     -11.456  11.836  67.909  1.00  0.00    -0.279 OA 
HETATM   23  H5* UNL     1     -11.380  10.895  67.797  1.00  0.00     0.000 HD 
ENDBRANCH  14  21
ENDBRANCH   8  12
TORSDOF 2
ENDMDL
MODEL      244
REMARK 921   NORMALIZED FREE ENERGY PREDICTED BY IDOCK:   -1.24 KCAL/MOL
REMARK 922        TOTAL FREE ENERGY PREDICTED BY IDOCK:   -1.36 KCAL/MOL
REMARK 923 INTER-LIGAND FREE ENERGY PREDICTED BY IDOCK:   -3.55 KCAL/MOL
REMARK 924 INTRA-LIGAND FREE ENERGY PREDICTED BY IDOCK:    2.19 KCAL/MOL
REMARK 927      BINDING AFFINITY PREDICTED BY RF-SCORE:    0.00 PKD
ROOT
HETATM    1  N   UNL     1      -9.939  13.021  68.279  1.00  0.00    -0.233 NA 
HETATM    2  H2  UNL     1      -8.934  13.010  68.100  1.00  0.00     0.000 HD 
HETATM    3  C   UNL     1     -10.543  11.937  68.819  1.00  0.00    -0.206 C  
HETATM    4  H1  UNL     1     -10.489  13.849  68.052  1.00  0.00     0.000 HD 
HETATM    5  N   UNL     1      -9.848  10.890  69.106  1.00  0.00    -0.353 N  
HETATM    6  C   UNL     1     -10.504   9.825  69.664  1.00  0.00    -0.242 C  
HETATM    7  H   UNL     1      -8.845  10.857  68.924  1.00  0.00     0.000 HD 
HETATM    8  N   UNL     1     -11.669  10.090  70.329  1.00  0.00    -0.262 N  
HETATM    9  O   UNL     1     -10.062   8.688  69.558  1.00  0.00    -0.192 OA 
HETATM   10  N   UNL     1     -11.881  12.009  69.016  1.00  0.00    -0.320 NA 
HETATM   11  C   UNL     1     -12.384  11.103  69.775  1.00  0.00    -0.246 C  
ENDROOT
BRANCH   8  12
HETATM   12  C1* UNL     1     -12.378   9.077  71.078  1.00  0.00    -0.193 C  
HETATM   13  O4* UNL     1     -11.943   9.195  72.453  1.00  0.00    -0.278 OA 
HETATM   14  C4* UNL     1     -10.838   8.279  72.652  1.00  0.00    -0.311 C  
HETATM   15  C3* UNL     1     -11.062   7.111  71.701  1.00  0.00    -0.235 C  
HETATM   16  H2* UNL     1     -13.267   5.902  70.885  1.00  0.00     0.000 HD 
HETATM   17  C2* UNL     1     -12.185   7.573  70.768  1.00  0.00    -0.122 C  
HETATM   18  O3* UNL     1     -11.407   5.942  72.450  1.00  0.00    -0.280 OA 
HETATM   19  O2* UNL     1     -13.386   6.825  71.075  1.00  0.00    -0.126 OA 
HETATM   20  H3* UNL     1     -11.546   5.213  71.857  1.00  0.00     0.000 HD 
BRANCH  14  21
HETATM   21  C5* UNL     1      -9.497   8.975  72.365  1.00  0.00     0.371 C  
HETATM   22  O5* UNL     1      -8.596   8.794  73.452  1.00  0.00    -0.320 OA 
HETATM   23  H5* UNL     1      -7.767   9.224  73.274  1.00  0.00     0.000 HD 
ENDBRANCH  14  21
ENDBRANCH   8  12
TORSDOF 2
ENDMDL
MODEL      245
REMARK 921   NORMALIZED FREE ENERGY PREDICTED BY IDOCK:   -1.05 KCAL/MOL
REMARK 922        TOTAL FREE ENERGY PREDICTED BY IDOCK:   -1.14 KCAL/MOL
REMARK 923 INTER-LIGAND FREE ENERGY PREDICTED BY IDOCK:   -2.29 KCAL/MOL
REMARK 924 INTRA-LIGAND FREE ENERGY PREDICTED BY IDOCK:    1.15 KCAL/MOL
REMARK 927      BINDING AFFINITY PREDICTED BY RF-SCORE:    0.00 PKD
ROOT
HETATM    1  N   UNL     1     -10.554  10.244  69.333  1.00  0.00    -0.221 NA 
HETATM    2  H2  UNL     1     -10.308  11.139  69.758  1.00  0.00     0.000 HD 
HETATM    3  C   UNL     1     -10.020   9.096  69.811  1.00  0.00    -0.193 C  
HETATM    4  H1  UNL     1     -11.203  10.214  68.547  1.00  0.00     0.000 HD 
HETATM    5  N   UNL     1      -9.200   9.134  70.804  1.00  0.00    -0.245 N  
HETATM    6  C   UNL     1      -8.697   7.945  71.261  1.00  0.00    -0.134 C  
HETATM    7  H   UNL     1      -8.934  10.020  71.236  1.00  0.00     0.000 HD 
HETATM    8  N   UNL     1      -9.435   6.821  71.011  1.00  0.00    -0.164 N  
HETATM    9  O   UNL     1      -7.628   7.899  71.856  1.00  0.00    -0.074 OA 
HETATM   10  N   UNL     1     -10.373   7.945  69.191  1.00  0.00    -0.217 NA 
HETATM   11  C   UNL     1     -10.088   6.862  69.821  1.00  0.00    -0.184 C  
ENDROOT
BRANCH   8  12
HETATM   12  C1* UNL     1      -9.086   5.530  71.559  1.00  0.00    -0.139 C  
HETATM   13  O4* UNL     1      -7.641   5.472  71.603  1.00  0.00    -0.093 OA 
HETATM   14  C4* UNL     1      -7.181   4.850  70.377  1.00  0.00    -0.054 C  
HETATM   15  C3* UNL     1      -8.274   3.882  69.942  1.00  0.00    -0.053 C  
HETATM   16  H2* UNL     1      -9.915   2.342  71.328  1.00  0.00     0.000 HD 
HETATM   17  C2* UNL     1      -9.475   4.222  70.830  1.00  0.00    -0.171 C  
HETATM   18  O3* UNL     1      -7.818   2.537  70.112  1.00  0.00    -0.043 OA 
HETATM   19  O2* UNL     1      -9.677   3.145  71.776  1.00  0.00    -0.147 OA 
HETATM   20  H3* UNL     1      -8.500   1.934  69.841  1.00  0.00     0.000 HD 
BRANCH  14  21
HETATM   21  C5* UNL     1      -6.920   5.910  69.294  1.00  0.00    -0.064 C  
HETATM   22  O5* UNL     1      -7.856   5.781  68.230  1.00  0.00    -0.098 OA 
HETATM   23  H5* UNL     1      -7.694   6.435  67.560  1.00  0.00     0.000 HD 
ENDBRANCH  14  21
ENDBRANCH   8  12
TORSDOF 2
ENDMDL
MODEL      246
REMARK 921   NORMALIZED FREE ENERGY PREDICTED BY IDOCK:   -0.94 KCAL/MOL
REMARK 922        TOTAL FREE ENERGY PREDICTED BY IDOCK:   -1.02 KCAL/MOL
REMARK 923 INTER-LIGAND FREE ENERGY PREDICTED BY IDOCK:   -2.54 KCAL/MOL
REMARK 924 INTRA-LIGAND FREE ENERGY PREDICTED BY IDOCK:    1.52 KCAL/MOL
REMARK 927      BINDING AFFINITY PREDICTED BY RF-SCORE:    0.00 PKD
ROOT
HETATM    1  N   UNL     1      -5.397  14.140  69.989  1.00  0.00    -0.095 NA 
HETATM    2  H2  UNL     1      -4.407  14.362  70.101  1.00  0.00     0.000 HD 
HETATM    3  C   UNL     1      -6.300  15.135  69.822  1.00  0.00    -0.154 C  
HETATM    4  H1  UNL     1      -5.707  13.169  70.003  1.00  0.00     0.000 HD 
HETATM    5  N   UNL     1      -5.908  16.362  69.805  1.00  0.00    -0.181 N  
HETATM    6  C   UNL     1      -6.858  17.331  69.619  1.00  0.00     0.036 C  
HETATM    7  H   UNL     1      -4.924  16.604  69.925  1.00  0.00     0.000 HD 
HETATM    8  N   UNL     1      -8.009  16.959  68.982  1.00  0.00    -0.213 N  
HETATM    9  O   UNL     1      -6.680  18.474  70.020  1.00  0.00     0.049 OA 
HETATM   10  N   UNL     1      -7.599  14.775  69.698  1.00  0.00    -0.104 NA 
HETATM   11  C   UNL     1      -8.393  15.688  69.265  1.00  0.00    -0.256 C  
ENDROOT
BRANCH   8  12
HETATM   12  C1* UNL     1      -9.025  17.915  68.601  1.00  0.00    -0.256 C  
HETATM   13  O4* UNL     1      -8.872  18.143  67.180  1.00  0.00    -0.250 OA 
HETATM   14  C4* UNL     1      -8.009  19.294  67.003  1.00  0.00    -0.257 C  
HETATM   15  C3* UNL     1      -8.232  20.197  68.210  1.00  0.00    -0.065 C  
HETATM   16  H2* UNL     1     -10.396  20.739  69.628  1.00  0.00     0.000 HD 
HETATM   17  C2* UNL     1      -9.038  19.345  69.195  1.00  0.00    -0.153 C  
HETATM   18  O3* UNL     1      -8.924  21.380  67.802  1.00  0.00     0.029 OA 
HETATM   19  O2* UNL     1     -10.388  19.861  69.264  1.00  0.00    -0.311 OA 
HETATM   20  H3* UNL     1      -9.063  21.943  68.555  1.00  0.00     0.000 HD 
BRANCH  14  21
HETATM   21  C5* UNL     1      -6.537  18.861  66.902  1.00  0.00    -0.189 C  
HETATM   22  O5* UNL     1      -5.962  19.320  65.684  1.00  0.00    -0.171 OA 
HETATM   23  H5* UNL     1      -5.053  19.052  65.622  1.00  0.00     0.000 HD 
ENDBRANCH  14  21
ENDBRANCH   8  12
TORSDOF 2
ENDMDL
MODEL      247
REMARK 921   NORMALIZED FREE ENERGY PREDICTED BY IDOCK:   -0.37 KCAL/MOL
REMARK 922        TOTAL FREE ENERGY PREDICTED BY IDOCK:   -0.38 KCAL/MOL
REMARK 923 INTER-LIGAND FREE ENERGY PREDICTED BY IDOCK:   -0.30 KCAL/MOL
REMARK 924 INTRA-LIGAND FREE ENERGY PREDICTED BY IDOCK:   -0.08 KCAL/MOL
REMARK 927      BINDING AFFINITY PREDICTED BY RF-SCORE:    0.00 PKD
ROOT
HETATM    1  N   UNL     1     -12.100   4.378  65.628  1.00  0.00     1.725 NA 
HETATM    2  H2  UNL     1     -12.858   4.322  64.948  1.00  0.00     0.000 HD 
HETATM    3  C   UNL     1     -10.813   4.404  65.209  1.00  0.00    -0.051 C  
HETATM    4  H1  UNL     1     -12.311   4.414  66.625  1.00  0.00     0.000 HD 
HETATM    5  N   UNL     1     -10.547   4.358  63.949  1.00  0.00    -0.437 N  
HETATM    6  C   UNL     1      -9.230   4.402  63.575  1.00  0.00    -0.121 C  
HETATM    7  H   UNL     1     -11.291   4.292  63.255  1.00  0.00     0.000 HD 
HETATM    8  N   UNL     1      -8.354   4.980  64.450  1.00  0.00    -0.131 N  
HETATM    9  O   UNL     1      -8.863   3.931  62.506  1.00  0.00    -0.089 OA 
HETATM   10  N   UNL     1      -9.854   4.460  66.163  1.00  0.00    -0.212 NA 
HETATM   11  C   UNL     1      -8.675   4.766  65.753  1.00  0.00    -0.127 C  
ENDROOT
BRANCH   8  12
HETATM   12  C1* UNL     1      -6.967   5.214  64.115  1.00  0.00    -0.049 C  
HETATM   13  O4* UNL     1      -6.483   6.230  65.024  1.00  0.00    -0.037 OA 
HETATM   14  C4* UNL     1      -6.646   7.519  64.381  1.00  0.00    -0.048 C  
HETATM   15  C3* UNL     1      -6.514   7.279  62.883  1.00  0.00    -0.053 C  
HETATM   16  H2* UNL     1      -5.001   5.616  61.492  1.00  0.00     0.000 HD 
HETATM   17  C2* UNL     1      -6.564   5.756  62.722  1.00  0.00    -0.032 C  
HETATM   18  O3* UNL     1      -5.289   7.848  62.412  1.00  0.00    -0.057 OA 
HETATM   19  O2* UNL     1      -5.249   5.283  62.346  1.00  0.00    -0.012 OA 
HETATM   20  H3* UNL     1      -5.207   7.698  61.478  1.00  0.00     0.000 HD 
BRANCH  14  21
HETATM   21  C5* UNL     1      -8.015   8.129  64.724  1.00  0.00    -0.147 C  
HETATM   22  O5* UNL     1      -8.667   8.590  63.545  1.00  0.00    -0.422 OA 
HETATM   23  H5* UNL     1      -9.513   8.967  63.757  1.00  0.00     0.000 HD 
ENDBRANCH  14  21
ENDBRANCH   8  12
TORSDOF 2
ENDMDL
MODEL      248
REMARK 921   NORMALIZED FREE ENERGY PREDICTED BY IDOCK:   -0.07 KCAL/MOL
REMARK 922        TOTAL FREE ENERGY PREDICTED BY IDOCK:   -0.06 KCAL/MOL
REMARK 923 INTER-LIGAND FREE ENERGY PREDICTED BY IDOCK:   -1.14 KCAL/MOL
REMARK 924 INTRA-LIGAND FREE ENERGY PREDICTED BY IDOCK:    1.08 KCAL/MOL
REMARK 927      BINDING AFFINITY PREDICTED BY RF-SCORE:    0.00 PKD
ROOT
HETATM    1  N   UNL     1     -10.387   3.801  64.613  1.00  0.00    -0.384 NA 
HETATM    2  H2  UNL     1     -11.192   4.095  64.059  1.00  0.00     0.000 HD 
HETATM    3  C   UNL     1      -9.331   4.633  64.770  1.00  0.00    -0.105 C  
HETATM    4  H1  UNL     1     -10.377   2.879  65.049  1.00  0.00     0.000 HD 
HETATM    5  N   UNL     1      -9.344   5.798  64.218  1.00  0.00     0.138 N  
HETATM    6  C   UNL     1      -8.258   6.609  64.419  1.00  0.00     0.007 C  
HETATM    7  H   UNL     1     -10.136   6.105  63.653  1.00  0.00     0.000 HD 
HETATM    8  N   UNL     1      -7.507   6.377  65.537  1.00  0.00    -0.080 N  
HETATM    9  O   UNL     1      -7.976   7.492  63.620  1.00  0.00    -0.124 OA 
HETATM   10  N   UNL     1      -8.287   4.176  65.501  1.00  0.00    -0.109 NA 
HETATM   11  C   UNL     1      -7.434   5.062  65.872  1.00  0.00    -0.082 C  
ENDROOT
BRANCH   8  12
HETATM   12  C1* UNL     1      -6.423   7.248  65.934  1.00  0.00    -0.045 C  
HETATM   13  O4* UNL     1      -5.447   6.418  66.606  1.00  0.00    -0.012 OA 
HETATM   14  C4* UNL     1      -5.729   6.457  68.027  1.00  0.00    -0.012 C  
HETATM   15  C3* UNL     1      -6.347   7.820  68.311  1.00  0.00    -0.045 C  
HETATM   16  H2* UNL     1      -5.886  10.212  67.287  1.00  0.00     0.000 HD 
HETATM   17  C2* UNL     1      -6.656   8.408  66.932  1.00  0.00    -0.058 C  
HETATM   18  O3* UNL     1      -5.427   8.616  69.063  1.00  0.00    -0.035 OA 
HETATM   19  O2* UNL     1      -5.743   9.500  66.674  1.00  0.00    -0.052 OA 
HETATM   20  H3* UNL     1      -5.813   9.466  69.240  1.00  0.00     0.000 HD 
BRANCH  14  21
HETATM   21  C5* UNL     1      -6.689   5.322  68.422  1.00  0.00    -0.054 C  
HETATM   22  O5* UNL     1      -7.799   5.836  69.151  1.00  0.00    -0.088 OA 
HETATM   23  H5* UNL     1      -8.391   5.134  69.396  1.00  0.00     0.000 HD 
ENDBRANCH  14  21
ENDBRANCH   8  12
TORSDOF 2
ENDMDL
MODEL      249
REMARK 921   NORMALIZED FREE ENERGY PREDICTED BY IDOCK:   10.81 KCAL/MOL
REMARK 922        TOTAL FREE ENERGY PREDICTED BY IDOCK:   12.09 KCAL/MOL
REMARK 923 INTER-LIGAND FREE ENERGY PREDICTED BY IDOCK:   10.38 KCAL/MOL
REMARK 924 INTRA-LIGAND FREE ENERGY PREDICTED BY IDOCK:    1.72 KCAL/MOL
REMARK 927      BINDING AFFINITY PREDICTED BY RF-SCORE:    0.00 PKD
ROOT
HETATM    1  N   UNL     1     -12.882  10.786  63.774  1.00  0.00     2.168 NA 
HETATM    2  H2  UNL     1     -12.701   9.945  63.225  1.00  0.00     0.000 HD 
HETATM    3  C   UNL     1     -12.270  10.960  64.968  1.00  0.00     2.689 C  
HETATM    4  H1  UNL     1     -13.525  11.496  63.424  1.00  0.00     0.000 HD 
HETATM    5  N   UNL     1     -11.457  10.063  65.411  1.00  0.00     2.075 N  
HETATM    6  C   UNL     1     -10.851  10.293  66.618  1.00  0.00    -0.045 C  
HETATM    7  H   UNL     1     -11.272   9.212  64.880  1.00  0.00     0.000 HD 
HETATM    8  N   UNL     1     -10.734  11.595  67.017  1.00  0.00    -0.240 N  
HETATM    9  O   UNL     1     -10.446   9.365  67.306  1.00  0.00    -0.251 OA 
HETATM   10  N   UNL     1     -12.567  12.088  65.656  1.00  0.00     0.094 NA 
HETATM   11  C   UNL     1     -11.780  12.371  66.632  1.00  0.00    -0.372 C  
ENDROOT
BRANCH   8  12
HETATM   12  C1* UNL     1      -9.993  11.977  68.198  1.00  0.00    -0.203 C  
HETATM   13  O4* UNL     1      -9.939  10.810  69.052  1.00  0.00    -0.196 OA 
HETATM   14  C4* UNL     1     -11.054  10.881  69.975  1.00  0.00    -0.211 C  
HETATM   15  C3* UNL     1     -11.336  12.360  70.207  1.00  0.00     0.413 C  
HETATM   16  H2* UNL     1      -9.731  14.455  70.365  1.00  0.00     0.000 HD 
HETATM   17  C2* UNL     1     -10.513  13.089  69.141  1.00  0.00     0.111 C  
HETATM   18  O3* UNL     1     -10.960  12.716  71.540  1.00  0.00     3.414 OA 
HETATM   19  O2* UNL     1      -9.412  13.773  69.786  1.00  0.00     0.988 OA 
HETATM   20  H3* UNL     1     -11.136  13.639  71.684  1.00  0.00     0.000 HD 
BRANCH  14  21
HETATM   21  C5* UNL     1     -12.287  10.169  69.396  1.00  0.00     0.442 C  
HETATM   22  O5* UNL     1     -13.401  10.302  70.272  1.00  0.00    -0.502 OA 
HETATM   23  H5* UNL     1     -14.163   9.861  69.913  1.00  0.00     0.000 HD 
ENDBRANCH  14  21
ENDBRANCH   8  12
TORSDOF 2
ENDMDL
MODEL      250
REMARK 921   NORMALIZED FREE ENERGY PREDICTED BY IDOCK:   13.20 KCAL/MOL
REMARK 922        TOTAL FREE ENERGY PREDICTED BY IDOCK:   14.77 KCAL/MOL
REMARK 923 INTER-LIGAND FREE ENERGY PREDICTED BY IDOCK:    9.64 KCAL/MOL
REMARK 924 INTRA-LIGAND FREE ENERGY PREDICTED BY IDOCK:    5.13 KCAL/MOL
REMARK 927      BINDING AFFINITY PREDICTED BY RF-SCORE:    0.00 PKD
ROOT
HETATM    1  N   UNL     1     -10.628  20.803  71.124  1.00  0.00     1.801 NA 
HETATM    2  H2  UNL     1     -10.182  21.142  71.978  1.00  0.00     0.000 HD 
HETATM    3  C   UNL     1     -10.017  19.859  70.370  1.00  0.00     0.983 C  
HETATM    4  H1  UNL     1     -11.533  21.175  70.840  1.00  0.00     0.000 HD 
HETATM    5  N   UNL     1      -8.873  19.390  70.731  1.00  0.00     2.247 N  
HETATM    6  C   UNL     1      -8.303  18.426  69.941  1.00  0.00     1.472 C  
HETATM    7  H   UNL     1      -8.408  19.724  71.575  1.00  0.00     0.000 HD 
HETATM    8  N   UNL     1      -9.145  17.684  69.161  1.00  0.00    -0.007 N  
HETATM    9  O   UNL     1      -7.091  18.253  69.934  1.00  0.00     0.226 OA 
HETATM   10  N   UNL     1     -10.653  19.465  69.241  1.00  0.00     0.365 NA 
HETATM   11  C   UNL     1     -10.209  18.389  68.697  1.00  0.00    -0.339 C  
ENDROOT
BRANCH   8  12
HETATM   12  C1* UNL     1      -8.686  16.548  68.393  1.00  0.00    -0.218 C  
HETATM   13  O4* UNL     1      -8.389  15.496  69.341  1.00  0.00    -0.242 OA 
HETATM   14  C4* UNL     1      -6.982  15.581  69.676  1.00  0.00    -0.173 C  
HETATM   15  C3* UNL     1      -6.274  16.142  68.450  1.00  0.00    -0.113 C  
HETATM   16  H2* UNL     1      -6.698  15.804  65.863  1.00  0.00     0.000 HD 
HETATM   17  C2* UNL     1      -7.400  16.632  67.535  1.00  0.00    -0.149 C  
HETATM   18  O3* UNL     1      -5.474  15.120  67.849  1.00  0.00    -0.127 OA 
HETATM   19  O2* UNL     1      -7.487  15.752  66.389  1.00  0.00    -0.033 OA 
HETATM   20  H3* UNL     1      -5.032  15.470  67.084  1.00  0.00     0.000 HD 
BRANCH  14  21
HETATM   21  C5* UNL     1      -6.768  16.487  70.900  1.00  0.00     2.111 C  
HETATM   22  O5* UNL     1      -6.514  15.707  72.063  1.00  0.00     1.833 OA 
HETATM   23  H5* UNL     1      -6.382  16.268  72.819  1.00  0.00     0.000 HD 
ENDBRANCH  14  21
ENDBRANCH   8  12
TORSDOF 2
ENDMDL
MODEL      251
REMARK 921   NORMALIZED FREE ENERGY PREDICTED BY IDOCK:   13.31 KCAL/MOL
REMARK 922        TOTAL FREE ENERGY PREDICTED BY IDOCK:   14.89 KCAL/MOL
REMARK 923 INTER-LIGAND FREE ENERGY PREDICTED BY IDOCK:    9.04 KCAL/MOL
REMARK 924 INTRA-LIGAND FREE ENERGY PREDICTED BY IDOCK:    5.84 KCAL/MOL
REMARK 927      BINDING AFFINITY PREDICTED BY RF-SCORE:    0.00 PKD
ROOT
HETATM    1  N   UNL     1     -10.664  20.803  71.073  1.00  0.00     1.741 NA 
HETATM    2  H2  UNL     1     -10.025  20.870  71.866  1.00  0.00     0.000 HD 
HETATM    3  C   UNL     1     -10.298  20.119  69.963  1.00  0.00     0.643 C  
HETATM    4  H1  UNL     1     -11.579  21.250  71.116  1.00  0.00     0.000 HD 
HETATM    5  N   UNL     1      -9.142  19.553  69.910  1.00  0.00     0.530 N  
HETATM    6  C   UNL     1      -8.824  18.861  68.771  1.00  0.00    -0.296 C  
HETATM    7  H   UNL     1      -8.486  19.618  70.688  1.00  0.00     0.000 HD 
HETATM    8  N   UNL     1      -9.864  18.391  68.019  1.00  0.00    -0.321 N  
HETATM    9  O   UNL     1      -7.657  18.686  68.445  1.00  0.00    -0.277 OA 
HETATM   10  N   UNL     1     -11.184  20.083  68.940  1.00  0.00     1.465 NA 
HETATM   11  C   UNL     1     -10.947  19.212  68.026  1.00  0.00     0.046 C  
ENDROOT
BRANCH   8  12
HETATM   12  C1* UNL     1      -9.663  17.529  66.875  1.00  0.00    -0.291 C  
HETATM   13  O4* UNL     1      -9.124  16.285  67.381  1.00  0.00    -0.194 OA 
HETATM   14  C4* UNL     1      -7.679  16.366  67.319  1.00  0.00    -0.163 C  
HETATM   15  C3* UNL     1      -7.343  17.274  66.143  1.00  0.00    -0.281 C  
HETATM   16  H2* UNL     1      -8.496  17.605  63.787  1.00  0.00     0.000 HD 
HETATM   17  C2* UNL     1      -8.676  17.917  65.748  1.00  0.00     0.377 C  
HETATM   18  O3* UNL     1      -6.765  16.499  65.089  1.00  0.00     2.448 OA 
HETATM   19  O2* UNL     1      -9.102  17.367  64.479  1.00  0.00     3.969 OA 
HETATM   20  H3* UNL     1      -6.555  17.066  64.355  1.00  0.00     0.000 HD 
BRANCH  14  21
HETATM   21  C5* UNL     1      -7.108  16.929  68.631  1.00  0.00    -0.203 C  
HETATM   22  O5* UNL     1      -6.542  15.888  69.419  1.00  0.00    -0.151 OA 
HETATM   23  H5* UNL     1      -6.190  16.236  70.230  1.00  0.00     0.000 HD 
ENDBRANCH  14  21
ENDBRANCH   8  12
TORSDOF 2
ENDMDL
MODEL      252
REMARK 921   NORMALIZED FREE ENERGY PREDICTED BY IDOCK:   25.39 KCAL/MOL
REMARK 922        TOTAL FREE ENERGY PREDICTED BY IDOCK:   28.38 KCAL/MOL
REMARK 923 INTER-LIGAND FREE ENERGY PREDICTED BY IDOCK:   26.11 KCAL/MOL
REMARK 924 INTRA-LIGAND FREE ENERGY PREDICTED BY IDOCK:    2.27 KCAL/MOL
REMARK 927      BINDING AFFINITY PREDICTED BY RF-SCORE:    0.00 PKD
ROOT
HETATM    1  N   UNL     1      -7.421  12.039  69.971  1.00  0.00     0.358 NA 
HETATM    2  H2  UNL     1      -7.072  11.708  69.070  1.00  0.00     0.000 HD 
HETATM    3  C   UNL     1      -8.405  12.968  70.016  1.00  0.00     3.062 C  
HETATM    4  H1  UNL     1      -7.030  11.670  70.837  1.00  0.00     0.000 HD 
HETATM    5  N   UNL     1      -8.899  13.434  68.921  1.00  0.00    -0.370 N  
HETATM    6  C   UNL     1      -9.903  14.361  69.020  1.00  0.00    -0.101 C  
HETATM    7  H   UNL     1      -8.556  13.122  68.012  1.00  0.00     0.000 HD 
HETATM    8  N   UNL     1     -10.640  14.359  70.171  1.00  0.00     0.215 N  
HETATM    9  O   UNL     1     -10.114  15.160  68.116  1.00  0.00    -0.219 OA 
HETATM   10  N   UNL     1      -8.811  13.378  71.241  1.00  0.00     9.085 NA 
HETATM   11  C   UNL     1      -9.916  14.033  71.273  1.00  0.00     4.950 C  
ENDROOT
BRANCH   8  12
HETATM   12  C1* UNL     1     -11.812  15.190  70.339  1.00  0.00    -0.307 C  
HETATM   13  O4* UNL     1     -11.696  16.271  69.384  1.00  0.00    -0.255 OA 
HETATM   14  C4* UNL     1     -11.056  17.388  70.049  1.00  0.00     1.084 C  
HETATM   15  C3* UNL     1     -11.444  17.301  71.520  1.00  0.00     1.497 C  
HETATM   16  H2* UNL     1     -13.676  16.534  72.711  1.00  0.00     0.000 HD 
HETATM   17  C2* UNL     1     -12.086  15.919  71.676  1.00  0.00    -0.484 C  
HETATM   18  O3* UNL     1     -12.338  18.370  71.844  1.00  0.00     7.052 OA 
HETATM   19  O2* UNL     1     -13.508  16.086  71.890  1.00  0.00    -0.303 OA 
HETATM   20  H3* UNL     1     -12.580  18.316  72.761  1.00  0.00     0.000 HD 
BRANCH  14  21
HETATM   21  C5* UNL     1      -9.530  17.323  69.877  1.00  0.00     1.106 C  
HETATM   22  O5* UNL     1      -9.181  17.336  68.497  1.00  0.00    -0.260 OA 
HETATM   23  H5* UNL     1      -8.237  17.296  68.390  1.00  0.00     0.000 HD 
ENDBRANCH  14  21
ENDBRANCH   8  12
TORSDOF 2
ENDMDL
MODEL      253
REMARK 921   NORMALIZED FREE ENERGY PREDICTED BY IDOCK:   26.37 KCAL/MOL
REMARK 922        TOTAL FREE ENERGY PREDICTED BY IDOCK:   29.48 KCAL/MOL
REMARK 923 INTER-LIGAND FREE ENERGY PREDICTED BY IDOCK:   25.66 KCAL/MOL
REMARK 924 INTRA-LIGAND FREE ENERGY PREDICTED BY IDOCK:    3.82 KCAL/MOL
REMARK 927      BINDING AFFINITY PREDICTED BY RF-SCORE:    0.00 PKD
ROOT
HETATM    1  N   UNL     1     -14.123  10.970  62.460  1.00  0.00     3.821 NA 
HETATM    2  H2  UNL     1     -15.011  10.470  62.512  1.00  0.00     0.000 HD 
HETATM    3  C   UNL     1     -13.470  11.312  63.596  1.00  0.00     1.883 C  
HETATM    4  H1  UNL     1     -13.726  11.214  61.553  1.00  0.00     0.000 HD 
HETATM    5  N   UNL     1     -13.971  11.003  64.742  1.00  0.00     5.975 N  
HETATM    6  C   UNL     1     -13.265  11.358  65.861  1.00  0.00     6.820 C  
HETATM    7  H   UNL     1     -14.862  10.512  64.813  1.00  0.00     0.000 HD 
HETATM    8  N   UNL     1     -11.918  11.535  65.717  1.00  0.00     0.424 N  
HETATM    9  O   UNL     1     -13.828  11.517  66.937  1.00  0.00     9.870 OA 
HETATM   10  N   UNL     1     -12.307  11.991  63.459  1.00  0.00    -0.567 NA 
HETATM   11  C   UNL     1     -11.571  12.056  64.511  1.00  0.00    -0.317 C  
ENDROOT
BRANCH   8  12
HETATM   12  C1* UNL     1     -11.044  11.771  66.844  1.00  0.00    -0.307 C  
HETATM   13  O4* UNL     1     -10.914  13.206  66.977  1.00  0.00    -0.262 OA 
HETATM   14  C4* UNL     1      -9.739  13.619  66.238  1.00  0.00    -0.283 C  
HETATM   15  C3* UNL     1      -8.761  12.452  66.284  1.00  0.00     0.106 C  
HETATM   16  H2* UNL     1      -8.223  10.679  68.169  1.00  0.00     0.000 HD 
HETATM   17  C2* UNL     1      -9.577  11.278  66.834  1.00  0.00    -0.191 C  
HETATM   18  O3* UNL     1      -7.647  12.792  67.113  1.00  0.00    -0.296 OA 
HETATM   19  O2* UNL     1      -9.124  10.982  68.176  1.00  0.00    -0.143 OA 
HETATM   20  H3* UNL     1      -7.038  12.064  67.142  1.00  0.00     0.000 HD 
BRANCH  14  21
HETATM   21  C5* UNL     1     -10.105  13.975  64.787  1.00  0.00    -0.190 C  
HETATM   22  O5* UNL     1      -9.704  12.937  63.900  1.00  0.00    -0.682 OA 
HETATM   23  H5* UNL     1      -9.930  13.157  63.004  1.00  0.00     0.000 HD 
ENDBRANCH  14  21
ENDBRANCH   8  12
TORSDOF 2
ENDMDL
