MODEL        1
REMARK 921   NORMALIZED FREE ENERGY PREDICTED BY IDOCK:   -6.93 KCAL/MOL
REMARK 922        TOTAL FREE ENERGY PREDICTED BY IDOCK:   -8.06 KCAL/MOL
REMARK 923 INTER-LIGAND FREE ENERGY PREDICTED BY IDOCK:   -7.74 KCAL/MOL
REMARK 924 INTRA-LIGAND FREE ENERGY PREDICTED BY IDOCK:   -0.32 KCAL/MOL
REMARK 927      BINDING AFFINITY PREDICTED BY RF-SCORE:    0.00 PKD
ROOT
HETATM    1  C   UNL     1      -8.717  12.877  68.041  1.00  0.00    -0.191 C  
HETATM    2  N   UNL     1      -9.710  12.831  66.996  1.00  0.00    -0.219 NA 
HETATM    3  C   UNL     1      -9.582  11.953  65.945  1.00  0.00    -0.231 A  
HETATM    4  N   UNL     1     -10.615  11.992  65.146  1.00  0.00    -0.277 NA 
HETATM    5  C   UNL     1     -11.465  12.926  65.709  1.00  0.00    -0.337 A  
HETATM    6  C   UNL     1     -10.914  13.493  66.865  1.00  0.00    -0.288 A  
HETATM    7  N   UNL     1     -12.768  13.117  65.100  1.00  0.00    -0.463 N  
HETATM    8  O   UNL     1     -13.076  12.378  64.158  1.00  0.00    -0.762 OA 
HETATM    9  O   UNL     1     -13.496  14.009  65.567  1.00  0.00    -0.677 OA 
ENDROOT
BRANCH   6  10
HETATM   10  S   UNL     1     -11.651  14.546  68.055  1.00  0.00    -0.344 SA 
BRANCH  10  11
HETATM   11  C   UNL     1     -12.017  13.618  69.520  1.00  0.00    -0.341 A  
HETATM   12  N   UNL     1     -11.804  12.283  69.560  1.00  0.00    -0.319 NA 
HETATM   13  C   UNL     1     -12.299  11.578  70.601  1.00  0.00    -0.364 A  
HETATM   14  N   UNL     1     -12.963  12.035  71.662  1.00  0.00    -0.391 NA 
HETATM   15  C   UNL     1     -13.181  13.358  71.607  1.00  0.00    -0.364 A  
HETATM   16  C   UNL     1     -12.760  14.161  70.558  1.00  0.00    -0.309 A  
HETATM   17  N   UNL     1     -13.303  15.389  70.848  1.00  0.00    -0.664 NA 
HETATM   18  H   UNL     1     -13.250  16.223  70.263  1.00  0.00     0.000 HD 
HETATM   19  C   UNL     1     -13.928  15.293  72.066  1.00  0.00    -0.543 A  
HETATM   20  N   UNL     1     -13.879  14.070  72.541  1.00  0.00    -0.652 NA 
ENDBRANCH  10  11
ENDBRANCH   6  10
TORSDOF 2
ENDMDL
MODEL        2
REMARK 921   NORMALIZED FREE ENERGY PREDICTED BY IDOCK:   -6.85 KCAL/MOL
REMARK 922        TOTAL FREE ENERGY PREDICTED BY IDOCK:   -7.97 KCAL/MOL
REMARK 923 INTER-LIGAND FREE ENERGY PREDICTED BY IDOCK:   -7.46 KCAL/MOL
REMARK 924 INTRA-LIGAND FREE ENERGY PREDICTED BY IDOCK:   -0.51 KCAL/MOL
REMARK 927      BINDING AFFINITY PREDICTED BY RF-SCORE:    0.00 PKD
ROOT
HETATM    1  C   UNL     1      -9.791  17.124  66.451  1.00  0.00    -0.300 C  
HETATM    2  N   UNL     1     -10.661  16.048  66.042  1.00  0.00    -0.328 NA 
HETATM    3  C   UNL     1     -11.229  16.044  64.788  1.00  0.00    -0.339 A  
HETATM    4  N   UNL     1     -11.913  14.953  64.565  1.00  0.00    -0.447 NA 
HETATM    5  C   UNL     1     -11.771  14.203  65.718  1.00  0.00    -0.359 A  
HETATM    6  C   UNL     1     -11.008  14.874  66.679  1.00  0.00    -0.325 A  
HETATM    7  N   UNL     1     -12.337  12.866  65.735  1.00  0.00    -0.436 N  
HETATM    8  O   UNL     1     -12.846  12.445  64.689  1.00  0.00    -0.714 OA 
HETATM    9  O   UNL     1     -12.269  12.227  66.797  1.00  0.00    -0.558 OA 
ENDROOT
BRANCH   6  10
HETATM   10  S   UNL     1     -10.361  14.293  68.200  1.00  0.00    -0.238 SA 
BRANCH  10  11
HETATM   11  C   UNL     1     -11.618  14.378  69.448  1.00  0.00    -0.304 A  
HETATM   12  N   UNL     1     -12.028  15.572  69.931  1.00  0.00    -0.345 NA 
HETATM   13  C   UNL     1     -12.816  15.592  71.029  1.00  0.00    -0.482 A  
HETATM   14  N   UNL     1     -13.301  14.555  71.711  1.00  0.00    -0.340 NA 
HETATM   15  C   UNL     1     -12.877  13.375  71.233  1.00  0.00    -0.323 A  
HETATM   16  C   UNL     1     -12.027  13.250  70.145  1.00  0.00    -0.318 A  
HETATM   17  N   UNL     1     -11.757  11.904  70.093  1.00  0.00    -0.497 NA 
HETATM   18  H   UNL     1     -11.115  11.443  69.448  1.00  0.00     0.000 HD 
HETATM   19  C   UNL     1     -12.507  11.290  71.065  1.00  0.00    -0.400 A  
HETATM   20  N   UNL     1     -13.186  12.160  71.777  1.00  0.00    -0.410 NA 
ENDBRANCH  10  11
ENDBRANCH   6  10
TORSDOF 2
ENDMDL
MODEL        3
REMARK 921   NORMALIZED FREE ENERGY PREDICTED BY IDOCK:   -6.80 KCAL/MOL
REMARK 922        TOTAL FREE ENERGY PREDICTED BY IDOCK:   -7.92 KCAL/MOL
REMARK 923 INTER-LIGAND FREE ENERGY PREDICTED BY IDOCK:   -7.48 KCAL/MOL
REMARK 924 INTRA-LIGAND FREE ENERGY PREDICTED BY IDOCK:   -0.43 KCAL/MOL
REMARK 927      BINDING AFFINITY PREDICTED BY RF-SCORE:    0.00 PKD
ROOT
HETATM    1  C   UNL     1     -11.329  10.493  69.659  1.00  0.00    -0.281 C  
HETATM    2  N   UNL     1     -11.866  11.782  70.022  1.00  0.00    -0.341 NA 
HETATM    3  C   UNL     1     -12.658  11.922  71.138  1.00  0.00    -0.288 A  
HETATM    4  N   UNL     1     -12.979  13.171  71.356  1.00  0.00    -0.339 NA 
HETATM    5  C   UNL     1     -12.355  13.879  70.346  1.00  0.00    -0.363 A  
HETATM    6  C   UNL     1     -11.665  13.032  69.473  1.00  0.00    -0.317 A  
HETATM    7  N   UNL     1     -12.435  15.328  70.381  1.00  0.00    -0.371 N  
HETATM    8  O   UNL     1     -12.992  15.850  71.355  1.00  0.00    -0.474 OA 
HETATM    9  O   UNL     1     -11.935  15.954  69.432  1.00  0.00    -0.354 OA 
ENDROOT
BRANCH   6  10
HETATM   10  S   UNL     1     -10.552  13.426  68.178  1.00  0.00    -0.251 SA 
BRANCH  10  11
HETATM   11  C   UNL     1     -11.454  13.633  66.666  1.00  0.00    -0.343 A  
HETATM   12  N   UNL     1     -12.100  12.589  66.101  1.00  0.00    -0.615 NA 
HETATM   13  C   UNL     1     -12.583  12.725  64.847  1.00  0.00    -0.470 A  
HETATM   14  N   UNL     1     -12.547  13.804  64.066  1.00  0.00    -0.692 NA 
HETATM   15  C   UNL     1     -11.892  14.831  64.629  1.00  0.00    -0.436 A  
HETATM   16  C   UNL     1     -11.316  14.774  65.888  1.00  0.00    -0.331 A  
HETATM   17  N   UNL     1     -10.654  15.973  66.000  1.00  0.00    -0.328 NA 
HETATM   18  H   UNL     1     -10.063  16.263  66.780  1.00  0.00     0.000 HD 
HETATM   19  C   UNL     1     -10.930  16.709  64.876  1.00  0.00    -0.150 A  
HETATM   20  N   UNL     1     -11.669  16.036  64.024  1.00  0.00    -0.739 NA 
ENDBRANCH  10  11
ENDBRANCH   6  10
TORSDOF 2
ENDMDL
MODEL        4
REMARK 921   NORMALIZED FREE ENERGY PREDICTED BY IDOCK:   -6.72 KCAL/MOL
REMARK 922        TOTAL FREE ENERGY PREDICTED BY IDOCK:   -7.82 KCAL/MOL
REMARK 923 INTER-LIGAND FREE ENERGY PREDICTED BY IDOCK:   -7.25 KCAL/MOL
REMARK 924 INTRA-LIGAND FREE ENERGY PREDICTED BY IDOCK:   -0.57 KCAL/MOL
REMARK 927      BINDING AFFINITY PREDICTED BY RF-SCORE:    0.00 PKD
ROOT
HETATM    1  C   UNL     1      -7.425  17.054  69.016  1.00  0.00    -0.211 C  
HETATM    2  N   UNL     1      -8.443  17.631  68.173  1.00  0.00    -0.252 NA 
HETATM    3  C   UNL     1      -8.817  18.947  68.325  1.00  0.00    -0.332 A  
HETATM    4  N   UNL     1      -9.686  19.316  67.421  1.00  0.00    -0.313 NA 
HETATM    5  C   UNL     1      -9.876  18.197  66.633  1.00  0.00    -0.350 A  
HETATM    6  C   UNL     1      -9.126  17.108  67.093  1.00  0.00    -0.228 A  
HETATM    7  N   UNL     1     -10.719  18.326  65.458  1.00  0.00    -0.166 N  
HETATM    8  O   UNL     1     -11.156  19.450  65.186  1.00  0.00    -0.365 OA 
HETATM    9  O   UNL     1     -10.944  17.299  64.797  1.00  0.00    -0.950 OA 
ENDROOT
BRANCH   6  10
HETATM   10  S   UNL     1      -8.844  15.549  66.348  1.00  0.00    -0.301 SA 
BRANCH  10  11
HETATM   11  C   UNL     1     -10.211  14.474  66.690  1.00  0.00    -0.275 A  
HETATM   12  N   UNL     1     -10.295  13.820  67.870  1.00  0.00    -0.240 NA 
HETATM   13  C   UNL     1     -11.220  12.845  68.009  1.00  0.00    -0.268 A  
HETATM   14  N   UNL     1     -12.131  12.445  67.123  1.00  0.00    -0.512 NA 
HETATM   15  C   UNL     1     -12.031  13.089  65.950  1.00  0.00    -0.435 A  
HETATM   16  C   UNL     1     -11.083  14.066  65.690  1.00  0.00    -0.302 A  
HETATM   17  N   UNL     1     -11.259  14.348  64.357  1.00  0.00    -0.606 NA 
HETATM   18  H   UNL     1     -10.694  14.986  63.797  1.00  0.00     0.000 HD 
HETATM   19  C   UNL     1     -12.332  13.615  63.914  1.00  0.00    -0.316 A  
HETATM   20  N   UNL     1     -12.810  12.836  64.856  1.00  0.00    -0.825 NA 
ENDBRANCH  10  11
ENDBRANCH   6  10
TORSDOF 2
ENDMDL
MODEL        5
REMARK 921   NORMALIZED FREE ENERGY PREDICTED BY IDOCK:   -6.68 KCAL/MOL
REMARK 922        TOTAL FREE ENERGY PREDICTED BY IDOCK:   -7.78 KCAL/MOL
REMARK 923 INTER-LIGAND FREE ENERGY PREDICTED BY IDOCK:   -7.55 KCAL/MOL
REMARK 924 INTRA-LIGAND FREE ENERGY PREDICTED BY IDOCK:   -0.23 KCAL/MOL
REMARK 927      BINDING AFFINITY PREDICTED BY RF-SCORE:    0.00 PKD
ROOT
HETATM    1  C   UNL     1      -8.431  13.791  67.912  1.00  0.00    -0.176 C  
HETATM    2  N   UNL     1      -9.243  14.546  66.988  1.00  0.00    -0.229 NA 
HETATM    3  C   UNL     1      -8.781  15.725  66.450  1.00  0.00    -0.337 A  
HETATM    4  N   UNL     1      -9.613  16.221  65.572  1.00  0.00    -0.460 NA 
HETATM    5  C   UNL     1     -10.658  15.317  65.522  1.00  0.00    -0.373 A  
HETATM    6  C   UNL     1     -10.469  14.261  66.421  1.00  0.00    -0.282 A  
HETATM    7  N   UNL     1     -11.705  15.538  64.542  1.00  0.00    -0.331 N  
HETATM    8  O   UNL     1     -11.564  16.481  63.754  1.00  0.00    -1.109 OA 
HETATM    9  O   UNL     1     -12.676  14.764  64.554  1.00  0.00    -0.569 OA 
ENDROOT
BRANCH   6  10
HETATM   10  S   UNL     1     -11.368  12.768  66.599  1.00  0.00    -0.334 SA 
BRANCH  10  11
HETATM   11  C   UNL     1     -11.659  12.455  68.319  1.00  0.00    -0.333 A  
HETATM   12  N   UNL     1     -11.818  11.191  68.772  1.00  0.00    -0.448 NA 
HETATM   13  C   UNL     1     -12.258  11.004  70.036  1.00  0.00    -0.343 A  
HETATM   14  N   UNL     1     -12.532  11.928  70.955  1.00  0.00    -0.348 NA 
HETATM   15  C   UNL     1     -12.385  13.180  70.493  1.00  0.00    -0.304 A  
HETATM   16  C   UNL     1     -11.990  13.477  69.198  1.00  0.00    -0.333 A  
HETATM   17  N   UNL     1     -12.101  14.844  69.127  1.00  0.00    -0.517 NA 
HETATM   18  H   UNL     1     -11.945  15.418  68.299  1.00  0.00     0.000 HD 
HETATM   19  C   UNL     1     -12.459  15.299  70.372  1.00  0.00    -0.381 A  
HETATM   20  N   UNL     1     -12.649  14.310  71.214  1.00  0.00    -0.343 NA 
ENDBRANCH  10  11
ENDBRANCH   6  10
TORSDOF 2
ENDMDL
MODEL        6
REMARK 921   NORMALIZED FREE ENERGY PREDICTED BY IDOCK:   -6.59 KCAL/MOL
REMARK 922        TOTAL FREE ENERGY PREDICTED BY IDOCK:   -7.68 KCAL/MOL
REMARK 923 INTER-LIGAND FREE ENERGY PREDICTED BY IDOCK:   -7.27 KCAL/MOL
REMARK 924 INTRA-LIGAND FREE ENERGY PREDICTED BY IDOCK:   -0.41 KCAL/MOL
REMARK 927      BINDING AFFINITY PREDICTED BY RF-SCORE:    0.00 PKD
ROOT
HETATM    1  C   UNL     1      -8.555  14.123  67.690  1.00  0.00    -0.189 C  
HETATM    2  N   UNL     1      -9.611  14.232  66.714  1.00  0.00    -0.269 NA 
HETATM    3  C   UNL     1      -9.575  15.211  65.748  1.00  0.00    -0.309 A  
HETATM    4  N   UNL     1     -10.566  15.101  64.903  1.00  0.00    -0.405 NA 
HETATM    5  C   UNL     1     -11.273  13.991  65.327  1.00  0.00    -0.319 A  
HETATM    6  C   UNL     1     -10.712  13.432  66.481  1.00  0.00    -0.286 A  
HETATM    7  N   UNL     1     -12.387  13.540  64.513  1.00  0.00    -0.377 N  
HETATM    8  O   UNL     1     -12.593  14.129  63.445  1.00  0.00    -0.818 OA 
HETATM    9  O   UNL     1     -13.061  12.588  64.938  1.00  0.00    -0.833 OA 
ENDROOT
BRANCH   6  10
HETATM   10  S   UNL     1     -11.082  11.922  67.288  1.00  0.00    -0.308 SA 
BRANCH  10  11
HETATM   11  C   UNL     1     -11.903  12.258  68.823  1.00  0.00    -0.306 A  
HETATM   12  N   UNL     1     -12.109  13.530  69.229  1.00  0.00    -0.316 NA 
HETATM   13  C   UNL     1     -12.530  13.748  70.495  1.00  0.00    -0.339 A  
HETATM   14  N   UNL     1     -12.822  12.845  71.430  1.00  0.00    -0.341 NA 
HETATM   15  C   UNL     1     -12.601  11.586  71.022  1.00  0.00    -0.357 A  
HETATM   16  C   UNL     1     -12.121  11.261  69.763  1.00  0.00    -0.325 A  
HETATM   17  N   UNL     1     -11.925   9.903  69.828  1.00  0.00    -0.465 NA 
HETATM   18  H   UNL     1     -11.522   9.318  69.096  1.00  0.00     0.000 HD 
HETATM   19  C   UNL     1     -12.369   9.474  71.054  1.00  0.00    -0.282 A  
HETATM   20  N   UNL     1     -12.773  10.476  71.801  1.00  0.00    -0.428 NA 
ENDBRANCH  10  11
ENDBRANCH   6  10
TORSDOF 2
ENDMDL
MODEL        7
REMARK 921   NORMALIZED FREE ENERGY PREDICTED BY IDOCK:   -6.58 KCAL/MOL
REMARK 922        TOTAL FREE ENERGY PREDICTED BY IDOCK:   -7.67 KCAL/MOL
REMARK 923 INTER-LIGAND FREE ENERGY PREDICTED BY IDOCK:   -7.15 KCAL/MOL
REMARK 924 INTRA-LIGAND FREE ENERGY PREDICTED BY IDOCK:   -0.51 KCAL/MOL
REMARK 927      BINDING AFFINITY PREDICTED BY RF-SCORE:    0.00 PKD
ROOT
HETATM    1  C   UNL     1     -10.862  11.103  66.252  1.00  0.00    -0.205 C  
HETATM    2  N   UNL     1     -11.109  12.326  65.528  1.00  0.00    -0.297 NA 
HETATM    3  C   UNL     1     -12.038  12.366  64.514  1.00  0.00    -0.417 A  
HETATM    4  N   UNL     1     -12.187  13.572  64.034  1.00  0.00    -0.612 NA 
HETATM    5  C   UNL     1     -11.329  14.360  64.779  1.00  0.00    -0.388 A  
HETATM    6  C   UNL     1     -10.615  13.602  65.715  1.00  0.00    -0.285 A  
HETATM    7  N   UNL     1     -11.348  15.793  64.552  1.00  0.00    -0.392 N  
HETATM    8  O   UNL     1     -12.187  16.238  63.759  1.00  0.00    -0.923 OA 
HETATM    9  O   UNL     1     -10.524  16.485  65.173  1.00  0.00    -0.637 OA 
ENDROOT
BRANCH   6  10
HETATM   10  S   UNL     1      -9.579  14.128  67.026  1.00  0.00    -0.271 SA 
BRANCH  10  11
HETATM   11  C   UNL     1     -10.573  14.810  68.326  1.00  0.00    -0.241 A  
HETATM   12  N   UNL     1     -10.510  16.127  68.623  1.00  0.00    -0.254 NA 
HETATM   13  C   UNL     1     -11.103  16.568  69.754  1.00  0.00    -0.245 A  
HETATM   14  N   UNL     1     -11.808  15.865  70.639  1.00  0.00    -0.374 NA 
HETATM   15  C   UNL     1     -11.853  14.556  70.345  1.00  0.00    -0.311 A  
HETATM   16  C   UNL     1     -11.234  13.998  69.237  1.00  0.00    -0.261 A  
HETATM   17  N   UNL     1     -11.425  12.648  69.401  1.00  0.00    -0.377 NA 
HETATM   18  H   UNL     1     -11.054  11.910  68.802  1.00  0.00     0.000 HD 
HETATM   19  C   UNL     1     -12.204  12.468  70.516  1.00  0.00    -0.297 A  
HETATM   20  N   UNL     1     -12.468  13.608  71.113  1.00  0.00    -0.366 NA 
ENDBRANCH  10  11
ENDBRANCH   6  10
TORSDOF 2
ENDMDL
MODEL        8
REMARK 921   NORMALIZED FREE ENERGY PREDICTED BY IDOCK:   -6.45 KCAL/MOL
REMARK 922        TOTAL FREE ENERGY PREDICTED BY IDOCK:   -7.52 KCAL/MOL
REMARK 923 INTER-LIGAND FREE ENERGY PREDICTED BY IDOCK:   -7.13 KCAL/MOL
REMARK 924 INTRA-LIGAND FREE ENERGY PREDICTED BY IDOCK:   -0.40 KCAL/MOL
REMARK 927      BINDING AFFINITY PREDICTED BY RF-SCORE:    0.00 PKD
ROOT
HETATM    1  C   UNL     1     -10.747  10.319  68.633  1.00  0.00    -0.224 C  
HETATM    2  N   UNL     1     -11.499  11.258  69.429  1.00  0.00    -0.272 NA 
HETATM    3  C   UNL     1     -12.217  10.832  70.523  1.00  0.00    -0.366 A  
HETATM    4  N   UNL     1     -12.761  11.830  71.169  1.00  0.00    -0.358 NA 
HETATM    5  C   UNL     1     -12.366  12.959  70.476  1.00  0.00    -0.283 A  
HETATM    6  C   UNL     1     -11.590  12.633  69.358  1.00  0.00    -0.306 A  
HETATM    7  N   UNL     1     -12.728  14.255  71.021  1.00  0.00    -0.339 N  
HETATM    8  O   UNL     1     -13.301  14.277  72.117  1.00  0.00    -0.350 OA 
HETATM    9  O   UNL     1     -12.434  15.261  70.355  1.00  0.00    -0.349 OA 
ENDROOT
BRANCH   6  10
HETATM   10  S   UNL     1     -10.677  13.676  68.287  1.00  0.00    -0.261 SA 
BRANCH  10  11
HETATM   11  C   UNL     1     -11.531  13.829  66.741  1.00  0.00    -0.348 A  
HETATM   12  N   UNL     1     -12.168  12.767  66.199  1.00  0.00    -0.556 NA 
HETATM   13  C   UNL     1     -12.612  12.856  64.926  1.00  0.00    -0.458 A  
HETATM   14  N   UNL     1     -12.544  13.903  64.104  1.00  0.00    -0.684 NA 
HETATM   15  C   UNL     1     -11.899  14.947  64.646  1.00  0.00    -0.407 A  
HETATM   16  C   UNL     1     -11.361  14.937  65.923  1.00  0.00    -0.306 A  
HETATM   17  N   UNL     1     -10.694  16.135  66.008  1.00  0.00    -0.282 NA 
HETATM   18  H   UNL     1     -10.125  16.452  66.792  1.00  0.00     0.000 HD 
HETATM   19  C   UNL     1     -10.931  16.828  64.847  1.00  0.00    -0.087 A  
HETATM   20  N   UNL     1     -11.649  16.125  64.000  1.00  0.00    -0.889 NA 
ENDBRANCH  10  11
ENDBRANCH   6  10
TORSDOF 2
ENDMDL
MODEL        9
REMARK 921   NORMALIZED FREE ENERGY PREDICTED BY IDOCK:   -6.36 KCAL/MOL
REMARK 922        TOTAL FREE ENERGY PREDICTED BY IDOCK:   -7.42 KCAL/MOL
REMARK 923 INTER-LIGAND FREE ENERGY PREDICTED BY IDOCK:   -7.02 KCAL/MOL
REMARK 924 INTRA-LIGAND FREE ENERGY PREDICTED BY IDOCK:   -0.41 KCAL/MOL
REMARK 927      BINDING AFFINITY PREDICTED BY RF-SCORE:    0.00 PKD
ROOT
HETATM    1  C   UNL     1      -8.183  16.697  68.605  1.00  0.00    -0.245 C  
HETATM    2  N   UNL     1      -9.075  16.751  67.473  1.00  0.00    -0.209 NA 
HETATM    3  C   UNL     1      -9.022  17.803  66.588  1.00  0.00    -0.266 A  
HETATM    4  N   UNL     1      -9.842  17.638  65.582  1.00  0.00    -0.503 NA 
HETATM    5  C   UNL     1     -10.444  16.416  65.812  1.00  0.00    -0.354 A  
HETATM    6  C   UNL     1     -10.002  15.840  67.008  1.00  0.00    -0.239 A  
HETATM    7  N   UNL     1     -11.341  15.896  64.796  1.00  0.00    -0.367 N  
HETATM    8  O   UNL     1     -11.455  16.540  63.746  1.00  0.00    -1.065 OA 
HETATM    9  O   UNL     1     -11.934  14.833  65.042  1.00  0.00    -0.366 OA 
ENDROOT
BRANCH   6  10
HETATM   10  S   UNL     1     -10.281  14.232  67.647  1.00  0.00    -0.238 SA 
BRANCH  10  11
HETATM   11  C   UNL     1     -11.413  14.326  69.009  1.00  0.00    -0.284 A  
HETATM   12  N   UNL     1     -11.755  15.522  69.539  1.00  0.00    -0.343 NA 
HETATM   13  C   UNL     1     -12.434  15.544  70.706  1.00  0.00    -0.440 A  
HETATM   14  N   UNL     1     -12.870  14.509  71.423  1.00  0.00    -0.316 NA 
HETATM   15  C   UNL     1     -12.514  13.327  70.897  1.00  0.00    -0.342 A  
HETATM   16  C   UNL     1     -11.773  13.198  69.733  1.00  0.00    -0.280 A  
HETATM   17  N   UNL     1     -11.534  11.849  69.645  1.00  0.00    -0.420 NA 
HETATM   18  H   UNL     1     -10.964  11.384  68.938  1.00  0.00     0.000 HD 
HETATM   19  C   UNL     1     -12.199  11.238  70.678  1.00  0.00    -0.393 A  
HETATM   20  N   UNL     1     -12.791  12.113  71.458  1.00  0.00    -0.347 NA 
ENDBRANCH  10  11
ENDBRANCH   6  10
TORSDOF 2
ENDMDL
MODEL       10
REMARK 921   NORMALIZED FREE ENERGY PREDICTED BY IDOCK:   -6.36 KCAL/MOL
REMARK 922        TOTAL FREE ENERGY PREDICTED BY IDOCK:   -7.42 KCAL/MOL
REMARK 923 INTER-LIGAND FREE ENERGY PREDICTED BY IDOCK:   -7.17 KCAL/MOL
REMARK 924 INTRA-LIGAND FREE ENERGY PREDICTED BY IDOCK:   -0.25 KCAL/MOL
REMARK 927      BINDING AFFINITY PREDICTED BY RF-SCORE:    0.00 PKD
ROOT
HETATM    1  C   UNL     1     -11.415  16.452  69.029  1.00  0.00    -0.205 C  
HETATM    2  N   UNL     1     -11.763  15.241  69.731  1.00  0.00    -0.300 NA 
HETATM    3  C   UNL     1     -12.646  15.270  70.785  1.00  0.00    -0.417 A  
HETATM    4  N   UNL     1     -12.906  14.072  71.239  1.00  0.00    -0.341 NA 
HETATM    5  C   UNL     1     -12.172  13.221  70.434  1.00  0.00    -0.332 A  
HETATM    6  C   UNL     1     -11.421  13.926  69.488  1.00  0.00    -0.274 A  
HETATM    7  N   UNL     1     -12.339  11.791  70.624  1.00  0.00    -0.356 N  
HETATM    8  O   UNL     1     -13.187  11.415  71.442  1.00  0.00    -0.326 OA 
HETATM    9  O   UNL     1     -11.623  11.034  69.948  1.00  0.00    -0.279 OA 
ENDROOT
BRANCH   6  10
HETATM   10  S   UNL     1     -10.506  13.332  68.117  1.00  0.00    -0.250 SA 
BRANCH  10  11
HETATM   11  C   UNL     1     -11.436  13.588  66.630  1.00  0.00    -0.339 A  
HETATM   12  N   UNL     1     -12.149  12.578  66.081  1.00  0.00    -0.615 NA 
HETATM   13  C   UNL     1     -12.658  12.742  64.840  1.00  0.00    -0.470 A  
HETATM   14  N   UNL     1     -12.589  13.820  64.060  1.00  0.00    -0.692 NA 
HETATM   15  C   UNL     1     -11.868  14.812  64.607  1.00  0.00    -0.436 A  
HETATM   16  C   UNL     1     -11.262  14.723  65.850  1.00  0.00    -0.340 A  
HETATM   17  N   UNL     1     -10.539  15.886  65.946  1.00  0.00    -0.336 NA 
HETATM   18  H   UNL     1      -9.914  16.145  66.709  1.00  0.00     0.000 HD 
HETATM   19  C   UNL     1     -10.808  16.639  64.831  1.00  0.00    -0.142 A  
HETATM   20  N   UNL     1     -11.602  16.006  63.998  1.00  0.00    -0.723 NA 
ENDBRANCH  10  11
ENDBRANCH   6  10
TORSDOF 2
ENDMDL
MODEL       11
REMARK 921   NORMALIZED FREE ENERGY PREDICTED BY IDOCK:   -6.33 KCAL/MOL
REMARK 922        TOTAL FREE ENERGY PREDICTED BY IDOCK:   -7.39 KCAL/MOL
REMARK 923 INTER-LIGAND FREE ENERGY PREDICTED BY IDOCK:   -6.70 KCAL/MOL
REMARK 924 INTRA-LIGAND FREE ENERGY PREDICTED BY IDOCK:   -0.69 KCAL/MOL
REMARK 927      BINDING AFFINITY PREDICTED BY RF-SCORE:    0.00 PKD
ROOT
HETATM    1  C   UNL     1     -10.668  10.739  64.891  1.00  0.00    -0.096 C  
HETATM    2  N   UNL     1     -11.025  12.088  64.525  1.00  0.00    -0.303 NA 
HETATM    3  C   UNL     1     -12.049  12.326  63.637  1.00  0.00    -0.554 A  
HETATM    4  N   UNL     1     -12.285  13.604  63.494  1.00  0.00    -0.650 NA 
HETATM    5  C   UNL     1     -11.386  14.228  64.340  1.00  0.00    -0.273 A  
HETATM    6  C   UNL     1     -10.560  13.303  64.987  1.00  0.00    -0.346 A  
HETATM    7  N   UNL     1     -11.476  15.669  64.487  1.00  0.00    -0.374 N  
HETATM    8  O   UNL     1     -12.403  16.249  63.907  1.00  0.00    -0.874 OA 
HETATM    9  O   UNL     1     -10.620  16.230  65.190  1.00  0.00    -0.576 OA 
ENDROOT
BRANCH   6  10
HETATM   10  S   UNL     1      -9.420  13.544  66.296  1.00  0.00    -0.123 SA 
BRANCH  10  11
HETATM   11  C   UNL     1     -10.289  13.552  67.842  1.00  0.00    -0.249 A  
HETATM   12  N   UNL     1     -10.948  12.451  68.267  1.00  0.00    -0.223 NA 
HETATM   13  C   UNL     1     -11.778  12.559  69.327  1.00  0.00    -0.321 A  
HETATM   14  N   UNL     1     -12.021  13.636  70.073  1.00  0.00    -0.331 NA 
HETATM   15  C   UNL     1     -11.373  14.727  69.636  1.00  0.00    -0.283 A  
HETATM   16  C   UNL     1     -10.541  14.732  68.527  1.00  0.00    -0.248 A  
HETATM   17  N   UNL     1     -10.209  16.056  68.372  1.00  0.00    -0.230 NA 
HETATM   18  H   UNL     1      -9.648  16.451  67.617  1.00  0.00     0.000 HD 
HETATM   19  C   UNL     1     -10.765  16.751  69.417  1.00  0.00    -0.300 A  
HETATM   20  N   UNL     1     -11.485  15.971  70.190  1.00  0.00    -0.346 NA 
ENDBRANCH  10  11
ENDBRANCH   6  10
TORSDOF 2
ENDMDL
MODEL       12
REMARK 921   NORMALIZED FREE ENERGY PREDICTED BY IDOCK:   -6.28 KCAL/MOL
REMARK 922        TOTAL FREE ENERGY PREDICTED BY IDOCK:   -7.34 KCAL/MOL
REMARK 923 INTER-LIGAND FREE ENERGY PREDICTED BY IDOCK:   -6.62 KCAL/MOL
REMARK 924 INTRA-LIGAND FREE ENERGY PREDICTED BY IDOCK:   -0.71 KCAL/MOL
REMARK 927      BINDING AFFINITY PREDICTED BY RF-SCORE:    0.00 PKD
ROOT
HETATM    1  C   UNL     1     -11.065  11.324  66.770  1.00  0.00    -0.250 C  
HETATM    2  N   UNL     1     -11.370  12.448  65.919  1.00  0.00    -0.339 NA 
HETATM    3  C   UNL     1     -12.535  12.478  65.186  1.00  0.00    -0.379 A  
HETATM    4  N   UNL     1     -12.680  13.608  64.545  1.00  0.00    -0.655 NA 
HETATM    5  C   UNL     1     -11.570  14.356  64.887  1.00  0.00    -0.395 A  
HETATM    6  C   UNL     1     -10.710  13.646  65.733  1.00  0.00    -0.280 A  
HETATM    7  N   UNL     1     -11.497  15.725  64.410  1.00  0.00    -0.354 N  
HETATM    8  O   UNL     1     -12.470  16.169  63.789  1.00  0.00    -0.769 OA 
HETATM    9  O   UNL     1     -10.463  16.367  64.660  1.00  0.00    -0.548 OA 
ENDROOT
BRANCH   6  10
HETATM   10  S   UNL     1      -9.300  14.198  66.615  1.00  0.00    -0.263 SA 
BRANCH  10  11
HETATM   11  C   UNL     1      -9.817  15.124  68.035  1.00  0.00    -0.213 A  
HETATM   12  N   UNL     1     -10.527  14.532  69.022  1.00  0.00    -0.243 NA 
HETATM   13  C   UNL     1     -11.093  15.309  69.971  1.00  0.00    -0.287 A  
HETATM   14  N   UNL     1     -11.015  16.633  70.103  1.00  0.00    -0.236 NA 
HETATM   15  C   UNL     1     -10.320  17.213  69.112  1.00  0.00    -0.297 A  
HETATM   16  C   UNL     1      -9.746  16.509  68.065  1.00  0.00    -0.236 A  
HETATM   17  N   UNL     1      -9.262  17.492  67.236  1.00  0.00    -0.237 NA 
HETATM   18  H   UNL     1      -8.820  17.350  66.328  1.00  0.00     0.000 HD 
HETATM   19  C   UNL     1      -9.481  18.701  67.849  1.00  0.00    -0.303 A  
HETATM   20  N   UNL     1     -10.130  18.560  68.981  1.00  0.00    -0.339 NA 
ENDBRANCH  10  11
ENDBRANCH   6  10
TORSDOF 2
ENDMDL
MODEL       13
REMARK 921   NORMALIZED FREE ENERGY PREDICTED BY IDOCK:   -6.26 KCAL/MOL
REMARK 922        TOTAL FREE ENERGY PREDICTED BY IDOCK:   -7.32 KCAL/MOL
REMARK 923 INTER-LIGAND FREE ENERGY PREDICTED BY IDOCK:   -6.93 KCAL/MOL
REMARK 924 INTRA-LIGAND FREE ENERGY PREDICTED BY IDOCK:   -0.39 KCAL/MOL
REMARK 927      BINDING AFFINITY PREDICTED BY RF-SCORE:    0.00 PKD
ROOT
HETATM    1  C   UNL     1     -10.646  16.598  69.153  1.00  0.00    -0.340 C  
HETATM    2  N   UNL     1      -9.938  17.583  68.372  1.00  0.00    -0.315 NA 
HETATM    3  C   UNL     1      -9.929  18.905  68.753  1.00  0.00    -0.408 A  
HETATM    4  N   UNL     1      -9.169  19.633  67.976  1.00  0.00    -0.328 NA 
HETATM    5  C   UNL     1      -8.645  18.743  67.057  1.00  0.00    -0.282 A  
HETATM    6  C   UNL     1      -9.129  17.445  67.262  1.00  0.00    -0.237 A  
HETATM    7  N   UNL     1      -7.661  19.238  66.112  1.00  0.00    -0.287 N  
HETATM    8  O   UNL     1      -7.290  20.412  66.233  1.00  0.00    -0.262 OA 
HETATM    9  O   UNL     1      -7.251  18.451  65.244  1.00  0.00    -0.504 OA 
ENDROOT
BRANCH   6  10
HETATM   10  S   UNL     1      -8.628  15.935  66.529  1.00  0.00    -0.324 SA 
BRANCH  10  11
HETATM   11  C   UNL     1     -10.010  15.192  65.704  1.00  0.00    -0.354 A  
HETATM   12  N   UNL     1     -10.735  15.895  64.807  1.00  0.00    -0.576 NA 
HETATM   13  C   UNL     1     -11.905  15.379  64.369  1.00  0.00    -0.256 A  
HETATM   14  N   UNL     1     -12.451  14.204  64.679  1.00  0.00    -0.638 NA 
HETATM   15  C   UNL     1     -11.731  13.519  65.581  1.00  0.00    -0.339 A  
HETATM   16  C   UNL     1     -10.546  13.985  66.129  1.00  0.00    -0.290 A  
HETATM   17  N   UNL     1     -10.233  13.043  67.079  1.00  0.00    -0.243 NA 
HETATM   18  H   UNL     1      -9.447  13.083  67.729  1.00  0.00     0.000 HD 
HETATM   19  C   UNL     1     -11.165  12.040  66.997  1.00  0.00    -0.320 A  
HETATM   20  N   UNL     1     -12.091  12.310  66.105  1.00  0.00    -0.627 NA 
ENDBRANCH  10  11
ENDBRANCH   6  10
TORSDOF 2
ENDMDL
MODEL       14
REMARK 921   NORMALIZED FREE ENERGY PREDICTED BY IDOCK:   -6.26 KCAL/MOL
REMARK 922        TOTAL FREE ENERGY PREDICTED BY IDOCK:   -7.31 KCAL/MOL
REMARK 923 INTER-LIGAND FREE ENERGY PREDICTED BY IDOCK:   -6.88 KCAL/MOL
REMARK 924 INTRA-LIGAND FREE ENERGY PREDICTED BY IDOCK:   -0.44 KCAL/MOL
REMARK 927      BINDING AFFINITY PREDICTED BY RF-SCORE:    0.00 PKD
ROOT
HETATM    1  C   UNL     1     -12.026  13.135  65.081  1.00  0.00    -0.394 C  
HETATM    2  N   UNL     1     -11.513  14.484  65.107  1.00  0.00    -0.354 NA 
HETATM    3  C   UNL     1     -11.933  15.412  64.182  1.00  0.00    -0.097 A  
HETATM    4  N   UNL     1     -11.429  16.596  64.414  1.00  0.00    -0.973 NA 
HETATM    5  C   UNL     1     -10.660  16.437  65.552  1.00  0.00    -0.330 A  
HETATM    6  C   UNL     1     -10.671  15.112  66.002  1.00  0.00    -0.329 A  
HETATM    7  N   UNL     1     -10.048  17.620  66.131  1.00  0.00    -0.323 N  
HETATM    8  O   UNL     1     -10.314  18.713  65.618  1.00  0.00    -0.572 OA 
HETATM    9  O   UNL     1      -9.299  17.459  67.109  1.00  0.00    -0.237 OA 
ENDROOT
BRANCH   6  10
HETATM   10  S   UNL     1     -10.049  14.431  67.491  1.00  0.00    -0.232 SA 
BRANCH  10  11
HETATM   11  C   UNL     1     -11.288  14.540  68.753  1.00  0.00    -0.274 A  
HETATM   12  N   UNL     1     -11.712  15.743  69.201  1.00  0.00    -0.388 NA 
HETATM   13  C   UNL     1     -12.483  15.789  70.309  1.00  0.00    -0.256 A  
HETATM   14  N   UNL     1     -12.941  14.770  71.035  1.00  0.00    -0.344 NA 
HETATM   15  C   UNL     1     -12.505  13.580  70.592  1.00  0.00    -0.333 A  
HETATM   16  C   UNL     1     -11.668  13.431  69.496  1.00  0.00    -0.324 A  
HETATM   17  N   UNL     1     -11.378  12.088  69.488  1.00  0.00    -0.426 NA 
HETATM   18  H   UNL     1     -10.738  11.615  68.849  1.00  0.00     0.000 HD 
HETATM   19  C   UNL     1     -12.103  11.497  70.491  1.00  0.00    -0.378 A  
HETATM   20  N   UNL     1     -12.785  12.381  71.182  1.00  0.00    -0.313 NA 
ENDBRANCH  10  11
ENDBRANCH   6  10
TORSDOF 2
ENDMDL
MODEL       15
REMARK 921   NORMALIZED FREE ENERGY PREDICTED BY IDOCK:   -6.22 KCAL/MOL
REMARK 922        TOTAL FREE ENERGY PREDICTED BY IDOCK:   -7.26 KCAL/MOL
REMARK 923 INTER-LIGAND FREE ENERGY PREDICTED BY IDOCK:   -6.51 KCAL/MOL
REMARK 924 INTRA-LIGAND FREE ENERGY PREDICTED BY IDOCK:   -0.75 KCAL/MOL
REMARK 927      BINDING AFFINITY PREDICTED BY RF-SCORE:    0.00 PKD
ROOT
HETATM    1  C   UNL     1     -10.899  16.464  70.026  1.00  0.00    -0.305 C  
HETATM    2  N   UNL     1     -11.172  15.059  69.844  1.00  0.00    -0.264 NA 
HETATM    3  C   UNL     1     -12.239  14.464  70.478  1.00  0.00    -0.341 A  
HETATM    4  N   UNL     1     -12.380  13.212  70.126  1.00  0.00    -0.258 NA 
HETATM    5  C   UNL     1     -11.371  12.985  69.209  1.00  0.00    -0.251 A  
HETATM    6  C   UNL     1     -10.575  14.121  69.025  1.00  0.00    -0.213 A  
HETATM    7  N   UNL     1     -11.332  11.695  68.544  1.00  0.00    -0.248 N  
HETATM    8  O   UNL     1     -12.251  10.900  68.779  1.00  0.00    -0.518 OA 
HETATM    9  O   UNL     1     -10.382  11.472  67.777  1.00  0.00    -0.177 OA 
ENDROOT
BRANCH   6  10
HETATM   10  S   UNL     1      -9.323  14.431  67.840  1.00  0.00    -0.209 SA 
BRANCH  10  11
HETATM   11  C   UNL     1     -10.030  15.242  66.431  1.00  0.00    -0.275 A  
HETATM   12  N   UNL     1      -9.915  16.580  66.278  1.00  0.00    -0.310 NA 
HETATM   13  C   UNL     1     -10.651  17.190  65.322  1.00  0.00    -0.043 A  
HETATM   14  N   UNL     1     -11.480  16.631  64.442  1.00  0.00    -0.973 NA 
HETATM   15  C   UNL     1     -11.598  15.304  64.611  1.00  0.00    -0.333 A  
HETATM   16  C   UNL     1     -10.927  14.594  65.594  1.00  0.00    -0.335 A  
HETATM   17  N   UNL     1     -11.437  13.323  65.485  1.00  0.00    -0.306 NA 
HETATM   18  H   UNL     1     -11.216  12.533  66.091  1.00  0.00     0.000 HD 
HETATM   19  C   UNL     1     -12.295  13.307  64.415  1.00  0.00    -0.348 A  
HETATM   20  N   UNL     1     -12.419  14.498  63.875  1.00  0.00    -0.806 NA 
ENDBRANCH  10  11
ENDBRANCH   6  10
TORSDOF 2
ENDMDL
MODEL       16
REMARK 921   NORMALIZED FREE ENERGY PREDICTED BY IDOCK:   -6.21 KCAL/MOL
REMARK 922        TOTAL FREE ENERGY PREDICTED BY IDOCK:   -7.25 KCAL/MOL
REMARK 923 INTER-LIGAND FREE ENERGY PREDICTED BY IDOCK:   -6.85 KCAL/MOL
REMARK 924 INTRA-LIGAND FREE ENERGY PREDICTED BY IDOCK:   -0.40 KCAL/MOL
REMARK 927      BINDING AFFINITY PREDICTED BY RF-SCORE:    0.00 PKD
ROOT
HETATM    1  C   UNL     1      -9.457  10.013  66.354  1.00  0.00    -0.186 C  
HETATM    2  N   UNL     1     -10.125  10.997  65.538  1.00  0.00    -0.248 NA 
HETATM    3  C   UNL     1      -9.967  10.999  64.171  1.00  0.00    -0.329 A  
HETATM    4  N   UNL     1     -10.713  11.904  63.593  1.00  0.00    -0.399 NA 
HETATM    5  C   UNL     1     -11.402  12.509  64.628  1.00  0.00    -0.318 A  
HETATM    6  C   UNL     1     -11.037  11.979  65.870  1.00  0.00    -0.324 A  
HETATM    7  N   UNL     1     -12.407  13.500  64.289  1.00  0.00    -0.367 N  
HETATM    8  O   UNL     1     -12.646  13.689  63.090  1.00  0.00    -0.792 OA 
HETATM    9  O   UNL     1     -12.969  14.091  65.225  1.00  0.00    -0.743 OA 
ENDROOT
BRANCH   6  10
HETATM   10  S   UNL     1     -11.751  12.235  67.450  1.00  0.00    -0.276 SA 
BRANCH  10  11
HETATM   11  C   UNL     1     -11.086  13.715  68.165  1.00  0.00    -0.256 A  
HETATM   12  N   UNL     1      -9.820  14.103  67.891  1.00  0.00    -0.219 NA 
HETATM   13  C   UNL     1      -9.274  15.101  68.621  1.00  0.00    -0.196 A  
HETATM   14  N   UNL     1      -9.844  15.816  69.590  1.00  0.00    -0.286 NA 
HETATM   15  C   UNL     1     -11.095  15.414  69.865  1.00  0.00    -0.293 A  
HETATM   16  C   UNL     1     -11.725  14.368  69.209  1.00  0.00    -0.317 A  
HETATM   17  N   UNL     1     -12.911  14.223  69.887  1.00  0.00    -0.437 NA 
HETATM   18  H   UNL     1     -13.616  13.506  69.720  1.00  0.00     0.000 HD 
HETATM   19  C   UNL     1     -12.977  15.218  70.831  1.00  0.00    -0.462 A  
HETATM   20  N   UNL     1     -11.884  15.946  70.845  1.00  0.00    -0.403 NA 
ENDBRANCH  10  11
ENDBRANCH   6  10
TORSDOF 2
ENDMDL
MODEL       17
REMARK 921   NORMALIZED FREE ENERGY PREDICTED BY IDOCK:   -6.16 KCAL/MOL
REMARK 922        TOTAL FREE ENERGY PREDICTED BY IDOCK:   -7.20 KCAL/MOL
REMARK 923 INTER-LIGAND FREE ENERGY PREDICTED BY IDOCK:   -6.75 KCAL/MOL
REMARK 924 INTRA-LIGAND FREE ENERGY PREDICTED BY IDOCK:   -0.45 KCAL/MOL
REMARK 927      BINDING AFFINITY PREDICTED BY RF-SCORE:    0.00 PKD
ROOT
HETATM    1  C   UNL     1      -9.899  13.088  68.304  1.00  0.00    -0.225 C  
HETATM    2  N   UNL     1     -10.410  14.020  67.328  1.00  0.00    -0.262 NA 
HETATM    3  C   UNL     1     -10.028  15.342  67.355  1.00  0.00    -0.229 A  
HETATM    4  N   UNL     1     -10.522  16.014  66.347  1.00  0.00    -0.307 NA 
HETATM    5  C   UNL     1     -11.245  15.085  65.622  1.00  0.00    -0.327 A  
HETATM    6  C   UNL     1     -11.216  13.823  66.225  1.00  0.00    -0.306 A  
HETATM    7  N   UNL     1     -11.832  15.510  64.364  1.00  0.00    -0.322 N  
HETATM    8  O   UNL     1     -11.587  16.659  63.975  1.00  0.00    -1.197 OA 
HETATM    9  O   UNL     1     -12.540  14.692  63.755  1.00  0.00    -0.820 OA 
ENDROOT
BRANCH   6  10
HETATM   10  S   UNL     1     -11.777  12.279  65.618  1.00  0.00    -0.332 SA 
BRANCH  10  11
HETATM   11  C   UNL     1     -10.466  11.481  64.730  1.00  0.00    -0.299 A  
HETATM   12  N   UNL     1     -10.205  11.810  63.444  1.00  0.00    -0.429 NA 
HETATM   13  C   UNL     1      -9.358  11.034  62.734  1.00  0.00    -0.346 A  
HETATM   14  N   UNL     1      -8.680   9.964  63.149  1.00  0.00    -0.201 NA 
HETATM   15  C   UNL     1      -8.955   9.637  64.422  1.00  0.00    -0.234 A  
HETATM   16  C   UNL     1      -9.848  10.338  65.217  1.00  0.00    -0.306 A  
HETATM   17  N   UNL     1      -9.918   9.591  66.368  1.00  0.00    -0.256 NA 
HETATM   18  H   UNL     1     -10.526   9.772  67.166  1.00  0.00     0.000 HD 
HETATM   19  C   UNL     1      -9.022   8.558  66.251  1.00  0.00    -0.168 A  
HETATM   20  N   UNL     1      -8.434   8.557  65.076  1.00  0.00    -0.177 NA 
ENDBRANCH  10  11
ENDBRANCH   6  10
TORSDOF 2
ENDMDL
MODEL       18
REMARK 921   NORMALIZED FREE ENERGY PREDICTED BY IDOCK:   -6.14 KCAL/MOL
REMARK 922        TOTAL FREE ENERGY PREDICTED BY IDOCK:   -7.18 KCAL/MOL
REMARK 923 INTER-LIGAND FREE ENERGY PREDICTED BY IDOCK:   -6.78 KCAL/MOL
REMARK 924 INTRA-LIGAND FREE ENERGY PREDICTED BY IDOCK:   -0.40 KCAL/MOL
REMARK 927      BINDING AFFINITY PREDICTED BY RF-SCORE:    0.00 PKD
ROOT
HETATM    1  C   UNL     1      -9.323  14.319  68.945  1.00  0.00    -0.053 C  
HETATM    2  N   UNL     1      -9.824  15.605  68.527  1.00  0.00    -0.202 NA 
HETATM    3  C   UNL     1     -10.101  16.585  69.453  1.00  0.00    -0.230 A  
HETATM    4  N   UNL     1     -10.461  17.706  68.886  1.00  0.00    -0.322 NA 
HETATM    5  C   UNL     1     -10.400  17.453  67.529  1.00  0.00    -0.351 A  
HETATM    6  C   UNL     1     -10.025  16.131  67.267  1.00  0.00    -0.248 A  
HETATM    7  N   UNL     1     -10.643  18.557  66.618  1.00  0.00    -0.380 N  
HETATM    8  O   UNL     1     -10.814  19.680  67.109  1.00  0.00    -0.484 OA 
HETATM    9  O   UNL     1     -10.659  18.307  65.402  1.00  0.00    -0.612 OA 
ENDROOT
BRANCH   6  10
HETATM   10  S   UNL     1      -9.599  15.368  65.748  1.00  0.00    -0.288 SA 
BRANCH  10  11
HETATM   11  C   UNL     1     -10.957  14.379  65.182  1.00  0.00    -0.373 A  
HETATM   12  N   UNL     1     -12.191  14.536  65.712  1.00  0.00    -0.310 NA 
HETATM   13  C   UNL     1     -13.143  13.622  65.422  1.00  0.00    -0.121 A  
HETATM   14  N   UNL     1     -13.048  12.562  64.620  1.00  0.00    -0.837 NA 
HETATM   15  C   UNL     1     -11.816  12.407  64.110  1.00  0.00    -0.413 A  
HETATM   16  C   UNL     1     -10.758  13.258  64.388  1.00  0.00    -0.415 A  
HETATM   17  N   UNL     1      -9.685  12.658  63.776  1.00  0.00    -0.665 NA 
HETATM   18  H   UNL     1      -8.716  12.975  63.815  1.00  0.00     0.000 HD 
HETATM   19  C   UNL     1     -10.150  11.556  63.103  1.00  0.00    -0.359 A  
HETATM   20  N   UNL     1     -11.436  11.375  63.299  1.00  0.00    -0.122 NA 
ENDBRANCH  10  11
ENDBRANCH   6  10
TORSDOF 2
ENDMDL
MODEL       19
REMARK 921   NORMALIZED FREE ENERGY PREDICTED BY IDOCK:   -6.10 KCAL/MOL
REMARK 922        TOTAL FREE ENERGY PREDICTED BY IDOCK:   -7.13 KCAL/MOL
REMARK 923 INTER-LIGAND FREE ENERGY PREDICTED BY IDOCK:   -6.77 KCAL/MOL
REMARK 924 INTRA-LIGAND FREE ENERGY PREDICTED BY IDOCK:   -0.37 KCAL/MOL
REMARK 927      BINDING AFFINITY PREDICTED BY RF-SCORE:    0.00 PKD
ROOT
HETATM    1  C   UNL     1     -11.349  10.289  70.216  1.00  0.00    -0.323 C  
HETATM    2  N   UNL     1     -11.923  11.593  70.443  1.00  0.00    -0.370 NA 
HETATM    3  C   UNL     1     -12.806  11.800  71.478  1.00  0.00    -0.345 A  
HETATM    4  N   UNL     1     -13.153  13.056  71.582  1.00  0.00    -0.385 NA 
HETATM    5  C   UNL     1     -12.451  13.702  70.580  1.00  0.00    -0.347 A  
HETATM    6  C   UNL     1     -11.684  12.805  69.828  1.00  0.00    -0.282 A  
HETATM    7  N   UNL     1     -12.543  15.148  70.508  1.00  0.00    -0.369 N  
HETATM    8  O   UNL     1     -13.183  15.728  71.394  1.00  0.00    -0.495 OA 
HETATM    9  O   UNL     1     -11.970  15.714  69.562  1.00  0.00    -0.359 OA 
ENDROOT
BRANCH   6  10
HETATM   10  S   UNL     1     -10.469  13.123  68.606  1.00  0.00    -0.186 SA 
BRANCH  10  11
HETATM   11  C   UNL     1     -11.244  13.229  67.015  1.00  0.00    -0.292 A  
HETATM   12  N   UNL     1     -12.317  14.029  66.824  1.00  0.00    -0.405 NA 
HETATM   13  C   UNL     1     -13.014  13.916  65.672  1.00  0.00    -0.315 A  
HETATM   14  N   UNL     1     -12.762  13.120  64.634  1.00  0.00    -0.699 NA 
HETATM   15  C   UNL     1     -11.705  12.319  64.838  1.00  0.00    -0.352 A  
HETATM   16  C   UNL     1     -10.956  12.322  66.005  1.00  0.00    -0.292 A  
HETATM   17  N   UNL     1     -10.080  11.278  65.834  1.00  0.00    -0.235 NA 
HETATM   18  H   UNL     1      -9.405  10.940  66.521  1.00  0.00     0.000 HD 
HETATM   19  C   UNL     1     -10.275  10.770  64.574  1.00  0.00    -0.359 A  
HETATM   20  N   UNL     1     -11.262  11.376  63.955  1.00  0.00    -0.354 NA 
ENDBRANCH  10  11
ENDBRANCH   6  10
TORSDOF 2
ENDMDL
MODEL       20
REMARK 921   NORMALIZED FREE ENERGY PREDICTED BY IDOCK:   -6.10 KCAL/MOL
REMARK 922        TOTAL FREE ENERGY PREDICTED BY IDOCK:   -7.13 KCAL/MOL
REMARK 923 INTER-LIGAND FREE ENERGY PREDICTED BY IDOCK:   -6.50 KCAL/MOL
REMARK 924 INTRA-LIGAND FREE ENERGY PREDICTED BY IDOCK:   -0.63 KCAL/MOL
REMARK 927      BINDING AFFINITY PREDICTED BY RF-SCORE:    0.00 PKD
ROOT
HETATM    1  C   UNL     1      -9.328  11.032  68.070  1.00  0.00    -0.163 C  
HETATM    2  N   UNL     1     -10.101  11.357  66.897  1.00  0.00    -0.209 NA 
HETATM    3  C   UNL     1      -9.943  10.642  65.732  1.00  0.00    -0.257 A  
HETATM    4  N   UNL     1     -10.785  11.022  64.807  1.00  0.00    -0.280 NA 
HETATM    5  C   UNL     1     -11.538  12.018  65.399  1.00  0.00    -0.286 A  
HETATM    6  C   UNL     1     -11.118  12.272  66.710  1.00  0.00    -0.296 A  
HETATM    7  N   UNL     1     -12.649  12.572  64.646  1.00  0.00    -0.482 N  
HETATM    8  O   UNL     1     -12.906  12.067  63.547  1.00  0.00    -0.749 OA 
HETATM    9  O   UNL     1     -13.274  13.516  65.155  1.00  0.00    -0.720 OA 
ENDROOT
BRANCH   6  10
HETATM   10  S   UNL     1     -11.857  13.265  67.949  1.00  0.00    -0.325 SA 
BRANCH  10  11
HETATM   11  C   UNL     1     -11.014  14.822  68.040  1.00  0.00    -0.271 A  
HETATM   12  N   UNL     1     -10.724  15.380  69.237  1.00  0.00    -0.237 NA 
HETATM   13  C   UNL     1     -10.289  16.658  69.269  1.00  0.00    -0.318 A  
HETATM   14  N   UNL     1     -10.055  17.473  68.241  1.00  0.00    -0.324 NA 
HETATM   15  C   UNL     1     -10.359  16.916  67.059  1.00  0.00    -0.307 A  
HETATM   16  C   UNL     1     -10.861  15.632  66.923  1.00  0.00    -0.282 A  
HETATM   17  N   UNL     1     -11.145  15.531  65.583  1.00  0.00    -0.279 NA 
HETATM   18  H   UNL     1     -11.587  14.736  65.119  1.00  0.00     0.000 HD 
HETATM   19  C   UNL     1     -10.729  16.691  64.979  1.00  0.00    -0.152 A  
HETATM   20  N   UNL     1     -10.260  17.551  65.853  1.00  0.00    -0.564 NA 
ENDBRANCH  10  11
ENDBRANCH   6  10
TORSDOF 2
ENDMDL
MODEL       21
REMARK 921   NORMALIZED FREE ENERGY PREDICTED BY IDOCK:   -6.09 KCAL/MOL
REMARK 922        TOTAL FREE ENERGY PREDICTED BY IDOCK:   -7.12 KCAL/MOL
REMARK 923 INTER-LIGAND FREE ENERGY PREDICTED BY IDOCK:   -6.64 KCAL/MOL
REMARK 924 INTRA-LIGAND FREE ENERGY PREDICTED BY IDOCK:   -0.48 KCAL/MOL
REMARK 927      BINDING AFFINITY PREDICTED BY RF-SCORE:    0.00 PKD
ROOT
HETATM    1  C   UNL     1     -11.976  13.522  69.269  1.00  0.00    -0.330 C  
HETATM    2  N   UNL     1     -11.409  14.567  68.452  1.00  0.00    -0.275 NA 
HETATM    3  C   UNL     1     -10.498  15.454  68.979  1.00  0.00    -0.249 A  
HETATM    4  N   UNL     1     -10.032  16.272  68.073  1.00  0.00    -0.236 NA 
HETATM    5  C   UNL     1     -10.653  15.893  66.898  1.00  0.00    -0.309 A  
HETATM    6  C   UNL     1     -11.546  14.836  67.105  1.00  0.00    -0.359 A  
HETATM    7  N   UNL     1     -10.252  16.555  65.670  1.00  0.00    -0.325 N  
HETATM    8  O   UNL     1      -9.321  17.368  65.734  1.00  0.00    -0.518 OA 
HETATM    9  O   UNL     1     -10.865  16.261  64.631  1.00  0.00    -0.687 OA 
ENDROOT
BRANCH   6  10
HETATM   10  S   UNL     1     -12.411  13.856  65.938  1.00  0.00    -0.478 SA 
BRANCH  10  11
HETATM   11  C   UNL     1     -11.296  12.688  65.206  1.00  0.00    -0.315 A  
HETATM   12  N   UNL     1     -10.965  12.777  63.899  1.00  0.00    -0.406 NA 
HETATM   13  C   UNL     1     -10.300  11.751  63.325  1.00  0.00    -0.402 A  
HETATM   14  N   UNL     1      -9.868  10.628  63.899  1.00  0.00    -0.318 NA 
HETATM   15  C   UNL     1     -10.213  10.542  65.194  1.00  0.00    -0.288 A  
HETATM   16  C   UNL     1     -10.940  11.516  65.860  1.00  0.00    -0.243 A  
HETATM   17  N   UNL     1     -11.173  10.964  67.096  1.00  0.00    -0.364 NA 
HETATM   18  H   UNL     1     -11.732  11.375  67.843  1.00  0.00     0.000 HD 
HETATM   19  C   UNL     1     -10.518   9.759  67.145  1.00  0.00    -0.250 A  
HETATM   20  N   UNL     1      -9.938   9.475  66.001  1.00  0.00    -0.289 NA 
ENDBRANCH  10  11
ENDBRANCH   6  10
TORSDOF 2
ENDMDL
MODEL       22
REMARK 921   NORMALIZED FREE ENERGY PREDICTED BY IDOCK:   -6.08 KCAL/MOL
REMARK 922        TOTAL FREE ENERGY PREDICTED BY IDOCK:   -7.11 KCAL/MOL
REMARK 923 INTER-LIGAND FREE ENERGY PREDICTED BY IDOCK:   -6.68 KCAL/MOL
REMARK 924 INTRA-LIGAND FREE ENERGY PREDICTED BY IDOCK:   -0.44 KCAL/MOL
REMARK 927      BINDING AFFINITY PREDICTED BY RF-SCORE:    0.00 PKD
ROOT
HETATM    1  C   UNL     1     -10.044  16.651  65.874  1.00  0.00    -0.320 C  
HETATM    2  N   UNL     1     -10.925  15.598  65.431  1.00  0.00    -0.350 NA 
HETATM    3  C   UNL     1     -11.849  15.829  64.438  1.00  0.00    -0.148 A  
HETATM    4  N   UNL     1     -12.496  14.741  64.110  1.00  0.00    -0.802 NA 
HETATM    5  C   UNL     1     -11.959  13.752  64.913  1.00  0.00    -0.390 A  
HETATM    6  C   UNL     1     -10.982  14.263  65.776  1.00  0.00    -0.305 A  
HETATM    7  N   UNL     1     -12.403  12.387  64.703  1.00  0.00    -0.456 N  
HETATM    8  O   UNL     1     -13.180  12.174  63.764  1.00  0.00    -0.763 OA 
HETATM    9  O   UNL     1     -11.971  11.516  65.476  1.00  0.00    -0.125 OA 
ENDROOT
BRANCH   6  10
HETATM   10  S   UNL     1      -9.863  13.417  66.826  1.00  0.00    -0.272 SA 
BRANCH  10  11
HETATM   11  C   UNL     1     -10.688  12.967  68.329  1.00  0.00    -0.244 A  
HETATM   12  N   UNL     1     -10.885  11.667  68.643  1.00  0.00    -0.202 NA 
HETATM   13  C   UNL     1     -11.707  11.364  69.672  1.00  0.00    -0.345 A  
HETATM   14  N   UNL     1     -12.350  12.203  70.483  1.00  0.00    -0.312 NA 
HETATM   15  C   UNL     1     -12.161  13.490  70.155  1.00  0.00    -0.354 A  
HETATM   16  C   UNL     1     -11.379  13.902  69.087  1.00  0.00    -0.286 A  
HETATM   17  N   UNL     1     -11.572  15.261  69.044  1.00  0.00    -0.323 NA 
HETATM   18  H   UNL     1     -11.195  15.901  68.344  1.00  0.00     0.000 HD 
HETATM   19  C   UNL     1     -12.364  15.605  70.111  1.00  0.00    -0.336 A  
HETATM   20  N   UNL     1     -12.743  14.549  70.793  1.00  0.00    -0.345 NA 
ENDBRANCH  10  11
ENDBRANCH   6  10
TORSDOF 2
ENDMDL
MODEL       23
REMARK 921   NORMALIZED FREE ENERGY PREDICTED BY IDOCK:   -6.08 KCAL/MOL
REMARK 922        TOTAL FREE ENERGY PREDICTED BY IDOCK:   -7.11 KCAL/MOL
REMARK 923 INTER-LIGAND FREE ENERGY PREDICTED BY IDOCK:   -6.33 KCAL/MOL
REMARK 924 INTRA-LIGAND FREE ENERGY PREDICTED BY IDOCK:   -0.77 KCAL/MOL
REMARK 927      BINDING AFFINITY PREDICTED BY RF-SCORE:    0.00 PKD
ROOT
HETATM    1  C   UNL     1     -10.836  13.437  64.464  1.00  0.00    -0.406 C  
HETATM    2  N   UNL     1     -10.649  14.809  64.869  1.00  0.00    -0.428 NA 
HETATM    3  C   UNL     1     -11.350  15.822  64.257  1.00  0.00    -0.179 A  
HETATM    4  N   UNL     1     -11.116  16.983  64.811  1.00  0.00    -0.906 NA 
HETATM    5  C   UNL     1     -10.235  16.713  65.842  1.00  0.00    -0.340 A  
HETATM    6  C   UNL     1      -9.900  15.355  65.891  1.00  0.00    -0.356 A  
HETATM    7  N   UNL     1      -9.865  17.803  66.726  1.00  0.00    -0.305 N  
HETATM    8  O   UNL     1     -10.421  18.895  66.554  1.00  0.00    -0.393 OA 
HETATM    9  O   UNL     1      -9.018  17.570  67.603  1.00  0.00    -0.228 OA 
ENDROOT
BRANCH   6  10
HETATM   10  S   UNL     1      -9.010  14.465  67.110  1.00  0.00    -0.242 SA 
BRANCH  10  11
HETATM   11  C   UNL     1     -10.136  13.852  68.334  1.00  0.00    -0.237 A  
HETATM   12  N   UNL     1     -10.709  12.635  68.195  1.00  0.00    -0.217 NA 
HETATM   13  C   UNL     1     -11.724  12.296  69.020  1.00  0.00    -0.324 A  
HETATM   14  N   UNL     1     -12.238  13.006  70.023  1.00  0.00    -0.276 NA 
HETATM   15  C   UNL     1     -11.674  14.218  70.145  1.00  0.00    -0.288 A  
HETATM   16  C   UNL     1     -10.663  14.679  69.316  1.00  0.00    -0.243 A  
HETATM   17  N   UNL     1     -10.488  15.984  69.709  1.00  0.00    -0.295 NA 
HETATM   18  H   UNL     1      -9.858  16.661  69.279  1.00  0.00     0.000 HD 
HETATM   19  C   UNL     1     -11.311  16.211  70.783  1.00  0.00    -0.368 A  
HETATM   20  N   UNL     1     -12.048  15.161  71.060  1.00  0.00    -0.304 NA 
ENDBRANCH  10  11
ENDBRANCH   6  10
TORSDOF 2
ENDMDL
MODEL       24
REMARK 921   NORMALIZED FREE ENERGY PREDICTED BY IDOCK:   -6.07 KCAL/MOL
REMARK 922        TOTAL FREE ENERGY PREDICTED BY IDOCK:   -7.10 KCAL/MOL
REMARK 923 INTER-LIGAND FREE ENERGY PREDICTED BY IDOCK:   -6.64 KCAL/MOL
REMARK 924 INTRA-LIGAND FREE ENERGY PREDICTED BY IDOCK:   -0.46 KCAL/MOL
REMARK 927      BINDING AFFINITY PREDICTED BY RF-SCORE:    0.00 PKD
ROOT
HETATM    1  C   UNL     1      -8.218  17.523  68.495  1.00  0.00    -0.278 C  
HETATM    2  N   UNL     1      -9.163  17.306  67.427  1.00  0.00    -0.229 NA 
HETATM    3  C   UNL     1      -9.750  18.371  66.783  1.00  0.00    -0.326 A  
HETATM    4  N   UNL     1     -10.508  17.985  65.791  1.00  0.00    -0.601 NA 
HETATM    5  C   UNL     1     -10.400  16.607  65.776  1.00  0.00    -0.321 A  
HETATM    6  C   UNL     1      -9.578  16.143  66.810  1.00  0.00    -0.240 A  
HETATM    7  N   UNL     1     -11.053  15.883  64.701  1.00  0.00    -0.440 N  
HETATM    8  O   UNL     1     -11.605  16.547  63.815  1.00  0.00    -1.109 OA 
HETATM    9  O   UNL     1     -11.012  14.643  64.735  1.00  0.00    -0.392 OA 
ENDROOT
BRANCH   6  10
HETATM   10  S   UNL     1      -8.948  14.535  67.103  1.00  0.00    -0.241 SA 
BRANCH  10  11
HETATM   11  C   UNL     1     -10.067  13.645  68.153  1.00  0.00    -0.245 A  
HETATM   12  N   UNL     1     -10.559  12.445  67.773  1.00  0.00    -0.213 NA 
HETATM   13  C   UNL     1     -11.572  11.904  68.485  1.00  0.00    -0.318 A  
HETATM   14  N   UNL     1     -12.156  12.387  69.581  1.00  0.00    -0.249 NA 
HETATM   15  C   UNL     1     -11.671  13.585  69.942  1.00  0.00    -0.271 A  
HETATM   16  C   UNL     1     -10.669  14.247  69.249  1.00  0.00    -0.172 A  
HETATM   17  N   UNL     1     -10.584  15.465  69.878  1.00  0.00    -0.288 NA 
HETATM   18  H   UNL     1      -9.987  16.244  69.603  1.00  0.00     0.000 HD 
HETATM   19  C   UNL     1     -11.448  15.445  70.945  1.00  0.00    -0.361 A  
HETATM   20  N   UNL     1     -12.126  14.322  70.999  1.00  0.00    -0.342 NA 
ENDBRANCH  10  11
ENDBRANCH   6  10
TORSDOF 2
ENDMDL
MODEL       25
REMARK 921   NORMALIZED FREE ENERGY PREDICTED BY IDOCK:   -6.05 KCAL/MOL
REMARK 922        TOTAL FREE ENERGY PREDICTED BY IDOCK:   -7.08 KCAL/MOL
REMARK 923 INTER-LIGAND FREE ENERGY PREDICTED BY IDOCK:   -6.38 KCAL/MOL
REMARK 924 INTRA-LIGAND FREE ENERGY PREDICTED BY IDOCK:   -0.70 KCAL/MOL
REMARK 927      BINDING AFFINITY PREDICTED BY RF-SCORE:    0.00 PKD
ROOT
HETATM    1  C   UNL     1     -10.668   8.674  69.596  1.00  0.00    -0.200 C  
HETATM    2  N   UNL     1     -11.338   9.905  69.938  1.00  0.00    -0.241 NA 
HETATM    3  C   UNL     1     -12.262   9.941  70.957  1.00  0.00    -0.353 A  
HETATM    4  N   UNL     1     -12.699  11.153  71.179  1.00  0.00    -0.405 NA 
HETATM    5  C   UNL     1     -12.017  11.947  70.275  1.00  0.00    -0.330 A  
HETATM    6  C   UNL     1     -11.169  11.189  69.460  1.00  0.00    -0.277 A  
HETATM    7  N   UNL     1     -12.209  13.384  70.350  1.00  0.00    -0.356 N  
HETATM    8  O   UNL     1     -12.912  13.822  71.269  1.00  0.00    -0.338 OA 
HETATM    9  O   UNL     1     -11.651  14.084  69.489  1.00  0.00    -0.263 OA 
ENDROOT
BRANCH   6  10
HETATM   10  S   UNL     1      -9.946  11.716  68.321  1.00  0.00    -0.204 SA 
BRANCH  10  11
HETATM   11  C   UNL     1     -10.556  11.522  66.668  1.00  0.00    -0.253 A  
HETATM   12  N   UNL     1      -9.981  10.640  65.820  1.00  0.00    -0.244 NA 
HETATM   13  C   UNL     1     -10.320  10.679  64.513  1.00  0.00    -0.282 A  
HETATM   14  N   UNL     1     -11.212  11.471  63.919  1.00  0.00    -0.388 NA 
HETATM   15  C   UNL     1     -11.768  12.352  64.765  1.00  0.00    -0.368 A  
HETATM   16  C   UNL     1     -11.449  12.428  66.112  1.00  0.00    -0.379 A  
HETATM   17  N   UNL     1     -12.140  13.531  66.551  1.00  0.00    -0.412 NA 
HETATM   18  H   UNL     1     -12.101  13.931  67.489  1.00  0.00     0.000 HD 
HETATM   19  C   UNL     1     -12.891  13.998  65.502  1.00  0.00    -0.419 A  
HETATM   20  N   UNL     1     -12.675  13.309  64.405  1.00  0.00    -0.667 NA 
ENDBRANCH  10  11
ENDBRANCH   6  10
TORSDOF 2
ENDMDL
MODEL       26
REMARK 921   NORMALIZED FREE ENERGY PREDICTED BY IDOCK:   -6.05 KCAL/MOL
REMARK 922        TOTAL FREE ENERGY PREDICTED BY IDOCK:   -7.07 KCAL/MOL
REMARK 923 INTER-LIGAND FREE ENERGY PREDICTED BY IDOCK:   -6.43 KCAL/MOL
REMARK 924 INTRA-LIGAND FREE ENERGY PREDICTED BY IDOCK:   -0.65 KCAL/MOL
REMARK 927      BINDING AFFINITY PREDICTED BY RF-SCORE:    0.00 PKD
ROOT
HETATM    1  C   UNL     1     -12.292  14.327  69.876  1.00  0.00    -0.324 C  
HETATM    2  N   UNL     1     -11.496  15.077  68.935  1.00  0.00    -0.297 NA 
HETATM    3  C   UNL     1     -10.458  15.869  69.369  1.00  0.00    -0.265 A  
HETATM    4  N   UNL     1      -9.799  16.401  68.373  1.00  0.00    -0.226 NA 
HETATM    5  C   UNL     1     -10.424  15.922  67.238  1.00  0.00    -0.310 A  
HETATM    6  C   UNL     1     -11.514  15.103  67.555  1.00  0.00    -0.298 A  
HETATM    7  N   UNL     1      -9.845  16.254  65.949  1.00  0.00    -0.333 N  
HETATM    8  O   UNL     1      -8.779  16.882  65.943  1.00  0.00    -0.516 OA 
HETATM    9  O   UNL     1     -10.452  15.881  64.932  1.00  0.00    -0.542 OA 
ENDROOT
BRANCH   6  10
HETATM   10  S   UNL     1     -12.494  14.090  66.515  1.00  0.00    -0.165 SA 
BRANCH  10  11
HETATM   11  C   UNL     1     -11.742  12.491  66.368  1.00  0.00    -0.397 A  
HETATM   12  N   UNL     1     -11.663  11.667  67.437  1.00  0.00    -0.606 NA 
HETATM   13  C   UNL     1     -10.891  10.561  67.349  1.00  0.00    -0.291 A  
HETATM   14  N   UNL     1     -10.197  10.125  66.298  1.00  0.00    -0.236 NA 
HETATM   15  C   UNL     1     -10.270  10.957  65.247  1.00  0.00    -0.288 A  
HETATM   16  C   UNL     1     -10.991  12.140  65.255  1.00  0.00    -0.304 A  
HETATM   17  N   UNL     1     -10.683  12.720  64.048  1.00  0.00    -0.413 NA 
HETATM   18  H   UNL     1     -10.990  13.638  63.726  1.00  0.00     0.000 HD 
HETATM   19  C   UNL     1      -9.888  11.842  63.354  1.00  0.00    -0.348 A  
HETATM   20  N   UNL     1      -9.614  10.771  64.063  1.00  0.00    -0.264 NA 
ENDBRANCH  10  11
ENDBRANCH   6  10
TORSDOF 2
ENDMDL
MODEL       27
REMARK 921   NORMALIZED FREE ENERGY PREDICTED BY IDOCK:   -6.04 KCAL/MOL
REMARK 922        TOTAL FREE ENERGY PREDICTED BY IDOCK:   -7.06 KCAL/MOL
REMARK 923 INTER-LIGAND FREE ENERGY PREDICTED BY IDOCK:   -6.33 KCAL/MOL
REMARK 924 INTRA-LIGAND FREE ENERGY PREDICTED BY IDOCK:   -0.73 KCAL/MOL
REMARK 927      BINDING AFFINITY PREDICTED BY RF-SCORE:    0.00 PKD
ROOT
HETATM    1  C   UNL     1     -10.098  12.032  63.275  1.00  0.00    -0.345 C  
HETATM    2  N   UNL     1     -10.323  11.471  64.585  1.00  0.00    -0.277 NA 
HETATM    3  C   UNL     1      -9.543  10.436  65.047  1.00  0.00    -0.280 A  
HETATM    4  N   UNL     1      -9.834  10.117  66.281  1.00  0.00    -0.216 NA 
HETATM    5  C   UNL     1     -10.839  10.994  66.647  1.00  0.00    -0.225 A  
HETATM    6  C   UNL     1     -11.188  11.846  65.593  1.00  0.00    -0.306 A  
HETATM    7  N   UNL     1     -11.306  10.962  68.021  1.00  0.00    -0.310 N  
HETATM    8  O   UNL     1     -10.725  10.204  68.807  1.00  0.00    -0.201 OA 
HETATM    9  O   UNL     1     -12.257  11.701  68.322  1.00  0.00    -0.525 OA 
ENDROOT
BRANCH   6  10
HETATM   10  S   UNL     1     -12.230  13.255  65.590  1.00  0.00    -0.471 SA 
BRANCH  10  11
HETATM   11  C   UNL     1     -11.340  14.648  66.230  1.00  0.00    -0.347 A  
HETATM   12  N   UNL     1     -10.298  15.173  65.547  1.00  0.00    -0.343 NA 
HETATM   13  C   UNL     1      -9.508  16.080  66.162  1.00  0.00    -0.336 A  
HETATM   14  N   UNL     1      -9.638  16.585  67.389  1.00  0.00    -0.236 NA 
HETATM   15  C   UNL     1     -10.666  16.049  68.064  1.00  0.00    -0.309 A  
HETATM   16  C   UNL     1     -11.502  15.075  67.541  1.00  0.00    -0.328 A  
HETATM   17  N   UNL     1     -12.308  14.732  68.599  1.00  0.00    -0.591 NA 
HETATM   18  H   UNL     1     -13.016  13.998  68.603  1.00  0.00     0.000 HD 
HETATM   19  C   UNL     1     -11.990  15.555  69.651  1.00  0.00    -0.359 A  
HETATM   20  N   UNL     1     -10.990  16.354  69.356  1.00  0.00    -0.327 NA 
ENDBRANCH  10  11
ENDBRANCH   6  10
TORSDOF 2
ENDMDL
MODEL       28
REMARK 921   NORMALIZED FREE ENERGY PREDICTED BY IDOCK:   -6.04 KCAL/MOL
REMARK 922        TOTAL FREE ENERGY PREDICTED BY IDOCK:   -7.06 KCAL/MOL
REMARK 923 INTER-LIGAND FREE ENERGY PREDICTED BY IDOCK:   -6.61 KCAL/MOL
REMARK 924 INTRA-LIGAND FREE ENERGY PREDICTED BY IDOCK:   -0.45 KCAL/MOL
REMARK 927      BINDING AFFINITY PREDICTED BY RF-SCORE:    0.00 PKD
ROOT
HETATM    1  C   UNL     1      -8.393  15.187  69.014  1.00  0.00    -0.209 C  
HETATM    2  N   UNL     1      -8.859  14.161  68.113  1.00  0.00    -0.176 NA 
HETATM    3  C   UNL     1      -7.975  13.277  67.539  1.00  0.00    -0.184 A  
HETATM    4  N   UNL     1      -8.586  12.369  66.824  1.00  0.00    -0.168 NA 
HETATM    5  C   UNL     1      -9.931  12.664  66.949  1.00  0.00    -0.230 A  
HETATM    6  C   UNL     1     -10.138  13.803  67.736  1.00  0.00    -0.245 A  
HETATM    7  N   UNL     1     -10.887  11.754  66.346  1.00  0.00    -0.271 N  
HETATM    8  O   UNL     1     -10.448  10.724  65.820  1.00  0.00    -0.242 OA 
HETATM    9  O   UNL     1     -12.089  12.064  66.400  1.00  0.00    -0.610 OA 
ENDROOT
BRANCH   6  10
HETATM   10  S   UNL     1     -11.628  14.467  68.373  1.00  0.00    -0.338 SA 
BRANCH  10  11
HETATM   11  C   UNL     1     -12.091  13.583  69.838  1.00  0.00    -0.341 A  
HETATM   12  N   UNL     1     -11.991  12.236  69.889  1.00  0.00    -0.327 NA 
HETATM   13  C   UNL     1     -12.558  11.581  70.926  1.00  0.00    -0.341 A  
HETATM   14  N   UNL     1     -13.197  12.099  71.974  1.00  0.00    -0.471 NA 
HETATM   15  C   UNL     1     -13.304  13.436  71.908  1.00  0.00    -0.451 A  
HETATM   16  C   UNL     1     -12.803  14.193  70.861  1.00  0.00    -0.334 A  
HETATM   17  N   UNL     1     -13.246  15.464  71.135  1.00  0.00    -0.494 NA 
HETATM   18  H   UNL     1     -13.115  16.287  70.547  1.00  0.00     0.000 HD 
HETATM   19  C   UNL     1     -13.894  15.429  72.344  1.00  0.00    -0.562 A  
HETATM   20  N   UNL     1     -13.954  14.209  72.828  1.00  0.00    -0.619 NA 
ENDBRANCH  10  11
ENDBRANCH   6  10
TORSDOF 2
ENDMDL
MODEL       29
REMARK 921   NORMALIZED FREE ENERGY PREDICTED BY IDOCK:   -6.02 KCAL/MOL
REMARK 922        TOTAL FREE ENERGY PREDICTED BY IDOCK:   -7.04 KCAL/MOL
REMARK 923 INTER-LIGAND FREE ENERGY PREDICTED BY IDOCK:   -6.49 KCAL/MOL
REMARK 924 INTRA-LIGAND FREE ENERGY PREDICTED BY IDOCK:   -0.55 KCAL/MOL
REMARK 927      BINDING AFFINITY PREDICTED BY RF-SCORE:    0.00 PKD
ROOT
HETATM    1  C   UNL     1     -10.808  16.660  69.141  1.00  0.00    -0.315 C  
HETATM    2  N   UNL     1     -11.101  15.251  69.234  1.00  0.00    -0.257 NA 
HETATM    3  C   UNL     1     -12.064  14.790  70.102  1.00  0.00    -0.327 A  
HETATM    4  N   UNL     1     -12.252  13.502  69.987  1.00  0.00    -0.329 NA 
HETATM    5  C   UNL     1     -11.384  13.105  68.986  1.00  0.00    -0.282 A  
HETATM    6  C   UNL     1     -10.625  14.179  68.506  1.00  0.00    -0.252 A  
HETATM    7  N   UNL     1     -11.437  11.723  68.546  1.00  0.00    -0.269 N  
HETATM    8  O   UNL     1     -12.310  10.997  69.037  1.00  0.00    -0.481 OA 
HETATM    9  O   UNL     1     -10.605  11.357  67.700  1.00  0.00    -0.187 OA 
ENDROOT
BRANCH   6  10
HETATM   10  S   UNL     1      -9.555  14.262  67.121  1.00  0.00    -0.254 SA 
BRANCH  10  11
HETATM   11  C   UNL     1     -10.491  14.018  65.636  1.00  0.00    -0.318 A  
HETATM   12  N   UNL     1     -11.573  14.785  65.370  1.00  0.00    -0.338 NA 
HETATM   13  C   UNL     1     -12.387  14.428  64.353  1.00  0.00    -0.403 A  
HETATM   14  N   UNL     1     -12.250  13.405  63.510  1.00  0.00    -0.699 NA 
HETATM   15  C   UNL     1     -11.182  12.642  63.790  1.00  0.00    -0.463 A  
HETATM   16  C   UNL     1     -10.316  12.893  64.843  1.00  0.00    -0.308 A  
HETATM   17  N   UNL     1      -9.469  11.811  64.836  1.00  0.00    -0.423 NA 
HETATM   18  H   UNL     1      -8.728  11.622  65.511  1.00  0.00     0.000 HD 
HETATM   19  C   UNL     1      -9.798  11.030  63.756  1.00  0.00    -0.330 A  
HETATM   20  N   UNL     1     -10.840  11.506  63.113  1.00  0.00    -0.252 NA 
ENDBRANCH  10  11
ENDBRANCH   6  10
TORSDOF 2
ENDMDL
MODEL       30
REMARK 921   NORMALIZED FREE ENERGY PREDICTED BY IDOCK:   -6.02 KCAL/MOL
REMARK 922        TOTAL FREE ENERGY PREDICTED BY IDOCK:   -7.04 KCAL/MOL
REMARK 923 INTER-LIGAND FREE ENERGY PREDICTED BY IDOCK:   -6.98 KCAL/MOL
REMARK 924 INTRA-LIGAND FREE ENERGY PREDICTED BY IDOCK:   -0.06 KCAL/MOL
REMARK 927      BINDING AFFINITY PREDICTED BY RF-SCORE:    0.00 PKD
ROOT
HETATM    1  C   UNL     1     -11.463  15.400  64.611  1.00  0.00    -0.337 C  
HETATM    2  N   UNL     1     -11.771  14.351  65.552  1.00  0.00    -0.347 NA 
HETATM    3  C   UNL     1     -12.112  13.093  65.113  1.00  0.00    -0.421 A  
HETATM    4  N   UNL     1     -12.271  12.255  66.104  1.00  0.00    -0.585 NA 
HETATM    5  C   UNL     1     -12.006  12.996  67.241  1.00  0.00    -0.321 A  
HETATM    6  C   UNL     1     -11.710  14.328  66.931  1.00  0.00    -0.408 A  
HETATM    7  N   UNL     1     -11.994  12.304  68.517  1.00  0.00    -0.290 N  
HETATM    8  O   UNL     1     -12.145  11.077  68.506  1.00  0.00    -0.573 OA 
HETATM    9  O   UNL     1     -11.827  12.989  69.540  1.00  0.00    -0.305 OA 
ENDROOT
BRANCH   6  10
HETATM   10  S   UNL     1     -11.103  15.609  67.961  1.00  0.00    -0.331 SA 
BRANCH  10  11
HETATM   11  C   UNL     1      -9.810  16.481  67.119  1.00  0.00    -0.255 A  
HETATM   12  N   UNL     1      -8.653  15.859  66.801  1.00  0.00    -0.238 NA 
HETATM   13  C   UNL     1      -7.613  16.604  66.367  1.00  0.00    -0.262 A  
HETATM   14  N   UNL     1      -7.574  17.920  66.160  1.00  0.00    -0.410 NA 
HETATM   15  C   UNL     1      -8.722  18.531  66.492  1.00  0.00    -0.286 A  
HETATM   16  C   UNL     1      -9.828  17.864  66.994  1.00  0.00    -0.314 A  
HETATM   17  N   UNL     1     -10.704  18.873  67.311  1.00  0.00    -0.461 NA 
HETATM   18  H   UNL     1     -11.612  18.763  67.762  1.00  0.00     0.000 HD 
HETATM   19  C   UNL     1     -10.138  20.058  66.912  1.00  0.00    -0.467 A  
HETATM   20  N   UNL     1      -8.932  19.879  66.423  1.00  0.00    -0.366 NA 
ENDBRANCH  10  11
ENDBRANCH   6  10
TORSDOF 2
ENDMDL
MODEL       31
REMARK 921   NORMALIZED FREE ENERGY PREDICTED BY IDOCK:   -5.98 KCAL/MOL
REMARK 922        TOTAL FREE ENERGY PREDICTED BY IDOCK:   -7.00 KCAL/MOL
REMARK 923 INTER-LIGAND FREE ENERGY PREDICTED BY IDOCK:   -6.62 KCAL/MOL
REMARK 924 INTRA-LIGAND FREE ENERGY PREDICTED BY IDOCK:   -0.39 KCAL/MOL
REMARK 927      BINDING AFFINITY PREDICTED BY RF-SCORE:    0.00 PKD
ROOT
HETATM    1  C   UNL     1      -8.938  12.943  67.716  1.00  0.00    -0.191 C  
HETATM    2  N   UNL     1      -9.722  12.942  66.504  1.00  0.00    -0.253 NA 
HETATM    3  C   UNL     1      -9.792  11.816  65.716  1.00  0.00    -0.240 A  
HETATM    4  N   UNL     1     -10.613  11.973  64.711  1.00  0.00    -0.283 NA 
HETATM    5  C   UNL     1     -11.115  13.253  64.859  1.00  0.00    -0.328 A  
HETATM    6  C   UNL     1     -10.555  13.901  65.967  1.00  0.00    -0.293 A  
HETATM    7  N   UNL     1     -12.152  13.689  63.943  1.00  0.00    -0.455 N  
HETATM    8  O   UNL     1     -12.584  12.863  63.129  1.00  0.00    -0.636 OA 
HETATM    9  O   UNL     1     -12.545  14.864  64.036  1.00  0.00    -0.832 OA 
ENDROOT
BRANCH   6  10
HETATM   10  S   UNL     1     -10.995  15.425  66.712  1.00  0.00    -0.238 SA 
BRANCH  10  11
HETATM   11  C   UNL     1      -9.680  16.593  66.488  1.00  0.00    -0.274 A  
HETATM   12  N   UNL     1      -8.435  16.175  66.166  1.00  0.00    -0.317 NA 
HETATM   13  C   UNL     1      -7.417  17.061  66.224  1.00  0.00    -0.283 A  
HETATM   14  N   UNL     1      -7.472  18.357  66.530  1.00  0.00    -0.226 NA 
HETATM   15  C   UNL     1      -8.708  18.759  66.862  1.00  0.00    -0.293 A  
HETATM   16  C   UNL     1      -9.809  17.917  66.884  1.00  0.00    -0.321 A  
HETATM   17  N   UNL     1     -10.812  18.702  67.397  1.00  0.00    -0.404 NA 
HETATM   18  H   UNL     1     -11.762  18.399  67.612  1.00  0.00     0.000 HD 
HETATM   19  C   UNL     1     -10.307  19.966  67.569  1.00  0.00    -0.417 A  
HETATM   20  N   UNL     1      -9.032  20.025  67.263  1.00  0.00    -0.333 NA 
ENDBRANCH  10  11
ENDBRANCH   6  10
TORSDOF 2
ENDMDL
MODEL       32
REMARK 921   NORMALIZED FREE ENERGY PREDICTED BY IDOCK:   -5.98 KCAL/MOL
REMARK 922        TOTAL FREE ENERGY PREDICTED BY IDOCK:   -7.00 KCAL/MOL
REMARK 923 INTER-LIGAND FREE ENERGY PREDICTED BY IDOCK:   -6.55 KCAL/MOL
REMARK 924 INTRA-LIGAND FREE ENERGY PREDICTED BY IDOCK:   -0.45 KCAL/MOL
REMARK 927      BINDING AFFINITY PREDICTED BY RF-SCORE:    0.00 PKD
ROOT
HETATM    1  C   UNL     1      -8.779  13.528  68.019  1.00  0.00    -0.181 C  
HETATM    2  N   UNL     1      -9.523  14.319  67.068  1.00  0.00    -0.244 NA 
HETATM    3  C   UNL     1      -8.970  15.450  66.513  1.00  0.00    -0.309 A  
HETATM    4  N   UNL     1      -9.752  15.985  65.613  1.00  0.00    -0.432 NA 
HETATM    5  C   UNL     1     -10.858  15.157  65.565  1.00  0.00    -0.364 A  
HETATM    6  C   UNL     1     -10.757  14.109  66.488  1.00  0.00    -0.289 A  
HETATM    7  N   UNL     1     -11.874  15.431  64.565  1.00  0.00    -0.332 N  
HETATM    8  O   UNL     1     -11.654  16.344  63.760  1.00  0.00    -1.055 OA 
HETATM    9  O   UNL     1     -12.897  14.728  64.577  1.00  0.00    -0.525 OA 
ENDROOT
BRANCH   6  10
HETATM   10  S   UNL     1     -11.763  12.688  66.682  1.00  0.00    -0.381 SA 
BRANCH  10  11
HETATM   11  C   UNL     1     -10.865  11.252  66.157  1.00  0.00    -0.222 A  
HETATM   12  N   UNL     1     -10.560  10.271  67.036  1.00  0.00    -0.251 NA 
HETATM   13  C   UNL     1      -9.689   9.309  66.659  1.00  0.00    -0.219 A  
HETATM   14  N   UNL     1      -9.092   9.159  65.477  1.00  0.00    -0.211 NA 
HETATM   15  C   UNL     1      -9.390  10.145  64.616  1.00  0.00    -0.277 A  
HETATM   16  C   UNL     1     -10.229  11.203  64.924  1.00  0.00    -0.303 A  
HETATM   17  N   UNL     1     -10.143  12.021  63.823  1.00  0.00    -0.437 NA 
HETATM   18  H   UNL     1     -10.588  12.932  63.715  1.00  0.00     0.000 HD 
HETATM   19  C   UNL     1      -9.353  11.390  62.896  1.00  0.00    -0.323 A  
HETATM   20  N   UNL     1      -8.874  10.257  63.356  1.00  0.00    -0.199 NA 
ENDBRANCH  10  11
ENDBRANCH   6  10
TORSDOF 2
ENDMDL
MODEL       33
REMARK 921   NORMALIZED FREE ENERGY PREDICTED BY IDOCK:   -5.98 KCAL/MOL
REMARK 922        TOTAL FREE ENERGY PREDICTED BY IDOCK:   -7.00 KCAL/MOL
REMARK 923 INTER-LIGAND FREE ENERGY PREDICTED BY IDOCK:   -6.56 KCAL/MOL
REMARK 924 INTRA-LIGAND FREE ENERGY PREDICTED BY IDOCK:   -0.44 KCAL/MOL
REMARK 927      BINDING AFFINITY PREDICTED BY RF-SCORE:    0.00 PKD
ROOT
HETATM    1  C   UNL     1      -9.024  15.662  68.256  1.00  0.00    -0.181 C  
HETATM    2  N   UNL     1      -9.874  15.487  67.104  1.00  0.00    -0.233 NA 
HETATM    3  C   UNL     1      -9.439  15.849  65.849  1.00  0.00    -0.337 A  
HETATM    4  N   UNL     1     -10.307  15.538  64.922  1.00  0.00    -0.402 NA 
HETATM    5  C   UNL     1     -11.348  14.931  65.599  1.00  0.00    -0.325 A  
HETATM    6  C   UNL     1     -11.119  14.903  66.980  1.00  0.00    -0.338 A  
HETATM    7  N   UNL     1     -12.433  14.367  64.817  1.00  0.00    -0.413 N  
HETATM    8  O   UNL     1     -12.327  14.394  63.585  1.00  0.00    -0.722 OA 
HETATM    9  O   UNL     1     -13.399  13.889  65.435  1.00  0.00    -0.710 OA 
ENDROOT
BRANCH   6  10
HETATM   10  S   UNL     1     -12.003  14.074  68.245  1.00  0.00    -0.298 SA 
BRANCH  10  11
HETATM   11  C   UNL     1     -11.339  12.444  68.458  1.00  0.00    -0.293 A  
HETATM   12  N   UNL     1     -10.702  11.822  67.441  1.00  0.00    -0.226 NA 
HETATM   13  C   UNL     1     -10.411  10.508  67.565  1.00  0.00    -0.223 A  
HETATM   14  N   UNL     1     -10.635   9.711  68.609  1.00  0.00    -0.216 NA 
HETATM   15  C   UNL     1     -11.280  10.334  69.607  1.00  0.00    -0.269 A  
HETATM   16  C   UNL     1     -11.669  11.663  69.557  1.00  0.00    -0.344 A  
HETATM   17  N   UNL     1     -12.396  11.836  70.710  1.00  0.00    -0.374 NA 
HETATM   18  H   UNL     1     -12.892  12.683  70.987  1.00  0.00     0.000 HD 
HETATM   19  C   UNL     1     -12.335  10.664  71.422  1.00  0.00    -0.350 A  
HETATM   20  N   UNL     1     -11.675   9.734  70.770  1.00  0.00    -0.306 NA 
ENDBRANCH  10  11
ENDBRANCH   6  10
TORSDOF 2
ENDMDL
MODEL       34
REMARK 921   NORMALIZED FREE ENERGY PREDICTED BY IDOCK:   -5.93 KCAL/MOL
REMARK 922        TOTAL FREE ENERGY PREDICTED BY IDOCK:   -6.94 KCAL/MOL
REMARK 923 INTER-LIGAND FREE ENERGY PREDICTED BY IDOCK:   -6.58 KCAL/MOL
REMARK 924 INTRA-LIGAND FREE ENERGY PREDICTED BY IDOCK:   -0.36 KCAL/MOL
REMARK 927      BINDING AFFINITY PREDICTED BY RF-SCORE:    0.00 PKD
ROOT
HETATM    1  C   UNL     1      -8.464  12.131  68.457  1.00  0.00    -0.083 C  
HETATM    2  N   UNL     1      -9.503  12.240  67.462  1.00  0.00    -0.178 NA 
HETATM    3  C   UNL     1      -9.811  11.171  66.651  1.00  0.00    -0.199 A  
HETATM    4  N   UNL     1     -10.832  11.426  65.875  1.00  0.00    -0.261 NA 
HETATM    5  C   UNL     1     -11.217  12.712  66.204  1.00  0.00    -0.309 A  
HETATM    6  C   UNL     1     -10.385  13.264  67.185  1.00  0.00    -0.248 A  
HETATM    7  N   UNL     1     -12.412  13.247  65.578  1.00  0.00    -0.476 N  
HETATM    8  O   UNL     1     -13.062  12.493  64.843  1.00  0.00    -0.833 OA 
HETATM    9  O   UNL     1     -12.711  14.427  65.824  1.00  0.00    -0.396 OA 
ENDROOT
BRANCH   6  10
HETATM   10  S   UNL     1     -10.561  14.752  68.093  1.00  0.00    -0.245 SA 
BRANCH  10  11
HETATM   11  C   UNL     1     -11.770  14.526  69.370  1.00  0.00    -0.318 A  
HETATM   12  N   UNL     1     -12.353  15.592  69.962  1.00  0.00    -0.360 NA 
HETATM   13  C   UNL     1     -13.094  15.392  71.074  1.00  0.00    -0.501 A  
HETATM   14  N   UNL     1     -13.379  14.237  71.676  1.00  0.00    -0.345 NA 
HETATM   15  C   UNL     1     -12.785  13.187  71.089  1.00  0.00    -0.300 A  
HETATM   16  C   UNL     1     -11.964  13.293  69.977  1.00  0.00    -0.329 A  
HETATM   17  N   UNL     1     -11.480  12.019  69.804  1.00  0.00    -0.476 NA 
HETATM   18  H   UNL     1     -10.795  11.725  69.108  1.00  0.00     0.000 HD 
HETATM   19  C   UNL     1     -12.085  11.212  70.735  1.00  0.00    -0.357 A  
HETATM   20  N   UNL     1     -12.871  11.897  71.533  1.00  0.00    -0.367 NA 
ENDBRANCH  10  11
ENDBRANCH   6  10
TORSDOF 2
ENDMDL
MODEL       35
REMARK 921   NORMALIZED FREE ENERGY PREDICTED BY IDOCK:   -5.92 KCAL/MOL
REMARK 922        TOTAL FREE ENERGY PREDICTED BY IDOCK:   -6.93 KCAL/MOL
REMARK 923 INTER-LIGAND FREE ENERGY PREDICTED BY IDOCK:   -7.09 KCAL/MOL
REMARK 924 INTRA-LIGAND FREE ENERGY PREDICTED BY IDOCK:    0.15 KCAL/MOL
REMARK 927      BINDING AFFINITY PREDICTED BY RF-SCORE:    0.00 PKD
ROOT
HETATM    1  C   UNL     1      -9.940  13.086  68.329  1.00  0.00    -0.235 C  
HETATM    2  N   UNL     1     -11.046  13.239  69.243  1.00  0.00    -0.200 NA 
HETATM    3  C   UNL     1     -11.724  12.138  69.713  1.00  0.00    -0.310 A  
HETATM    4  N   UNL     1     -12.634  12.464  70.594  1.00  0.00    -0.212 NA 
HETATM    5  C   UNL     1     -12.534  13.837  70.716  1.00  0.00    -0.370 A  
HETATM    6  C   UNL     1     -11.559  14.362  69.860  1.00  0.00    -0.284 A  
HETATM    7  N   UNL     1     -13.354  14.494  71.717  1.00  0.00    -0.340 N  
HETATM    8  O   UNL     1     -14.040  13.778  72.458  1.00  0.00    -0.686 OA 
HETATM    9  O   UNL     1     -13.313  15.734  71.771  1.00  0.00    -0.481 OA 
ENDROOT
BRANCH   6  10
HETATM   10  S   UNL     1     -10.896  15.981  69.778  1.00  0.00    -0.360 SA 
BRANCH  10  11
HETATM   11  C   UNL     1     -10.916  16.543  68.096  1.00  0.00    -0.336 A  
HETATM   12  N   UNL     1     -10.932  15.658  67.075  1.00  0.00    -0.301 NA 
HETATM   13  C   UNL     1     -10.721  16.111  65.819  1.00  0.00    -0.280 A  
HETATM   14  N   UNL     1     -10.531  17.368  65.421  1.00  0.00    -0.651 NA 
HETATM   15  C   UNL     1     -10.503  18.238  66.442  1.00  0.00    -0.366 A  
HETATM   16  C   UNL     1     -10.657  17.867  67.769  1.00  0.00    -0.389 A  
HETATM   17  N   UNL     1     -10.431  19.030  68.463  1.00  0.00    -0.429 NA 
HETATM   18  H   UNL     1     -10.404  19.130  69.478  1.00  0.00     0.000 HD 
HETATM   19  C   UNL     1     -10.249  20.035  67.546  1.00  0.00    -0.411 A  
HETATM   20  N   UNL     1     -10.276  19.579  66.315  1.00  0.00    -0.449 NA 
ENDBRANCH  10  11
ENDBRANCH   6  10
TORSDOF 2
ENDMDL
MODEL       36
REMARK 921   NORMALIZED FREE ENERGY PREDICTED BY IDOCK:   -5.92 KCAL/MOL
REMARK 922        TOTAL FREE ENERGY PREDICTED BY IDOCK:   -6.92 KCAL/MOL
REMARK 923 INTER-LIGAND FREE ENERGY PREDICTED BY IDOCK:   -6.32 KCAL/MOL
REMARK 924 INTRA-LIGAND FREE ENERGY PREDICTED BY IDOCK:   -0.60 KCAL/MOL
REMARK 927      BINDING AFFINITY PREDICTED BY RF-SCORE:    0.00 PKD
ROOT
HETATM    1  C   UNL     1     -11.072  14.122  67.693  1.00  0.00    -0.282 C  
HETATM    2  N   UNL     1     -11.649  14.040  69.013  1.00  0.00    -0.283 NA 
HETATM    3  C   UNL     1     -11.998  15.182  69.698  1.00  0.00    -0.329 A  
HETATM    4  N   UNL     1     -12.584  14.910  70.835  1.00  0.00    -0.316 NA 
HETATM    5  C   UNL     1     -12.634  13.529  70.887  1.00  0.00    -0.337 A  
HETATM    6  C   UNL     1     -12.032  12.948  69.765  1.00  0.00    -0.296 A  
HETATM    7  N   UNL     1     -13.337  12.914  71.998  1.00  0.00    -0.500 N  
HETATM    8  O   UNL     1     -13.918  13.662  72.795  1.00  0.00    -0.725 OA 
HETATM    9  O   UNL     1     -13.315  11.675  72.078  1.00  0.00    -0.481 OA 
ENDROOT
BRANCH   6  10
HETATM   10  S   UNL     1     -12.016  11.276  69.243  1.00  0.00    -0.317 SA 
BRANCH  10  11
HETATM   11  C   UNL     1     -10.691  10.418  70.049  1.00  0.00    -0.265 A  
HETATM   12  N   UNL     1      -9.443  10.436  69.530  1.00  0.00    -0.182 NA 
HETATM   13  C   UNL     1      -8.515   9.595  70.039  1.00  0.00    -0.204 A  
HETATM   14  N   UNL     1      -8.649   8.740  71.052  1.00  0.00    -0.175 NA 
HETATM   15  C   UNL     1      -9.895   8.719  71.552  1.00  0.00    -0.301 A  
HETATM   16  C   UNL     1     -10.929   9.503  71.066  1.00  0.00    -0.353 A  
HETATM   17  N   UNL     1     -12.028   9.069  71.767  1.00  0.00    -0.343 NA 
HETATM   18  H   UNL     1     -12.989   9.383  71.634  1.00  0.00     0.000 HD 
HETATM   19  C   UNL     1     -11.599   8.137  72.679  1.00  0.00    -0.375 A  
HETATM   20  N   UNL     1     -10.313   7.898  72.561  1.00  0.00    -0.260 NA 
ENDBRANCH  10  11
ENDBRANCH   6  10
TORSDOF 2
ENDMDL
MODEL       37
REMARK 921   NORMALIZED FREE ENERGY PREDICTED BY IDOCK:   -5.90 KCAL/MOL
REMARK 922        TOTAL FREE ENERGY PREDICTED BY IDOCK:   -6.90 KCAL/MOL
REMARK 923 INTER-LIGAND FREE ENERGY PREDICTED BY IDOCK:   -6.49 KCAL/MOL
REMARK 924 INTRA-LIGAND FREE ENERGY PREDICTED BY IDOCK:   -0.42 KCAL/MOL
REMARK 927      BINDING AFFINITY PREDICTED BY RF-SCORE:    0.00 PKD
ROOT
HETATM    1  C   UNL     1     -11.685  11.360  68.805  1.00  0.00    -0.339 C  
HETATM    2  N   UNL     1     -11.805  12.670  69.396  1.00  0.00    -0.305 NA 
HETATM    3  C   UNL     1     -12.620  12.877  70.485  1.00  0.00    -0.129 A  
HETATM    4  N   UNL     1     -12.535  14.102  70.934  1.00  0.00    -0.343 NA 
HETATM    5  C   UNL     1     -11.611  14.718  70.111  1.00  0.00    -0.290 A  
HETATM    6  C   UNL     1     -11.148  13.852  69.115  1.00  0.00    -0.245 A  
HETATM    7  N   UNL     1     -11.215  16.078  70.430  1.00  0.00    -0.368 N  
HETATM    8  O   UNL     1     -11.669  16.581  71.465  1.00  0.00    -0.395 OA 
HETATM    9  O   UNL     1     -10.441  16.650  69.645  1.00  0.00    -0.296 OA 
ENDROOT
BRANCH   6  10
HETATM   10  S   UNL     1      -9.838  14.060  67.970  1.00  0.00    -0.234 SA 
BRANCH  10  11
HETATM   11  C   UNL     1     -10.488  14.647  66.429  1.00  0.00    -0.295 A  
HETATM   12  N   UNL     1     -10.424  15.960  66.111  1.00  0.00    -0.315 NA 
HETATM   13  C   UNL     1     -11.123  16.404  65.043  1.00  0.00    -0.208 A  
HETATM   14  N   UNL     1     -11.867  15.694  64.195  1.00  0.00    -0.456 NA 
HETATM   15  C   UNL     1     -11.936  14.395  64.527  1.00  0.00    -0.472 A  
HETATM   16  C   UNL     1     -11.299  13.852  65.632  1.00  0.00    -0.309 A  
HETATM   17  N   UNL     1     -11.743  12.552  65.659  1.00  0.00    -0.403 NA 
HETATM   18  H   UNL     1     -11.526  11.858  66.374  1.00  0.00     0.000 HD 
HETATM   19  C   UNL     1     -12.528  12.355  64.551  1.00  0.00    -0.435 A  
HETATM   20  N   UNL     1     -12.671  13.460  63.855  1.00  0.00    -0.650 NA 
ENDBRANCH  10  11
ENDBRANCH   6  10
TORSDOF 2
ENDMDL
MODEL       38
REMARK 921   NORMALIZED FREE ENERGY PREDICTED BY IDOCK:   -5.88 KCAL/MOL
REMARK 922        TOTAL FREE ENERGY PREDICTED BY IDOCK:   -6.88 KCAL/MOL
REMARK 923 INTER-LIGAND FREE ENERGY PREDICTED BY IDOCK:   -6.47 KCAL/MOL
REMARK 924 INTRA-LIGAND FREE ENERGY PREDICTED BY IDOCK:   -0.41 KCAL/MOL
REMARK 927      BINDING AFFINITY PREDICTED BY RF-SCORE:    0.00 PKD
ROOT
HETATM    1  C   UNL     1      -9.156  15.239  69.566  1.00  0.00    -0.187 C  
HETATM    2  N   UNL     1     -10.105  14.779  68.582  1.00  0.00    -0.231 NA 
HETATM    3  C   UNL     1     -11.239  14.099  68.964  1.00  0.00    -0.271 A  
HETATM    4  N   UNL     1     -12.020  13.840  67.949  1.00  0.00    -0.372 NA 
HETATM    5  C   UNL     1     -11.375  14.389  66.856  1.00  0.00    -0.348 A  
HETATM    6  C   UNL     1     -10.153  14.968  67.215  1.00  0.00    -0.235 A  
HETATM    7  N   UNL     1     -12.059  14.359  65.575  1.00  0.00    -0.372 N  
HETATM    8  O   UNL     1     -13.212  13.912  65.550  1.00  0.00    -0.698 OA 
HETATM    9  O   UNL     1     -11.444  14.788  64.585  1.00  0.00    -0.394 OA 
ENDROOT
BRANCH   6  10
HETATM   10  S   UNL     1      -9.068  15.968  66.271  1.00  0.00    -0.360 SA 
BRANCH  10  11
HETATM   11  C   UNL     1      -9.320  17.672  66.689  1.00  0.00    -0.278 A  
HETATM   12  N   UNL     1     -10.193  18.431  65.988  1.00  0.00    -0.557 NA 
HETATM   13  C   UNL     1     -10.194  19.768  66.185  1.00  0.00    -0.516 A  
HETATM   14  N   UNL     1      -9.453  20.474  67.038  1.00  0.00    -0.400 NA 
HETATM   15  C   UNL     1      -8.581  19.715  67.719  1.00  0.00    -0.322 A  
HETATM   16  C   UNL     1      -8.465  18.343  67.552  1.00  0.00    -0.253 A  
HETATM   17  N   UNL     1      -7.385  18.009  68.331  1.00  0.00    -0.252 NA 
HETATM   18  H   UNL     1      -6.965  17.082  68.412  1.00  0.00     0.000 HD 
HETATM   19  C   UNL     1      -6.971  19.144  68.982  1.00  0.00    -0.335 A  
HETATM   20  N   UNL     1      -7.672  20.194  68.620  1.00  0.00    -0.088 NA 
ENDBRANCH  10  11
ENDBRANCH   6  10
TORSDOF 2
ENDMDL
MODEL       39
REMARK 921   NORMALIZED FREE ENERGY PREDICTED BY IDOCK:   -5.88 KCAL/MOL
REMARK 922        TOTAL FREE ENERGY PREDICTED BY IDOCK:   -6.88 KCAL/MOL
REMARK 923 INTER-LIGAND FREE ENERGY PREDICTED BY IDOCK:   -6.39 KCAL/MOL
REMARK 924 INTRA-LIGAND FREE ENERGY PREDICTED BY IDOCK:   -0.49 KCAL/MOL
REMARK 927      BINDING AFFINITY PREDICTED BY RF-SCORE:    0.00 PKD
ROOT
HETATM    1  C   UNL     1      -9.379  10.527  66.087  1.00  0.00    -0.176 C  
HETATM    2  N   UNL     1     -10.101  11.559  65.384  1.00  0.00    -0.248 NA 
HETATM    3  C   UNL     1     -10.902  11.248  64.310  1.00  0.00    -0.328 A  
HETATM    4  N   UNL     1     -11.542  12.294  63.857  1.00  0.00    -0.404 NA 
HETATM    5  C   UNL     1     -11.155  13.332  64.684  1.00  0.00    -0.357 A  
HETATM    6  C   UNL     1     -10.228  12.909  65.643  1.00  0.00    -0.285 A  
HETATM    7  N   UNL     1     -11.790  14.624  64.499  1.00  0.00    -0.438 N  
HETATM    8  O   UNL     1     -12.699  14.703  63.663  1.00  0.00    -0.735 OA 
HETATM    9  O   UNL     1     -11.385  15.569  65.195  1.00  0.00    -0.318 OA 
ENDROOT
BRANCH   6  10
HETATM   10  S   UNL     1      -9.594  13.759  67.038  1.00  0.00    -0.259 SA 
BRANCH  10  11
HETATM   11  C   UNL     1     -10.885  13.977  68.234  1.00  0.00    -0.255 A  
HETATM   12  N   UNL     1     -11.344  15.212  68.534  1.00  0.00    -0.293 NA 
HETATM   13  C   UNL     1     -12.160  15.361  69.601  1.00  0.00    -0.327 A  
HETATM   14  N   UNL     1     -12.631  14.415  70.412  1.00  0.00    -0.348 NA 
HETATM   15  C   UNL     1     -12.160  13.194  70.115  1.00  0.00    -0.321 A  
HETATM   16  C   UNL     1     -11.278  12.945  69.075  1.00  0.00    -0.267 A  
HETATM   17  N   UNL     1     -10.967  11.615  69.220  1.00  0.00    -0.358 NA 
HETATM   18  H   UNL     1     -10.296  11.090  68.660  1.00  0.00     0.000 HD 
HETATM   19  C   UNL     1     -11.724  11.119  70.252  1.00  0.00    -0.341 A  
HETATM   20  N   UNL     1     -12.446  12.059  70.819  1.00  0.00    -0.330 NA 
ENDBRANCH  10  11
ENDBRANCH   6  10
TORSDOF 2
ENDMDL
MODEL       40
REMARK 921   NORMALIZED FREE ENERGY PREDICTED BY IDOCK:   -5.86 KCAL/MOL
REMARK 922        TOTAL FREE ENERGY PREDICTED BY IDOCK:   -6.86 KCAL/MOL
REMARK 923 INTER-LIGAND FREE ENERGY PREDICTED BY IDOCK:   -6.47 KCAL/MOL
REMARK 924 INTRA-LIGAND FREE ENERGY PREDICTED BY IDOCK:   -0.39 KCAL/MOL
REMARK 927      BINDING AFFINITY PREDICTED BY RF-SCORE:    0.00 PKD
ROOT
HETATM    1  C   UNL     1      -8.476  11.007  66.789  1.00  0.00    -0.148 C  
HETATM    2  N   UNL     1      -9.429  10.753  67.842  1.00  0.00    -0.155 NA 
HETATM    3  C   UNL     1      -9.456   9.536  68.485  1.00  0.00    -0.141 A  
HETATM    4  N   UNL     1     -10.323   9.519  69.464  1.00  0.00    -0.205 NA 
HETATM    5  C   UNL     1     -10.875  10.787  69.471  1.00  0.00    -0.242 A  
HETATM    6  C   UNL     1     -10.351  11.583  68.447  1.00  0.00    -0.202 A  
HETATM    7  N   UNL     1     -11.808  11.118  70.533  1.00  0.00    -0.355 N  
HETATM    8  O   UNL     1     -11.997  10.272  71.415  1.00  0.00    -0.368 OA 
HETATM    9  O   UNL     1     -12.355  12.232  70.491  1.00  0.00    -0.329 OA 
ENDROOT
BRANCH   6  10
HETATM   10  S   UNL     1     -10.547  13.299  68.152  1.00  0.00    -0.255 SA 
BRANCH  10  11
HETATM   11  C   UNL     1     -11.432  13.541  66.635  1.00  0.00    -0.339 A  
HETATM   12  N   UNL     1     -12.096  12.516  66.054  1.00  0.00    -0.612 NA 
HETATM   13  C   UNL     1     -12.566  12.676  64.798  1.00  0.00    -0.454 A  
HETATM   14  N   UNL     1     -12.501  13.762  64.028  1.00  0.00    -0.705 NA 
HETATM   15  C   UNL     1     -11.828  14.768  64.606  1.00  0.00    -0.436 A  
HETATM   16  C   UNL     1     -11.263  14.686  65.869  1.00  0.00    -0.336 A  
HETATM   17  N   UNL     1     -10.576  15.869  65.999  1.00  0.00    -0.326 NA 
HETATM   18  H   UNL     1      -9.986  16.139  66.785  1.00  0.00     0.000 HD 
HETATM   19  C   UNL     1     -10.828  16.623  64.880  1.00  0.00    -0.142 A  
HETATM   20  N   UNL     1     -11.574  15.974  64.015  1.00  0.00    -0.723 NA 
ENDBRANCH  10  11
ENDBRANCH   6  10
TORSDOF 2
ENDMDL
MODEL       41
REMARK 921   NORMALIZED FREE ENERGY PREDICTED BY IDOCK:   -5.82 KCAL/MOL
REMARK 922        TOTAL FREE ENERGY PREDICTED BY IDOCK:   -6.82 KCAL/MOL
REMARK 923 INTER-LIGAND FREE ENERGY PREDICTED BY IDOCK:   -6.38 KCAL/MOL
REMARK 924 INTRA-LIGAND FREE ENERGY PREDICTED BY IDOCK:   -0.45 KCAL/MOL
REMARK 927      BINDING AFFINITY PREDICTED BY RF-SCORE:    0.00 PKD
ROOT
HETATM    1  C   UNL     1     -12.002  11.341  68.638  1.00  0.00    -0.243 C  
HETATM    2  N   UNL     1     -11.301  11.139  67.394  1.00  0.00    -0.453 NA 
HETATM    3  C   UNL     1     -10.531  10.015  67.198  1.00  0.00    -0.244 A  
HETATM    4  N   UNL     1     -10.044   9.962  65.985  1.00  0.00    -0.261 NA 
HETATM    5  C   UNL     1     -10.531  11.093  65.357  1.00  0.00    -0.259 A  
HETATM    6  C   UNL     1     -11.308  11.870  66.223  1.00  0.00    -0.334 A  
HETATM    7  N   UNL     1     -10.250  11.262  63.943  1.00  0.00    -0.329 N  
HETATM    8  O   UNL     1      -9.655  10.345  63.363  1.00  0.00    -0.299 OA 
HETATM    9  O   UNL     1     -10.628  12.314  63.403  1.00  0.00    -0.445 OA 
ENDROOT
BRANCH   6  10
HETATM   10  S   UNL     1     -12.315  13.262  65.880  1.00  0.00    -0.376 SA 
BRANCH  10  11
HETATM   11  C   UNL     1     -11.472  14.739  66.380  1.00  0.00    -0.319 A  
HETATM   12  N   UNL     1     -10.555  15.316  65.572  1.00  0.00    -0.344 NA 
HETATM   13  C   UNL     1      -9.776  16.300  66.072  1.00  0.00    -0.339 A  
HETATM   14  N   UNL     1      -9.811  16.837  67.291  1.00  0.00    -0.255 NA 
HETATM   15  C   UNL     1     -10.715  16.249  68.091  1.00  0.00    -0.322 A  
HETATM   16  C   UNL     1     -11.525  15.197  67.689  1.00  0.00    -0.309 A  
HETATM   17  N   UNL     1     -12.181  14.832  68.839  1.00  0.00    -0.574 NA 
HETATM   18  H   UNL     1     -12.825  14.048  68.941  1.00  0.00     0.000 HD 
HETATM   19  C   UNL     1     -11.816  15.712  69.827  1.00  0.00    -0.363 A  
HETATM   20  N   UNL     1     -10.920  16.573  69.402  1.00  0.00    -0.309 NA 
ENDBRANCH  10  11
ENDBRANCH   6  10
TORSDOF 2
ENDMDL
MODEL       42
REMARK 921   NORMALIZED FREE ENERGY PREDICTED BY IDOCK:   -5.82 KCAL/MOL
REMARK 922        TOTAL FREE ENERGY PREDICTED BY IDOCK:   -6.82 KCAL/MOL
REMARK 923 INTER-LIGAND FREE ENERGY PREDICTED BY IDOCK:   -6.60 KCAL/MOL
REMARK 924 INTRA-LIGAND FREE ENERGY PREDICTED BY IDOCK:   -0.22 KCAL/MOL
REMARK 927      BINDING AFFINITY PREDICTED BY RF-SCORE:    0.00 PKD
ROOT
HETATM    1  C   UNL     1      -8.578  13.114  67.063  1.00  0.00    -0.162 C  
HETATM    2  N   UNL     1      -9.605  12.750  66.118  1.00  0.00    -0.242 NA 
HETATM    3  C   UNL     1     -10.043  11.449  66.025  1.00  0.00    -0.234 A  
HETATM    4  N   UNL     1     -11.033  11.325  65.179  1.00  0.00    -0.199 NA 
HETATM    5  C   UNL     1     -11.262  12.606  64.712  1.00  0.00    -0.302 A  
HETATM    6  C   UNL     1     -10.364  13.526  65.265  1.00  0.00    -0.331 A  
HETATM    7  N   UNL     1     -12.392  12.816  63.825  1.00  0.00    -0.449 N  
HETATM    8  O   UNL     1     -13.131  11.850  63.598  1.00  0.00    -0.696 OA 
HETATM    9  O   UNL     1     -12.548  13.953  63.352  1.00  0.00    -0.853 OA 
ENDROOT
BRANCH   6  10
HETATM   10  S   UNL     1     -10.357  15.275  65.176  1.00  0.00    -0.346 SA 
BRANCH  10  11
HETATM   11  C   UNL     1     -10.376  15.950  66.816  1.00  0.00    -0.298 A  
HETATM   12  N   UNL     1     -11.223  15.464  67.750  1.00  0.00    -0.324 NA 
HETATM   13  C   UNL     1     -11.370  16.143  68.909  1.00  0.00    -0.350 A  
HETATM   14  N   UNL     1     -10.740  17.251  69.298  1.00  0.00    -0.179 NA 
HETATM   15  C   UNL     1      -9.911  17.733  68.359  1.00  0.00    -0.362 A  
HETATM   16  C   UNL     1      -9.730  17.141  67.119  1.00  0.00    -0.261 A  
HETATM   17  N   UNL     1      -8.918  18.023  66.449  1.00  0.00    -0.388 NA 
HETATM   18  H   UNL     1      -8.617  17.945  65.478  1.00  0.00     0.000 HD 
HETATM   19  C   UNL     1      -8.584  19.029  67.322  1.00  0.00    -0.278 A  
HETATM   20  N   UNL     1      -9.182  18.882  68.482  1.00  0.00    -0.348 NA 
ENDBRANCH  10  11
ENDBRANCH   6  10
TORSDOF 2
ENDMDL
MODEL       43
REMARK 921   NORMALIZED FREE ENERGY PREDICTED BY IDOCK:   -5.82 KCAL/MOL
REMARK 922        TOTAL FREE ENERGY PREDICTED BY IDOCK:   -6.81 KCAL/MOL
REMARK 923 INTER-LIGAND FREE ENERGY PREDICTED BY IDOCK:   -6.36 KCAL/MOL
REMARK 924 INTRA-LIGAND FREE ENERGY PREDICTED BY IDOCK:   -0.45 KCAL/MOL
REMARK 927      BINDING AFFINITY PREDICTED BY RF-SCORE:    0.00 PKD
ROOT
HETATM    1  C   UNL     1      -8.130  17.839  66.458  1.00  0.00    -0.272 C  
HETATM    2  N   UNL     1      -9.084  17.325  67.410  1.00  0.00    -0.225 NA 
HETATM    3  C   UNL     1      -9.824  18.181  68.194  1.00  0.00    -0.343 A  
HETATM    4  N   UNL     1     -10.694  17.541  68.930  1.00  0.00    -0.182 NA 
HETATM    5  C   UNL     1     -10.526  16.209  68.601  1.00  0.00    -0.269 A  
HETATM    6  C   UNL     1      -9.502  16.034  67.663  1.00  0.00    -0.216 A  
HETATM    7  N   UNL     1     -11.440  15.242  69.183  1.00  0.00    -0.295 N  
HETATM    8  O   UNL     1     -12.365  15.675  69.881  1.00  0.00    -0.354 OA 
HETATM    9  O   UNL     1     -11.237  14.041  68.941  1.00  0.00    -0.247 OA 
ENDROOT
BRANCH   6  10
HETATM   10  S   UNL     1      -9.037  14.602  66.767  1.00  0.00    -0.257 SA 
BRANCH  10  11
HETATM   11  C   UNL     1     -10.213  14.307  65.474  1.00  0.00    -0.357 A  
HETATM   12  N   UNL     1     -11.279  15.123  65.312  1.00  0.00    -0.361 NA 
HETATM   13  C   UNL     1     -12.266  14.744  64.471  1.00  0.00    -0.428 A  
HETATM   14  N   UNL     1     -12.324  13.650  63.713  1.00  0.00    -0.708 NA 
HETATM   15  C   UNL     1     -11.270  12.839  63.890  1.00  0.00    -0.440 A  
HETATM   16  C   UNL     1     -10.232  13.112  64.768  1.00  0.00    -0.301 A  
HETATM   17  N   UNL     1      -9.460  11.977  64.726  1.00  0.00    -0.437 NA 
HETATM   18  H   UNL     1      -8.631  11.791  65.291  1.00  0.00     0.000 HD 
HETATM   19  C   UNL     1     -10.002  11.137  63.785  1.00  0.00    -0.350 A  
HETATM   20  N   UNL     1     -11.106  11.631  63.273  1.00  0.00    -0.317 NA 
ENDBRANCH  10  11
ENDBRANCH   6  10
TORSDOF 2
ENDMDL
MODEL       44
REMARK 921   NORMALIZED FREE ENERGY PREDICTED BY IDOCK:   -5.79 KCAL/MOL
REMARK 922        TOTAL FREE ENERGY PREDICTED BY IDOCK:   -6.79 KCAL/MOL
REMARK 923 INTER-LIGAND FREE ENERGY PREDICTED BY IDOCK:   -6.22 KCAL/MOL
REMARK 924 INTRA-LIGAND FREE ENERGY PREDICTED BY IDOCK:   -0.57 KCAL/MOL
REMARK 927      BINDING AFFINITY PREDICTED BY RF-SCORE:    0.00 PKD
ROOT
HETATM    1  C   UNL     1     -10.509  12.780  68.208  1.00  0.00    -0.241 C  
HETATM    2  N   UNL     1     -10.604  13.656  67.065  1.00  0.00    -0.272 NA 
HETATM    3  C   UNL     1     -10.880  13.150  65.815  1.00  0.00    -0.273 A  
HETATM    4  N   UNL     1     -11.013  14.097  64.923  1.00  0.00    -0.376 NA 
HETATM    5  C   UNL     1     -10.832  15.274  65.625  1.00  0.00    -0.363 A  
HETATM    6  C   UNL     1     -10.548  15.032  66.974  1.00  0.00    -0.293 A  
HETATM    7  N   UNL     1     -11.030  16.526  64.919  1.00  0.00    -0.317 N  
HETATM    8  O   UNL     1     -11.425  16.469  63.748  1.00  0.00    -1.065 OA 
HETATM    9  O   UNL     1     -10.794  17.578  65.535  1.00  0.00    -0.448 OA 
ENDROOT
BRANCH   6  10
HETATM   10  S   UNL     1     -10.449  16.154  68.316  1.00  0.00    -0.289 SA 
BRANCH  10  11
HETATM   11  C   UNL     1      -8.760  16.636  68.559  1.00  0.00    -0.242 A  
HETATM   12  N   UNL     1      -7.907  15.836  69.237  1.00  0.00    -0.225 NA 
HETATM   13  C   UNL     1      -6.701  16.329  69.597  1.00  0.00    -0.154 A  
HETATM   14  N   UNL     1      -6.193  17.533  69.332  1.00  0.00    -0.241 NA 
HETATM   15  C   UNL     1      -7.052  18.324  68.670  1.00  0.00    -0.275 A  
HETATM   16  C   UNL     1      -8.330  17.930  68.303  1.00  0.00    -0.284 A  
HETATM   17  N   UNL     1      -8.887  19.072  67.781  1.00  0.00    -0.289 NA 
HETATM   18  H   UNL     1      -9.848  19.178  67.456  1.00  0.00     0.000 HD 
HETATM   19  C   UNL     1      -7.919  20.045  67.775  1.00  0.00    -0.289 A  
HETATM   20  N   UNL     1      -6.801  19.620  68.319  1.00  0.00    -0.279 NA 
ENDBRANCH  10  11
ENDBRANCH   6  10
TORSDOF 2
ENDMDL
MODEL       45
REMARK 921   NORMALIZED FREE ENERGY PREDICTED BY IDOCK:   -5.78 KCAL/MOL
REMARK 922        TOTAL FREE ENERGY PREDICTED BY IDOCK:   -6.78 KCAL/MOL
REMARK 923 INTER-LIGAND FREE ENERGY PREDICTED BY IDOCK:   -6.40 KCAL/MOL
REMARK 924 INTRA-LIGAND FREE ENERGY PREDICTED BY IDOCK:   -0.37 KCAL/MOL
REMARK 927      BINDING AFFINITY PREDICTED BY RF-SCORE:    0.00 PKD
ROOT
HETATM    1  C   UNL     1     -10.562  18.818  65.839  1.00  0.00    -0.352 C  
HETATM    2  N   UNL     1      -9.432  18.873  66.734  1.00  0.00    -0.313 NA 
HETATM    3  C   UNL     1      -9.216  19.980  67.523  1.00  0.00    -0.364 A  
HETATM    4  N   UNL     1      -8.200  19.815  68.329  1.00  0.00    -0.307 NA 
HETATM    5  C   UNL     1      -7.743  18.537  68.067  1.00  0.00    -0.265 A  
HETATM    6  C   UNL     1      -8.482  17.923  67.050  1.00  0.00    -0.236 A  
HETATM    7  N   UNL     1      -6.671  18.013  68.895  1.00  0.00    -0.237 N  
HETATM    8  O   UNL     1      -6.281  18.712  69.838  1.00  0.00    -0.248 OA 
HETATM    9  O   UNL     1      -6.217  16.894  68.607  1.00  0.00    -0.146 OA 
ENDROOT
BRANCH   6  10
HETATM   10  S   UNL     1      -8.456  16.261  66.494  1.00  0.00    -0.328 SA 
BRANCH  10  11
HETATM   11  C   UNL     1      -9.958  15.453  66.978  1.00  0.00    -0.238 A  
HETATM   12  N   UNL     1     -10.115  14.989  68.238  1.00  0.00    -0.219 NA 
HETATM   13  C   UNL     1     -11.168  14.187  68.509  1.00  0.00    -0.260 A  
HETATM   14  N   UNL     1     -12.141  13.803  67.684  1.00  0.00    -0.347 NA 
HETATM   15  C   UNL     1     -11.970  14.256  66.432  1.00  0.00    -0.419 A  
HETATM   16  C   UNL     1     -10.896  15.041  66.042  1.00  0.00    -0.334 A  
HETATM   17  N   UNL     1     -11.052  15.156  64.682  1.00  0.00    -0.617 NA 
HETATM   18  H   UNL     1     -10.410  15.623  64.041  1.00  0.00     0.000 HD 
HETATM   19  C   UNL     1     -12.225  14.532  64.341  1.00  0.00    -0.458 A  
HETATM   20  N   UNL     1     -12.795  13.969  65.382  1.00  0.00    -0.716 NA 
ENDBRANCH  10  11
ENDBRANCH   6  10
TORSDOF 2
ENDMDL
MODEL       46
REMARK 921   NORMALIZED FREE ENERGY PREDICTED BY IDOCK:   -5.75 KCAL/MOL
REMARK 922        TOTAL FREE ENERGY PREDICTED BY IDOCK:   -6.74 KCAL/MOL
REMARK 923 INTER-LIGAND FREE ENERGY PREDICTED BY IDOCK:   -6.35 KCAL/MOL
REMARK 924 INTRA-LIGAND FREE ENERGY PREDICTED BY IDOCK:   -0.39 KCAL/MOL
REMARK 927      BINDING AFFINITY PREDICTED BY RF-SCORE:    0.00 PKD
ROOT
HETATM    1  C   UNL     1     -13.866   9.053  72.325  1.00  0.00    -0.484 C  
HETATM    2  N   UNL     1     -12.452   9.022  72.044  1.00  0.00    -0.372 NA 
HETATM    3  C   UNL     1     -11.652   8.038  72.580  1.00  0.00    -0.403 A  
HETATM    4  N   UNL     1     -10.421   8.120  72.147  1.00  0.00    -0.259 NA 
HETATM    5  C   UNL     1     -10.420   9.195  71.277  1.00  0.00    -0.328 A  
HETATM    6  C   UNL     1     -11.679   9.802  71.207  1.00  0.00    -0.394 A  
HETATM    7  N   UNL     1      -9.201   9.475  70.541  1.00  0.00    -0.253 N  
HETATM    8  O   UNL     1      -8.255   8.689  70.676  1.00  0.00    -0.111 OA 
HETATM    9  O   UNL     1      -9.186  10.485  69.818  1.00  0.00    -0.071 OA 
ENDROOT
BRANCH   6  10
HETATM   10  S   UNL     1     -12.265  11.041  70.116  1.00  0.00    -0.343 SA 
BRANCH  10  11
HETATM   11  C   UNL     1     -12.518  12.548  71.016  1.00  0.00    -0.258 A  
HETATM   12  N   UNL     1     -13.462  12.623  71.980  1.00  0.00    -0.484 NA 
HETATM   13  C   UNL     1     -13.780  13.836  72.485  1.00  0.00    -0.561 A  
HETATM   14  N   UNL     1     -13.244  15.018  72.182  1.00  0.00    -0.339 NA 
HETATM   15  C   UNL     1     -12.319  14.935  71.214  1.00  0.00    -0.322 A  
HETATM   16  C   UNL     1     -11.959  13.747  70.597  1.00  0.00    -0.266 A  
HETATM   17  N   UNL     1     -11.098  14.142  69.602  1.00  0.00    -0.417 NA 
HETATM   18  H   UNL     1     -10.672  13.537  68.900  1.00  0.00     0.000 HD 
HETATM   19  C   UNL     1     -10.915  15.497  69.722  1.00  0.00    -0.294 A  
HETATM   20  N   UNL     1     -11.652  16.003  70.683  1.00  0.00    -0.388 NA 
ENDBRANCH  10  11
ENDBRANCH   6  10
TORSDOF 2
ENDMDL
MODEL       47
REMARK 921   NORMALIZED FREE ENERGY PREDICTED BY IDOCK:   -5.72 KCAL/MOL
REMARK 922        TOTAL FREE ENERGY PREDICTED BY IDOCK:   -6.71 KCAL/MOL
REMARK 923 INTER-LIGAND FREE ENERGY PREDICTED BY IDOCK:   -6.30 KCAL/MOL
REMARK 924 INTRA-LIGAND FREE ENERGY PREDICTED BY IDOCK:   -0.41 KCAL/MOL
REMARK 927      BINDING AFFINITY PREDICTED BY RF-SCORE:    0.00 PKD
ROOT
HETATM    1  C   UNL     1     -10.905  19.110  67.404  1.00  0.00    -0.435 C  
HETATM    2  N   UNL     1      -9.716  18.370  67.751  1.00  0.00    -0.292 NA 
HETATM    3  C   UNL     1      -8.468  18.908  67.536  1.00  0.00    -0.274 A  
HETATM    4  N   UNL     1      -7.517  18.134  67.989  1.00  0.00    -0.234 NA 
HETATM    5  C   UNL     1      -8.174  17.049  68.540  1.00  0.00    -0.259 A  
HETATM    6  C   UNL     1      -9.561  17.154  68.385  1.00  0.00    -0.281 A  
HETATM    7  N   UNL     1      -7.380  16.051  69.232  1.00  0.00    -0.225 N  
HETATM    8  O   UNL     1      -6.168  16.266  69.358  1.00  0.00    -0.153 OA 
HETATM    9  O   UNL     1      -7.968  15.044  69.659  1.00  0.00    -0.184 OA 
ENDROOT
BRANCH   6  10
HETATM   10  S   UNL     1     -10.841  16.178  69.076  1.00  0.00    -0.323 SA 
BRANCH  10  11
HETATM   11  C   UNL     1     -11.164  14.792  68.018  1.00  0.00    -0.299 A  
HETATM   12  N   UNL     1     -11.408  14.974  66.701  1.00  0.00    -0.326 NA 
HETATM   13  C   UNL     1     -11.868  13.931  65.975  1.00  0.00    -0.393 A  
HETATM   14  N   UNL     1     -12.088  12.681  66.382  1.00  0.00    -0.565 NA 
HETATM   15  C   UNL     1     -11.856  12.513  67.693  1.00  0.00    -0.317 A  
HETATM   16  C   UNL     1     -11.433  13.532  68.533  1.00  0.00    -0.310 A  
HETATM   17  N   UNL     1     -11.453  12.957  69.780  1.00  0.00    -0.493 NA 
HETATM   18  H   UNL     1     -11.254  13.429  70.663  1.00  0.00     0.000 HD 
HETATM   19  C   UNL     1     -11.789  11.636  69.627  1.00  0.00    -0.352 A  
HETATM   20  N   UNL     1     -12.049  11.344  68.373  1.00  0.00    -0.585 NA 
ENDBRANCH  10  11
ENDBRANCH   6  10
TORSDOF 2
ENDMDL
MODEL       48
REMARK 921   NORMALIZED FREE ENERGY PREDICTED BY IDOCK:   -5.72 KCAL/MOL
REMARK 922        TOTAL FREE ENERGY PREDICTED BY IDOCK:   -6.71 KCAL/MOL
REMARK 923 INTER-LIGAND FREE ENERGY PREDICTED BY IDOCK:   -6.15 KCAL/MOL
REMARK 924 INTRA-LIGAND FREE ENERGY PREDICTED BY IDOCK:   -0.55 KCAL/MOL
REMARK 927      BINDING AFFINITY PREDICTED BY RF-SCORE:    0.00 PKD
ROOT
HETATM    1  C   UNL     1     -12.022  11.885  69.899  1.00  0.00    -0.325 C  
HETATM    2  N   UNL     1     -11.811  13.261  69.519  1.00  0.00    -0.316 NA 
HETATM    3  C   UNL     1     -12.449  14.280  70.188  1.00  0.00    -0.335 A  
HETATM    4  N   UNL     1     -12.070  15.456  69.762  1.00  0.00    -0.350 NA 
HETATM    5  C   UNL     1     -11.131  15.195  68.783  1.00  0.00    -0.267 A  
HETATM    6  C   UNL     1     -10.960  13.820  68.586  1.00  0.00    -0.266 A  
HETATM    7  N   UNL     1     -10.435  16.321  68.187  1.00  0.00    -0.277 N  
HETATM    8  O   UNL     1     -10.667  17.446  68.645  1.00  0.00    -0.335 OA 
HETATM    9  O   UNL     1      -9.646  16.083  67.258  1.00  0.00    -0.222 OA 
ENDROOT
BRANCH   6  10
HETATM   10  S   UNL     1      -9.761  12.965  67.637  1.00  0.00    -0.219 SA 
BRANCH  10  11
HETATM   11  C   UNL     1     -10.501  12.387  66.133  1.00  0.00    -0.248 A  
HETATM   12  N   UNL     1     -10.144  11.195  65.605  1.00  0.00    -0.242 NA 
HETATM   13  C   UNL     1     -10.555  10.889  64.354  1.00  0.00    -0.273 A  
HETATM   14  N   UNL     1     -11.330  11.611  63.545  1.00  0.00    -0.405 NA 
HETATM   15  C   UNL     1     -11.667  12.798  64.072  1.00  0.00    -0.426 A  
HETATM   16  C   UNL     1     -11.254  13.226  65.324  1.00  0.00    -0.295 A  
HETATM   17  N   UNL     1     -11.711  14.519  65.396  1.00  0.00    -0.355 NA 
HETATM   18  H   UNL     1     -11.543  15.175  66.159  1.00  0.00     0.000 HD 
HETATM   19  C   UNL     1     -12.434  14.771  64.257  1.00  0.00    -0.197 A  
HETATM   20  N   UNL     1     -12.414  13.748  63.434  1.00  0.00    -0.803 NA 
ENDBRANCH  10  11
ENDBRANCH   6  10
TORSDOF 2
ENDMDL
MODEL       49
REMARK 921   NORMALIZED FREE ENERGY PREDICTED BY IDOCK:   -5.71 KCAL/MOL
REMARK 922        TOTAL FREE ENERGY PREDICTED BY IDOCK:   -6.69 KCAL/MOL
REMARK 923 INTER-LIGAND FREE ENERGY PREDICTED BY IDOCK:   -5.92 KCAL/MOL
REMARK 924 INTRA-LIGAND FREE ENERGY PREDICTED BY IDOCK:   -0.77 KCAL/MOL
REMARK 927      BINDING AFFINITY PREDICTED BY RF-SCORE:    0.00 PKD
ROOT
HETATM    1  C   UNL     1      -8.483  10.962  68.834  1.00  0.00    -0.141 C  
HETATM    2  N   UNL     1      -9.474  10.339  69.676  1.00  0.00    -0.191 NA 
HETATM    3  C   UNL     1      -9.098   9.495  70.696  1.00  0.00    -0.174 A  
HETATM    4  N   UNL     1     -10.122   9.096  71.403  1.00  0.00    -0.325 NA 
HETATM    5  C   UNL     1     -11.215   9.720  70.830  1.00  0.00    -0.359 A  
HETATM    6  C   UNL     1     -10.845  10.493  69.724  1.00  0.00    -0.281 A  
HETATM    7  N   UNL     1     -12.507   9.557  71.471  1.00  0.00    -0.351 N  
HETATM    8  O   UNL     1     -12.544   8.933  72.539  1.00  0.00    -0.375 OA 
HETATM    9  O   UNL     1     -13.494  10.060  70.911  1.00  0.00    -0.352 OA 
ENDROOT
BRANCH   6  10
HETATM   10  S   UNL     1     -11.791  11.634  68.790  1.00  0.00    -0.284 SA 
BRANCH  10  11
HETATM   11  C   UNL     1     -11.628  13.253  69.495  1.00  0.00    -0.286 A  
HETATM   12  N   UNL     1     -10.662  14.096  69.068  1.00  0.00    -0.246 NA 
HETATM   13  C   UNL     1     -10.424  15.223  69.775  1.00  0.00    -0.275 A  
HETATM   14  N   UNL     1     -11.062  15.663  70.859  1.00  0.00    -0.347 NA 
HETATM   15  C   UNL     1     -12.010  14.813  71.283  1.00  0.00    -0.349 A  
HETATM   16  C   UNL     1     -12.295  13.608  70.659  1.00  0.00    -0.368 A  
HETATM   17  N   UNL     1     -13.217  13.019  71.490  1.00  0.00    -0.320 NA 
HETATM   18  H   UNL     1     -13.617  12.087  71.379  1.00  0.00     0.000 HD 
HETATM   19  C   UNL     1     -13.504  13.909  72.494  1.00  0.00    -0.572 A  
HETATM   20  N   UNL     1     -12.778  14.999  72.398  1.00  0.00    -0.323 NA 
ENDBRANCH  10  11
ENDBRANCH   6  10
TORSDOF 2
ENDMDL
MODEL       50
REMARK 921   NORMALIZED FREE ENERGY PREDICTED BY IDOCK:   -5.65 KCAL/MOL
REMARK 922        TOTAL FREE ENERGY PREDICTED BY IDOCK:   -6.63 KCAL/MOL
REMARK 923 INTER-LIGAND FREE ENERGY PREDICTED BY IDOCK:   -6.23 KCAL/MOL
REMARK 924 INTRA-LIGAND FREE ENERGY PREDICTED BY IDOCK:   -0.40 KCAL/MOL
REMARK 927      BINDING AFFINITY PREDICTED BY RF-SCORE:    0.00 PKD
ROOT
HETATM    1  C   UNL     1     -12.333  13.400  69.959  1.00  0.00    -0.226 C  
HETATM    2  N   UNL     1     -11.701  12.131  69.694  1.00  0.00    -0.321 NA 
HETATM    3  C   UNL     1     -12.159  10.981  70.295  1.00  0.00    -0.362 A  
HETATM    4  N   UNL     1     -11.522   9.921  69.870  1.00  0.00    -0.215 NA 
HETATM    5  C   UNL     1     -10.619  10.398  68.938  1.00  0.00    -0.216 A  
HETATM    6  C   UNL     1     -10.688  11.791  68.820  1.00  0.00    -0.221 A  
HETATM    7  N   UNL     1      -9.828   9.432  68.199  1.00  0.00    -0.155 N  
HETATM    8  O   UNL     1     -10.062   8.232  68.389  1.00  0.00    -0.189 OA 
HETATM    9  O   UNL     1      -8.968   9.870  67.417  1.00  0.00    -0.134 OA 
ENDROOT
BRANCH   6  10
HETATM   10  S   UNL     1      -9.929  12.854  67.652  1.00  0.00    -0.223 SA 
BRANCH  10  11
HETATM   11  C   UNL     1     -11.089  13.247  66.370  1.00  0.00    -0.295 A  
HETATM   12  N   UNL     1     -11.830  12.276  65.791  1.00  0.00    -0.510 NA 
HETATM   13  C   UNL     1     -12.532  12.572  64.675  1.00  0.00    -0.463 A  
HETATM   14  N   UNL     1     -12.634  13.749  64.057  1.00  0.00    -0.692 NA 
HETATM   15  C   UNL     1     -11.885  14.703  64.631  1.00  0.00    -0.452 A  
HETATM   16  C   UNL     1     -11.090  14.486  65.746  1.00  0.00    -0.324 A  
HETATM   17  N   UNL     1     -10.415  15.672  65.903  1.00  0.00    -0.325 NA 
HETATM   18  H   UNL     1      -9.693  15.866  66.596  1.00  0.00     0.000 HD 
HETATM   19  C   UNL     1     -10.888  16.550  64.960  1.00  0.00    -0.229 A  
HETATM   20  N   UNL     1     -11.771  15.984  64.169  1.00  0.00    -0.675 NA 
ENDBRANCH  10  11
ENDBRANCH   6  10
TORSDOF 2
ENDMDL
MODEL       51
REMARK 921   NORMALIZED FREE ENERGY PREDICTED BY IDOCK:   -5.63 KCAL/MOL
REMARK 922        TOTAL FREE ENERGY PREDICTED BY IDOCK:   -6.61 KCAL/MOL
REMARK 923 INTER-LIGAND FREE ENERGY PREDICTED BY IDOCK:   -6.22 KCAL/MOL
REMARK 924 INTRA-LIGAND FREE ENERGY PREDICTED BY IDOCK:   -0.39 KCAL/MOL
REMARK 927      BINDING AFFINITY PREDICTED BY RF-SCORE:    0.00 PKD
ROOT
HETATM    1  C   UNL     1      -8.171  15.143  69.345  1.00  0.00    -0.197 C  
HETATM    2  N   UNL     1      -8.308  16.331  68.537  1.00  0.00    -0.194 NA 
HETATM    3  C   UNL     1      -7.197  16.969  68.034  1.00  0.00    -0.167 A  
HETATM    4  N   UNL     1      -7.518  17.971  67.259  1.00  0.00    -0.197 NA 
HETATM    5  C   UNL     1      -8.900  17.979  67.242  1.00  0.00    -0.247 A  
HETATM    6  C   UNL     1      -9.432  16.973  68.057  1.00  0.00    -0.256 A  
HETATM    7  N   UNL     1      -9.566  18.926  66.366  1.00  0.00    -0.346 N  
HETATM    8  O   UNL     1      -8.858  19.620  65.627  1.00  0.00    -0.328 OA 
HETATM    9  O   UNL     1     -10.806  18.976  66.410  1.00  0.00    -0.345 OA 
ENDROOT
BRANCH   6  10
HETATM   10  S   UNL     1     -11.086  16.420  68.218  1.00  0.00    -0.290 SA 
BRANCH  10  11
HETATM   11  C   UNL     1     -11.260  14.839  67.435  1.00  0.00    -0.339 A  
HETATM   12  N   UNL     1     -11.456  14.749  66.101  1.00  0.00    -0.338 NA 
HETATM   13  C   UNL     1     -11.807  13.555  65.575  1.00  0.00    -0.363 A  
HETATM   14  N   UNL     1     -11.955  12.391  66.206  1.00  0.00    -0.607 NA 
HETATM   15  C   UNL     1     -11.772  12.492  67.532  1.00  0.00    -0.374 A  
HETATM   16  C   UNL     1     -11.462  13.681  68.173  1.00  0.00    -0.313 A  
HETATM   17  N   UNL     1     -11.499  13.353  69.507  1.00  0.00    -0.391 NA 
HETATM   18  H   UNL     1     -11.375  13.996  70.289  1.00  0.00     0.000 HD 
HETATM   19  C   UNL     1     -11.732  12.004  69.599  1.00  0.00    -0.335 A  
HETATM   20  N   UNL     1     -11.913  11.461  68.416  1.00  0.00    -0.590 NA 
ENDBRANCH  10  11
ENDBRANCH   6  10
TORSDOF 2
ENDMDL
MODEL       52
REMARK 921   NORMALIZED FREE ENERGY PREDICTED BY IDOCK:   -5.63 KCAL/MOL
REMARK 922        TOTAL FREE ENERGY PREDICTED BY IDOCK:   -6.60 KCAL/MOL
REMARK 923 INTER-LIGAND FREE ENERGY PREDICTED BY IDOCK:   -6.16 KCAL/MOL
REMARK 924 INTRA-LIGAND FREE ENERGY PREDICTED BY IDOCK:   -0.44 KCAL/MOL
REMARK 927      BINDING AFFINITY PREDICTED BY RF-SCORE:    0.00 PKD
ROOT
HETATM    1  C   UNL     1      -9.788  14.887  68.381  1.00  0.00    -0.216 C  
HETATM    2  N   UNL     1     -10.576  14.782  67.177  1.00  0.00    -0.280 NA 
HETATM    3  C   UNL     1     -10.525  15.768  66.218  1.00  0.00    -0.309 A  
HETATM    4  N   UNL     1     -11.235  15.461  65.164  1.00  0.00    -0.367 NA 
HETATM    5  C   UNL     1     -11.760  14.212  65.440  1.00  0.00    -0.347 A  
HETATM    6  C   UNL     1     -11.384  13.765  66.712  1.00  0.00    -0.330 A  
HETATM    7  N   UNL     1     -12.518  13.545  64.397  1.00  0.00    -0.311 N  
HETATM    8  O   UNL     1     -12.586  14.099  63.293  1.00  0.00    -0.766 OA 
HETATM    9  O   UNL     1     -13.047  12.457  64.677  1.00  0.00    -0.825 OA 
ENDROOT
BRANCH   6  10
HETATM   10  S   UNL     1     -11.595  12.191  67.452  1.00  0.00    -0.316 SA 
BRANCH  10  11
HETATM   11  C   UNL     1     -10.383  11.068  66.808  1.00  0.00    -0.238 A  
HETATM   12  N   UNL     1      -9.657  11.391  65.714  1.00  0.00    -0.227 NA 
HETATM   13  C   UNL     1      -8.912  10.432  65.123  1.00  0.00    -0.191 A  
HETATM   14  N   UNL     1      -8.751   9.165  65.503  1.00  0.00    -0.169 NA 
HETATM   15  C   UNL     1      -9.486   8.850  66.581  1.00  0.00    -0.202 A  
HETATM   16  C   UNL     1     -10.321   9.747  67.228  1.00  0.00    -0.248 A  
HETATM   17  N   UNL     1     -10.961   8.978  68.170  1.00  0.00    -0.482 NA 
HETATM   18  H   UNL     1     -11.698   9.290  68.802  1.00  0.00     0.000 HD 
HETATM   19  C   UNL     1     -10.430   7.714  68.108  1.00  0.00    -0.181 A  
HETATM   20  N   UNL     1      -9.542   7.607  67.146  1.00  0.00    -0.151 NA 
ENDBRANCH  10  11
ENDBRANCH   6  10
TORSDOF 2
ENDMDL
MODEL       53
REMARK 921   NORMALIZED FREE ENERGY PREDICTED BY IDOCK:   -5.62 KCAL/MOL
REMARK 922        TOTAL FREE ENERGY PREDICTED BY IDOCK:   -6.59 KCAL/MOL
REMARK 923 INTER-LIGAND FREE ENERGY PREDICTED BY IDOCK:   -6.14 KCAL/MOL
REMARK 924 INTRA-LIGAND FREE ENERGY PREDICTED BY IDOCK:   -0.45 KCAL/MOL
REMARK 927      BINDING AFFINITY PREDICTED BY RF-SCORE:    0.00 PKD
ROOT
HETATM    1  C   UNL     1      -9.722  16.197  68.226  1.00  0.00    -0.220 C  
HETATM    2  N   UNL     1     -10.456  15.788  67.053  1.00  0.00    -0.304 NA 
HETATM    3  C   UNL     1     -10.192  16.357  65.828  1.00  0.00    -0.348 A  
HETATM    4  N   UNL     1     -10.891  15.803  64.871  1.00  0.00    -0.496 NA 
HETATM    5  C   UNL     1     -11.631  14.817  65.497  1.00  0.00    -0.301 A  
HETATM    6  C   UNL     1     -11.399  14.796  66.877  1.00  0.00    -0.355 A  
HETATM    7  N   UNL     1     -12.438  13.941  64.668  1.00  0.00    -0.361 N  
HETATM    8  O   UNL     1     -12.356  14.076  63.441  1.00  0.00    -0.748 OA 
HETATM    9  O   UNL     1     -13.155  13.106  65.242  1.00  0.00    -0.678 OA 
ENDROOT
BRANCH   6  10
HETATM   10  S   UNL     1     -11.908  13.628  68.080  1.00  0.00    -0.351 SA 
BRANCH  10  11
HETATM   11  C   UNL     1     -10.939  12.153  67.918  1.00  0.00    -0.229 A  
HETATM   12  N   UNL     1     -11.531  10.963  67.673  1.00  0.00    -0.518 NA 
HETATM   13  C   UNL     1     -10.794   9.836  67.779  1.00  0.00    -0.246 A  
HETATM   14  N   UNL     1      -9.497   9.726  68.064  1.00  0.00    -0.131 NA 
HETATM   15  C   UNL     1      -8.920  10.911  68.320  1.00  0.00    -0.150 A  
HETATM   16  C   UNL     1      -9.602  12.118  68.289  1.00  0.00    -0.210 A  
HETATM   17  N   UNL     1      -8.675  13.029  68.734  1.00  0.00    -0.377 NA 
HETATM   18  H   UNL     1      -8.838  14.022  68.898  1.00  0.00     0.000 HD 
HETATM   19  C   UNL     1      -7.489  12.363  68.919  1.00  0.00     0.001 A  
HETATM   20  N   UNL     1      -7.614  11.076  68.686  1.00  0.00    -0.115 NA 
ENDBRANCH  10  11
ENDBRANCH   6  10
TORSDOF 2
ENDMDL
MODEL       54
REMARK 921   NORMALIZED FREE ENERGY PREDICTED BY IDOCK:   -5.59 KCAL/MOL
REMARK 922        TOTAL FREE ENERGY PREDICTED BY IDOCK:   -6.57 KCAL/MOL
REMARK 923 INTER-LIGAND FREE ENERGY PREDICTED BY IDOCK:   -6.18 KCAL/MOL
REMARK 924 INTRA-LIGAND FREE ENERGY PREDICTED BY IDOCK:   -0.38 KCAL/MOL
REMARK 927      BINDING AFFINITY PREDICTED BY RF-SCORE:    0.00 PKD
ROOT
HETATM    1  C   UNL     1     -12.275  15.843  71.439  1.00  0.00    -0.448 C  
HETATM    2  N   UNL     1     -12.082  14.709  70.568  1.00  0.00    -0.299 NA 
HETATM    3  C   UNL     1     -12.287  13.428  71.028  1.00  0.00    -0.315 A  
HETATM    4  N   UNL     1     -12.150  12.540  70.079  1.00  0.00    -0.301 NA 
HETATM    5  C   UNL     1     -11.859  13.274  68.944  1.00  0.00    -0.327 A  
HETATM    6  C   UNL     1     -11.785  14.644  69.221  1.00  0.00    -0.312 A  
HETATM    7  N   UNL     1     -11.757  12.566  67.681  1.00  0.00    -0.360 N  
HETATM    8  O   UNL     1     -12.013  11.355  67.679  1.00  0.00    -0.630 OA 
HETATM    9  O   UNL     1     -11.424  13.221  66.680  1.00  0.00    -0.319 OA 
ENDROOT
BRANCH   6  10
HETATM   10  S   UNL     1     -11.661  16.003  68.123  1.00  0.00    -0.067 SA 
BRANCH  10  11
HETATM   11  C   UNL     1     -10.034  16.701  68.228  1.00  0.00    -0.261 A  
HETATM   12  N   UNL     1      -9.022  16.006  68.793  1.00  0.00    -0.213 NA 
HETATM   13  C   UNL     1      -7.862  16.646  69.059  1.00  0.00    -0.215 A  
HETATM   14  N   UNL     1      -7.545  17.913  68.794  1.00  0.00    -0.285 NA 
HETATM   15  C   UNL     1      -8.560  18.599  68.246  1.00  0.00    -0.321 A  
HETATM   16  C   UNL     1      -9.804  18.047  67.983  1.00  0.00    -0.323 A  
HETATM   17  N   UNL     1     -10.554  19.117  67.559  1.00  0.00    -0.461 NA 
HETATM   18  H   UNL     1     -11.547  19.102  67.328  1.00  0.00     0.000 HD 
HETATM   19  C   UNL     1      -9.726  20.210  67.501  1.00  0.00    -0.421 A  
HETATM   20  N   UNL     1      -8.516  19.926  67.923  1.00  0.00    -0.305 NA 
ENDBRANCH  10  11
ENDBRANCH   6  10
TORSDOF 2
ENDMDL
MODEL       55
REMARK 921   NORMALIZED FREE ENERGY PREDICTED BY IDOCK:   -5.59 KCAL/MOL
REMARK 922        TOTAL FREE ENERGY PREDICTED BY IDOCK:   -6.56 KCAL/MOL
REMARK 923 INTER-LIGAND FREE ENERGY PREDICTED BY IDOCK:   -6.38 KCAL/MOL
REMARK 924 INTRA-LIGAND FREE ENERGY PREDICTED BY IDOCK:   -0.18 KCAL/MOL
REMARK 927      BINDING AFFINITY PREDICTED BY RF-SCORE:    0.00 PKD
ROOT
HETATM    1  C   UNL     1     -10.592  15.670  66.141  1.00  0.00    -0.320 C  
HETATM    2  N   UNL     1     -10.714  15.767  67.576  1.00  0.00    -0.313 NA 
HETATM    3  C   UNL     1     -10.361  16.923  68.233  1.00  0.00    -0.335 A  
HETATM    4  N   UNL     1     -10.620  16.856  69.513  1.00  0.00    -0.305 NA 
HETATM    5  C   UNL     1     -11.184  15.607  69.696  1.00  0.00    -0.310 A  
HETATM    6  C   UNL     1     -11.236  14.884  68.499  1.00  0.00    -0.279 A  
HETATM    7  N   UNL     1     -11.686  15.273  71.017  1.00  0.00    -0.316 N  
HETATM    8  O   UNL     1     -11.652  16.155  71.884  1.00  0.00    -0.458 OA 
HETATM    9  O   UNL     1     -12.124  14.125  71.192  1.00  0.00    -0.343 OA 
ENDROOT
BRANCH   6  10
HETATM   10  S   UNL     1     -12.034  13.366  68.143  1.00  0.00    -0.258 SA 
BRANCH  10  11
HETATM   11  C   UNL     1     -11.092  12.472  66.936  1.00  0.00    -0.278 A  
HETATM   12  N   UNL     1      -9.817  12.102  67.194  1.00  0.00    -0.196 NA 
HETATM   13  C   UNL     1      -9.061  11.627  66.180  1.00  0.00    -0.203 A  
HETATM   14  N   UNL     1      -9.420  11.423  64.913  1.00  0.00    -0.206 NA 
HETATM   15  C   UNL     1     -10.682  11.805  64.663  1.00  0.00    -0.310 A  
HETATM   16  C   UNL     1     -11.521  12.353  65.622  1.00  0.00    -0.367 A  
HETATM   17  N   UNL     1     -12.640  12.711  64.911  1.00  0.00    -0.656 NA 
HETATM   18  H   UNL     1     -13.456  13.200  65.280  1.00  0.00     0.000 HD 
HETATM   19  C   UNL     1     -12.465  12.291  63.616  1.00  0.00    -0.541 A  
HETATM   20  N   UNL     1     -11.282  11.750  63.437  1.00  0.00    -0.386 NA 
ENDBRANCH  10  11
ENDBRANCH   6  10
TORSDOF 2
ENDMDL
MODEL       56
REMARK 921   NORMALIZED FREE ENERGY PREDICTED BY IDOCK:   -5.58 KCAL/MOL
REMARK 922        TOTAL FREE ENERGY PREDICTED BY IDOCK:   -6.55 KCAL/MOL
REMARK 923 INTER-LIGAND FREE ENERGY PREDICTED BY IDOCK:   -5.83 KCAL/MOL
REMARK 924 INTRA-LIGAND FREE ENERGY PREDICTED BY IDOCK:   -0.72 KCAL/MOL
REMARK 927      BINDING AFFINITY PREDICTED BY RF-SCORE:    0.00 PKD
ROOT
HETATM    1  C   UNL     1     -12.342  13.581  70.409  1.00  0.00    -0.327 C  
HETATM    2  N   UNL     1     -11.760  12.344  69.947  1.00  0.00    -0.298 NA 
HETATM    3  C   UNL     1     -12.250  11.133  70.380  1.00  0.00    -0.369 A  
HETATM    4  N   UNL     1     -11.658  10.128  69.791  1.00  0.00    -0.215 NA 
HETATM    5  C   UNL     1     -10.752  10.708  68.922  1.00  0.00    -0.219 A  
HETATM    6  C   UNL     1     -10.773  12.104  69.013  1.00  0.00    -0.121 A  
HETATM    7  N   UNL     1     -10.006   9.837  68.032  1.00  0.00    -0.152 N  
HETATM    8  O   UNL     1     -10.281   8.630  68.047  1.00  0.00    -0.192 OA 
HETATM    9  O   UNL     1      -9.143  10.358  67.308  1.00  0.00    -0.136 OA 
ENDROOT
BRANCH   6  10
HETATM   10  S   UNL     1      -9.993  13.303  68.000  1.00  0.00    -0.238 SA 
BRANCH  10  11
HETATM   11  C   UNL     1     -10.934  13.522  66.513  1.00  0.00    -0.291 A  
HETATM   12  N   UNL     1     -12.100  14.205  66.530  1.00  0.00    -0.446 NA 
HETATM   13  C   UNL     1     -12.895  14.161  65.439  1.00  0.00    -0.368 A  
HETATM   14  N   UNL     1     -12.666  13.544  64.280  1.00  0.00    -0.653 NA 
HETATM   15  C   UNL     1     -11.512  12.857  64.277  1.00  0.00    -0.377 A  
HETATM   16  C   UNL     1     -10.653  12.797  65.363  1.00  0.00    -0.287 A  
HETATM   17  N   UNL     1      -9.692  11.898  64.971  1.00  0.00    -0.379 NA 
HETATM   18  H   UNL     1      -8.918  11.558  65.542  1.00  0.00     0.000 HD 
HETATM   19  C   UNL     1      -9.959  11.540  63.673  1.00  0.00    -0.376 A  
HETATM   20  N   UNL     1     -11.063  12.099  63.233  1.00  0.00    -0.388 NA 
ENDBRANCH  10  11
ENDBRANCH   6  10
TORSDOF 2
ENDMDL
MODEL       57
REMARK 921   NORMALIZED FREE ENERGY PREDICTED BY IDOCK:   -5.56 KCAL/MOL
REMARK 922        TOTAL FREE ENERGY PREDICTED BY IDOCK:   -6.53 KCAL/MOL
REMARK 923 INTER-LIGAND FREE ENERGY PREDICTED BY IDOCK:   -6.17 KCAL/MOL
REMARK 924 INTRA-LIGAND FREE ENERGY PREDICTED BY IDOCK:   -0.36 KCAL/MOL
REMARK 927      BINDING AFFINITY PREDICTED BY RF-SCORE:    0.00 PKD
ROOT
HETATM    1  C   UNL     1     -11.773  14.384  68.517  1.00  0.00    -0.335 C  
HETATM    2  N   UNL     1     -11.713  13.556  67.337  1.00  0.00    -0.358 NA 
HETATM    3  C   UNL     1     -12.280  13.977  66.156  1.00  0.00    -0.465 A  
HETATM    4  N   UNL     1     -12.052  13.139  65.178  1.00  0.00    -0.393 NA 
HETATM    5  C   UNL     1     -11.288  12.135  65.742  1.00  0.00    -0.354 A  
HETATM    6  C   UNL     1     -11.075  12.354  67.108  1.00  0.00    -0.280 A  
HETATM    7  N   UNL     1     -10.775  11.096  64.868  1.00  0.00    -0.283 N  
HETATM    8  O   UNL     1     -10.987  11.210  63.655  1.00  0.00    -0.349 OA 
HETATM    9  O   UNL     1     -10.152  10.159  65.393  1.00  0.00    -0.303 OA 
ENDROOT
BRANCH   6  10
HETATM   10  S   UNL     1     -10.017  11.516  68.225  1.00  0.00    -0.206 SA 
BRANCH  10  11
HETATM   11  C   UNL     1     -10.990  10.696  69.459  1.00  0.00    -0.272 A  
HETATM   12  N   UNL     1     -12.271  11.066  69.684  1.00  0.00    -0.329 NA 
HETATM   13  C   UNL     1     -12.906  10.580  70.773  1.00  0.00    -0.367 A  
HETATM   14  N   UNL     1     -12.443   9.717  71.677  1.00  0.00    -0.384 NA 
HETATM   15  C   UNL     1     -11.167   9.367  71.454  1.00  0.00    -0.381 A  
HETATM   16  C   UNL     1     -10.413   9.850  70.396  1.00  0.00    -0.285 A  
HETATM   17  N   UNL     1      -9.158   9.343  70.629  1.00  0.00    -0.248 NA 
HETATM   18  H   UNL     1      -8.319   9.536  70.081  1.00  0.00     0.000 HD 
HETATM   19  C   UNL     1      -9.234   8.529  71.731  1.00  0.00    -0.246 A  
HETATM   20  N   UNL     1     -10.438   8.535  72.257  1.00  0.00    -0.332 NA 
ENDBRANCH  10  11
ENDBRANCH   6  10
TORSDOF 2
ENDMDL
MODEL       58
REMARK 921   NORMALIZED FREE ENERGY PREDICTED BY IDOCK:   -5.56 KCAL/MOL
REMARK 922        TOTAL FREE ENERGY PREDICTED BY IDOCK:   -6.53 KCAL/MOL
REMARK 923 INTER-LIGAND FREE ENERGY PREDICTED BY IDOCK:   -5.84 KCAL/MOL
REMARK 924 INTRA-LIGAND FREE ENERGY PREDICTED BY IDOCK:   -0.69 KCAL/MOL
REMARK 927      BINDING AFFINITY PREDICTED BY RF-SCORE:    0.00 PKD
ROOT
HETATM    1  C   UNL     1     -11.324  15.257  65.419  1.00  0.00    -0.253 C  
HETATM    2  N   UNL     1     -11.235  13.839  65.670  1.00  0.00    -0.300 NA 
HETATM    3  C   UNL     1     -11.455  12.933  64.658  1.00  0.00    -0.327 A  
HETATM    4  N   UNL     1     -11.247  11.703  65.049  1.00  0.00    -0.252 NA 
HETATM    5  C   UNL     1     -10.858  11.812  66.371  1.00  0.00    -0.282 A  
HETATM    6  C   UNL     1     -10.863  13.144  66.802  1.00  0.00    -0.276 A  
HETATM    7  N   UNL     1     -10.445  10.604  67.062  1.00  0.00    -0.231 N  
HETATM    8  O   UNL     1     -10.391   9.557  66.405  1.00  0.00    -0.240 OA 
HETATM    9  O   UNL     1     -10.167  10.698  68.268  1.00  0.00    -0.156 OA 
ENDROOT
BRANCH   6  10
HETATM   10  S   UNL     1     -10.258  13.840  68.292  1.00  0.00    -0.248 SA 
BRANCH  10  11
HETATM   11  C   UNL     1     -11.607  14.100  69.413  1.00  0.00    -0.304 A  
HETATM   12  N   UNL     1     -12.082  15.344  69.642  1.00  0.00    -0.340 NA 
HETATM   13  C   UNL     1     -12.950  15.531  70.660  1.00  0.00    -0.372 A  
HETATM   14  N   UNL     1     -13.459  14.616  71.484  1.00  0.00    -0.366 NA 
HETATM   15  C   UNL     1     -12.972  13.386  71.258  1.00  0.00    -0.287 A  
HETATM   16  C   UNL     1     -12.039  13.100  70.273  1.00  0.00    -0.328 A  
HETATM   17  N   UNL     1     -11.734  11.778  70.485  1.00  0.00    -0.493 NA 
HETATM   18  H   UNL     1     -11.034  11.233  69.980  1.00  0.00     0.000 HD 
HETATM   19  C   UNL     1     -12.540  11.320  71.497  1.00  0.00    -0.312 A  
HETATM   20  N   UNL     1     -13.291  12.278  71.990  1.00  0.00    -0.477 NA 
ENDBRANCH  10  11
ENDBRANCH   6  10
TORSDOF 2
ENDMDL
MODEL       59
REMARK 921   NORMALIZED FREE ENERGY PREDICTED BY IDOCK:   -5.55 KCAL/MOL
REMARK 922        TOTAL FREE ENERGY PREDICTED BY IDOCK:   -6.52 KCAL/MOL
REMARK 923 INTER-LIGAND FREE ENERGY PREDICTED BY IDOCK:   -6.05 KCAL/MOL
REMARK 924 INTRA-LIGAND FREE ENERGY PREDICTED BY IDOCK:   -0.47 KCAL/MOL
REMARK 927      BINDING AFFINITY PREDICTED BY RF-SCORE:    0.00 PKD
ROOT
HETATM    1  C   UNL     1      -9.392  10.297  67.557  1.00  0.00    -0.148 C  
HETATM    2  N   UNL     1     -10.097  11.023  66.530  1.00  0.00    -0.218 NA 
HETATM    3  C   UNL     1      -9.955  10.681  65.205  1.00  0.00    -0.303 A  
HETATM    4  N   UNL     1     -10.733  11.390  64.430  1.00  0.00    -0.335 NA 
HETATM    5  C   UNL     1     -11.428  12.221  65.289  1.00  0.00    -0.351 A  
HETATM    6  C   UNL     1     -11.034  12.034  66.619  1.00  0.00    -0.287 A  
HETATM    7  N   UNL     1     -12.466  13.067  64.729  1.00  0.00    -0.435 N  
HETATM    8  O   UNL     1     -12.724  12.939  63.526  1.00  0.00    -0.709 OA 
HETATM    9  O   UNL     1     -13.034  13.863  65.494  1.00  0.00    -0.673 OA 
ENDROOT
BRANCH   6  10
HETATM   10  S   UNL     1     -11.736  12.666  68.094  1.00  0.00    -0.334 SA 
BRANCH  10  11
HETATM   11  C   UNL     1     -10.984  14.223  68.486  1.00  0.00    -0.252 A  
HETATM   12  N   UNL     1     -11.684  15.374  68.371  1.00  0.00    -0.351 NA 
HETATM   13  C   UNL     1     -11.021  16.548  68.459  1.00  0.00    -0.350 A  
HETATM   14  N   UNL     1      -9.725  16.744  68.694  1.00  0.00    -0.249 NA 
HETATM   15  C   UNL     1      -9.036  15.597  68.793  1.00  0.00    -0.205 A  
HETATM   16  C   UNL     1      -9.613  14.343  68.666  1.00  0.00    -0.208 A  
HETATM   17  N   UNL     1      -8.542  13.484  68.704  1.00  0.00    -0.347 NA 
HETATM   18  H   UNL     1      -8.578  12.472  68.581  1.00  0.00     0.000 HD 
HETATM   19  C   UNL     1      -7.415  14.231  68.937  1.00  0.00    -0.123 A  
HETATM   20  N   UNL     1      -7.685  15.515  68.984  1.00  0.00    -0.174 NA 
ENDBRANCH  10  11
ENDBRANCH   6  10
TORSDOF 2
ENDMDL
MODEL       60
REMARK 921   NORMALIZED FREE ENERGY PREDICTED BY IDOCK:   -5.52 KCAL/MOL
REMARK 922        TOTAL FREE ENERGY PREDICTED BY IDOCK:   -6.48 KCAL/MOL
REMARK 923 INTER-LIGAND FREE ENERGY PREDICTED BY IDOCK:   -6.26 KCAL/MOL
REMARK 924 INTRA-LIGAND FREE ENERGY PREDICTED BY IDOCK:   -0.22 KCAL/MOL
REMARK 927      BINDING AFFINITY PREDICTED BY RF-SCORE:    0.00 PKD
ROOT
HETATM    1  C   UNL     1      -8.603  13.137  67.056  1.00  0.00    -0.162 C  
HETATM    2  N   UNL     1      -9.633  12.787  66.108  1.00  0.00    -0.242 NA 
HETATM    3  C   UNL     1     -10.067  11.486  65.992  1.00  0.00    -0.232 A  
HETATM    4  N   UNL     1     -11.059  11.375  65.149  1.00  0.00    -0.188 NA 
HETATM    5  C   UNL     1     -11.295  12.663  64.706  1.00  0.00    -0.312 A  
HETATM    6  C   UNL     1     -10.398  13.575  65.272  1.00  0.00    -0.331 A  
HETATM    7  N   UNL     1     -12.429  12.885  63.827  1.00  0.00    -0.375 N  
HETATM    8  O   UNL     1     -13.166  11.921  63.586  1.00  0.00    -0.675 OA 
HETATM    9  O   UNL     1     -12.591  14.030  63.376  1.00  0.00    -0.845 OA 
ENDROOT
BRANCH   6  10
HETATM   10  S   UNL     1     -10.397  15.326  65.216  1.00  0.00    -0.391 SA 
BRANCH  10  11
HETATM   11  C   UNL     1     -10.740  15.970  66.832  1.00  0.00    -0.262 A  
HETATM   12  N   UNL     1     -10.143  17.103  67.263  1.00  0.00    -0.286 NA 
HETATM   13  C   UNL     1     -10.251  17.439  68.567  1.00  0.00    -0.369 A  
HETATM   14  N   UNL     1     -10.926  16.805  69.525  1.00  0.00    -0.245 NA 
HETATM   15  C   UNL     1     -11.504  15.674  69.092  1.00  0.00    -0.359 A  
HETATM   16  C   UNL     1     -11.408  15.216  67.787  1.00  0.00    -0.328 A  
HETATM   17  N   UNL     1     -12.022  13.988  67.825  1.00  0.00    -0.440 NA 
HETATM   18  H   UNL     1     -12.093  13.327  67.052  1.00  0.00     0.000 HD 
HETATM   19  C   UNL     1     -12.523  13.810  69.090  1.00  0.00     0.097 A  
HETATM   20  N   UNL     1     -12.213  14.813  69.880  1.00  0.00    -0.316 NA 
ENDBRANCH  10  11
ENDBRANCH   6  10
TORSDOF 2
ENDMDL
MODEL       61
REMARK 921   NORMALIZED FREE ENERGY PREDICTED BY IDOCK:   -5.51 KCAL/MOL
REMARK 922        TOTAL FREE ENERGY PREDICTED BY IDOCK:   -6.47 KCAL/MOL
REMARK 923 INTER-LIGAND FREE ENERGY PREDICTED BY IDOCK:   -6.43 KCAL/MOL
REMARK 924 INTRA-LIGAND FREE ENERGY PREDICTED BY IDOCK:   -0.04 KCAL/MOL
REMARK 927      BINDING AFFINITY PREDICTED BY RF-SCORE:    0.00 PKD
ROOT
HETATM    1  C   UNL     1      -9.907  15.408  67.910  1.00  0.00    -0.219 C  
HETATM    2  N   UNL     1     -10.661  15.155  69.113  1.00  0.00    -0.246 NA 
HETATM    3  C   UNL     1     -10.886  16.161  70.025  1.00  0.00    -0.349 A  
HETATM    4  N   UNL     1     -11.657  15.770  71.005  1.00  0.00    -0.376 NA 
HETATM    5  C   UNL     1     -11.963  14.454  70.712  1.00  0.00    -0.323 A  
HETATM    6  C   UNL     1     -11.332  14.026  69.538  1.00  0.00    -0.245 A  
HETATM    7  N   UNL     1     -12.908  13.766  71.573  1.00  0.00    -0.353 N  
HETATM    8  O   UNL     1     -13.445  14.420  72.475  1.00  0.00    -0.423 OA 
HETATM    9  O   UNL     1     -13.122  12.564  71.347  1.00  0.00    -0.330 OA 
ENDROOT
BRANCH   6  10
HETATM   10  S   UNL     1     -11.550  12.547  68.625  1.00  0.00    -0.333 SA 
BRANCH  10  11
HETATM   11  C   UNL     1     -11.777  12.940  66.911  1.00  0.00    -0.382 A  
HETATM   12  N   UNL     1     -12.647  13.903  66.535  1.00  0.00    -0.315 NA 
HETATM   13  C   UNL     1     -12.960  14.021  65.225  1.00  0.00    -0.278 A  
HETATM   14  N   UNL     1     -12.482  13.317  64.200  1.00  0.00    -0.644 NA 
HETATM   15  C   UNL     1     -11.630  12.353  64.585  1.00  0.00    -0.343 A  
HETATM   16  C   UNL     1     -11.285  12.118  65.906  1.00  0.00    -0.339 A  
HETATM   17  N   UNL     1     -10.513  10.983  65.847  1.00  0.00    -0.254 NA 
HETATM   18  H   UNL     1     -10.124  10.478  66.642  1.00  0.00     0.000 HD 
HETATM   19  C   UNL     1     -10.359  10.652  64.524  1.00  0.00    -0.282 A  
HETATM   20  N   UNL     1     -11.036  11.460  63.739  1.00  0.00    -0.390 NA 
ENDBRANCH  10  11
ENDBRANCH   6  10
TORSDOF 2
ENDMDL
MODEL       62
REMARK 921   NORMALIZED FREE ENERGY PREDICTED BY IDOCK:   -5.50 KCAL/MOL
REMARK 922        TOTAL FREE ENERGY PREDICTED BY IDOCK:   -6.46 KCAL/MOL
REMARK 923 INTER-LIGAND FREE ENERGY PREDICTED BY IDOCK:   -6.13 KCAL/MOL
REMARK 924 INTRA-LIGAND FREE ENERGY PREDICTED BY IDOCK:   -0.33 KCAL/MOL
REMARK 927      BINDING AFFINITY PREDICTED BY RF-SCORE:    0.00 PKD
ROOT
HETATM    1  C   UNL     1     -12.761  13.960  65.578  1.00  0.00    -0.499 C  
HETATM    2  N   UNL     1     -11.598  14.783  65.803  1.00  0.00    -0.327 NA 
HETATM    3  C   UNL     1     -10.895  15.307  64.743  1.00  0.00    -0.358 A  
HETATM    4  N   UNL     1      -9.929  16.095  65.138  1.00  0.00    -0.413 NA 
HETATM    5  C   UNL     1     -10.016  16.098  66.518  1.00  0.00    -0.280 A  
HETATM    6  C   UNL     1     -11.043  15.263  66.972  1.00  0.00    -0.305 A  
HETATM    7  N   UNL     1      -9.130  16.981  67.254  1.00  0.00    -0.220 N  
HETATM    8  O   UNL     1      -8.401  17.738  66.602  1.00  0.00    -0.238 OA 
HETATM    9  O   UNL     1      -9.164  16.925  68.494  1.00  0.00    -0.243 OA 
ENDROOT
BRANCH   6  10
HETATM   10  S   UNL     1     -11.704  15.076  68.583  1.00  0.00    -0.318 SA 
BRANCH  10  11
HETATM   11  C   UNL     1     -11.579  13.379  69.080  1.00  0.00    -0.315 A  
HETATM   12  N   UNL     1     -11.057  12.453  68.245  1.00  0.00    -0.226 NA 
HETATM   13  C   UNL     1     -11.183  11.146  68.563  1.00  0.00    -0.258 A  
HETATM   14  N   UNL     1     -11.739  10.615  69.651  1.00  0.00    -0.286 NA 
HETATM   15  C   UNL     1     -12.267  11.540  70.468  1.00  0.00    -0.377 A  
HETATM   16  C   UNL     1     -12.236  12.901  70.206  1.00  0.00    -0.289 A  
HETATM   17  N   UNL     1     -12.992  13.446  71.215  1.00  0.00    -0.318 NA 
HETATM   18  H   UNL     1     -13.239  14.431  71.317  1.00  0.00     0.000 HD 
HETATM   19  C   UNL     1     -13.354  12.429  72.062  1.00  0.00    -0.407 A  
HETATM   20  N   UNL     1     -12.937  11.263  71.626  1.00  0.00    -0.458 NA 
ENDBRANCH  10  11
ENDBRANCH   6  10
TORSDOF 2
ENDMDL
MODEL       63
REMARK 921   NORMALIZED FREE ENERGY PREDICTED BY IDOCK:   -5.50 KCAL/MOL
REMARK 922        TOTAL FREE ENERGY PREDICTED BY IDOCK:   -6.46 KCAL/MOL
REMARK 923 INTER-LIGAND FREE ENERGY PREDICTED BY IDOCK:   -5.77 KCAL/MOL
REMARK 924 INTRA-LIGAND FREE ENERGY PREDICTED BY IDOCK:   -0.69 KCAL/MOL
REMARK 927      BINDING AFFINITY PREDICTED BY RF-SCORE:    0.00 PKD
ROOT
HETATM    1  C   UNL     1      -6.729  14.297  67.975  1.00  0.00    -0.148 C  
HETATM    2  N   UNL     1      -7.715  13.246  68.058  1.00  0.00    -0.131 NA 
HETATM    3  C   UNL     1      -7.330  11.934  68.206  1.00  0.00    -0.093 A  
HETATM    4  N   UNL     1      -8.356  11.136  68.350  1.00  0.00    -0.142 NA 
HETATM    5  C   UNL     1      -9.460  11.967  68.310  1.00  0.00    -0.199 A  
HETATM    6  C   UNL     1      -9.093  13.302  68.103  1.00  0.00    -0.207 A  
HETATM    7  N   UNL     1     -10.764  11.380  68.555  1.00  0.00    -0.190 N  
HETATM    8  O   UNL     1     -10.806  10.182  68.863  1.00  0.00    -0.207 OA 
HETATM    9  O   UNL     1     -11.757  12.118  68.446  1.00  0.00    -0.300 OA 
ENDROOT
BRANCH   6  10
HETATM   10  S   UNL     1     -10.067  14.756  68.185  1.00  0.00    -0.224 SA 
BRANCH  10  11
HETATM   11  C   UNL     1     -10.501  15.270  66.545  1.00  0.00    -0.298 A  
HETATM   12  N   UNL     1     -10.320  16.551  66.155  1.00  0.00    -0.331 NA 
HETATM   13  C   UNL     1     -10.864  16.958  64.987  1.00  0.00    -0.064 A  
HETATM   14  N   UNL     1     -11.551  16.233  64.104  1.00  0.00    -0.946 NA 
HETATM   15  C   UNL     1     -11.738  14.967  64.506  1.00  0.00    -0.382 A  
HETATM   16  C   UNL     1     -11.265  14.467  65.710  1.00  0.00    -0.334 A  
HETATM   17  N   UNL     1     -11.789  13.198  65.766  1.00  0.00    -0.375 NA 
HETATM   18  H   UNL     1     -11.699  12.544  66.544  1.00  0.00     0.000 HD 
HETATM   19  C   UNL     1     -12.456  12.969  64.589  1.00  0.00    -0.400 A  
HETATM   20  N   UNL     1     -12.449  14.028  63.813  1.00  0.00    -0.796 NA 
ENDBRANCH  10  11
ENDBRANCH   6  10
TORSDOF 2
ENDMDL
MODEL       64
REMARK 921   NORMALIZED FREE ENERGY PREDICTED BY IDOCK:   -5.48 KCAL/MOL
REMARK 922        TOTAL FREE ENERGY PREDICTED BY IDOCK:   -6.44 KCAL/MOL
REMARK 923 INTER-LIGAND FREE ENERGY PREDICTED BY IDOCK:   -6.00 KCAL/MOL
REMARK 924 INTRA-LIGAND FREE ENERGY PREDICTED BY IDOCK:   -0.44 KCAL/MOL
REMARK 927      BINDING AFFINITY PREDICTED BY RF-SCORE:    0.00 PKD
ROOT
HETATM    1  C   UNL     1      -8.801  10.101  65.448  1.00  0.00    -0.173 C  
HETATM    2  N   UNL     1      -9.818  11.109  65.270  1.00  0.00    -0.234 NA 
HETATM    3  C   UNL     1     -10.610  11.115  64.145  1.00  0.00    -0.368 A  
HETATM    4  N   UNL     1     -11.529  12.044  64.199  1.00  0.00    -0.365 NA 
HETATM    5  C   UNL     1     -11.339  12.661  65.421  1.00  0.00    -0.313 A  
HETATM    6  C   UNL     1     -10.253  12.112  66.113  1.00  0.00    -0.227 A  
HETATM    7  N   UNL     1     -12.290  13.680  65.825  1.00  0.00    -0.463 N  
HETATM    8  O   UNL     1     -13.262  13.884  65.087  1.00  0.00    -0.768 OA 
HETATM    9  O   UNL     1     -12.072  14.281  66.890  1.00  0.00    -0.431 OA 
ENDROOT
BRANCH   6  10
HETATM   10  S   UNL     1      -9.727  12.377  67.763  1.00  0.00    -0.207 SA 
BRANCH  10  11
HETATM   11  C   UNL     1     -10.618  11.295  68.848  1.00  0.00    -0.207 A  
HETATM   12  N   UNL     1     -11.934  11.491  69.087  1.00  0.00    -0.330 NA 
HETATM   13  C   UNL     1     -12.524  10.794  70.083  1.00  0.00    -0.285 A  
HETATM   14  N   UNL     1     -11.980   9.869  70.873  1.00  0.00    -0.321 NA 
HETATM   15  C   UNL     1     -10.671   9.692  70.638  1.00  0.00    -0.322 A  
HETATM   16  C   UNL     1      -9.963  10.395  69.676  1.00  0.00    -0.174 A  
HETATM   17  N   UNL     1      -8.662   9.998  69.870  1.00  0.00    -0.329 NA 
HETATM   18  H   UNL     1      -7.844  10.354  69.376  1.00  0.00     0.000 HD 
HETATM   19  C   UNL     1      -8.661   9.036  70.849  1.00  0.00    -0.229 A  
HETATM   20  N   UNL     1      -9.864   8.840  71.339  1.00  0.00    -0.254 NA 
ENDBRANCH  10  11
ENDBRANCH   6  10
TORSDOF 2
ENDMDL
MODEL       65
REMARK 921   NORMALIZED FREE ENERGY PREDICTED BY IDOCK:   -5.48 KCAL/MOL
REMARK 922        TOTAL FREE ENERGY PREDICTED BY IDOCK:   -6.44 KCAL/MOL
REMARK 923 INTER-LIGAND FREE ENERGY PREDICTED BY IDOCK:   -5.74 KCAL/MOL
REMARK 924 INTRA-LIGAND FREE ENERGY PREDICTED BY IDOCK:   -0.70 KCAL/MOL
REMARK 927      BINDING AFFINITY PREDICTED BY RF-SCORE:    0.00 PKD
ROOT
HETATM    1  C   UNL     1     -11.232   7.756  70.547  1.00  0.00    -0.257 C  
HETATM    2  N   UNL     1     -11.902   8.992  70.869  1.00  0.00    -0.276 NA 
HETATM    3  C   UNL     1     -12.973   9.005  71.733  1.00  0.00    -0.377 A  
HETATM    4  N   UNL     1     -13.394  10.220  71.972  1.00  0.00    -0.423 NA 
HETATM    5  C   UNL     1     -12.550  11.038  71.244  1.00  0.00    -0.412 A  
HETATM    6  C   UNL     1     -11.612  10.295  70.517  1.00  0.00    -0.338 A  
HETATM    7  N   UNL     1     -12.698  12.474  71.391  1.00  0.00    -0.312 N  
HETATM    8  O   UNL     1     -13.519  12.884  72.220  1.00  0.00    -0.562 OA 
HETATM    9  O   UNL     1     -11.986  13.201  70.679  1.00  0.00    -0.308 OA 
ENDROOT
BRANCH   6  10
HETATM   10  S   UNL     1     -10.208  10.836  69.621  1.00  0.00     0.048 SA 
BRANCH  10  11
HETATM   11  C   UNL     1     -10.590  10.875  67.890  1.00  0.00    -0.207 A  
HETATM   12  N   UNL     1      -9.973  10.034  67.030  1.00  0.00    -0.195 NA 
HETATM   13  C   UNL     1     -10.119  10.241  65.702  1.00  0.00    -0.271 A  
HETATM   14  N   UNL     1     -10.849  11.173  65.091  1.00  0.00    -0.210 NA 
HETATM   15  C   UNL     1     -11.447  12.011  65.953  1.00  0.00    -0.333 A  
HETATM   16  C   UNL     1     -11.317  11.915  67.329  1.00  0.00    -0.329 A  
HETATM   17  N   UNL     1     -11.972  13.028  67.798  1.00  0.00    -0.333 NA 
HETATM   18  H   UNL     1     -12.035  13.323  68.772  1.00  0.00     0.000 HD 
HETATM   19  C   UNL     1     -12.525  13.672  66.720  1.00  0.00    -0.191 A  
HETATM   20  N   UNL     1     -12.212  13.082  65.589  1.00  0.00    -0.452 NA 
ENDBRANCH  10  11
ENDBRANCH   6  10
TORSDOF 2
ENDMDL
MODEL       66
REMARK 921   NORMALIZED FREE ENERGY PREDICTED BY IDOCK:   -5.48 KCAL/MOL
REMARK 922        TOTAL FREE ENERGY PREDICTED BY IDOCK:   -6.43 KCAL/MOL
REMARK 923 INTER-LIGAND FREE ENERGY PREDICTED BY IDOCK:   -5.78 KCAL/MOL
REMARK 924 INTRA-LIGAND FREE ENERGY PREDICTED BY IDOCK:   -0.65 KCAL/MOL
REMARK 927      BINDING AFFINITY PREDICTED BY RF-SCORE:    0.00 PKD
ROOT
HETATM    1  C   UNL     1     -11.263  16.242  70.321  1.00  0.00    -0.333 C  
HETATM    2  N   UNL     1     -11.087  15.735  68.982  1.00  0.00    -0.261 NA 
HETATM    3  C   UNL     1     -11.382  14.425  68.683  1.00  0.00    -0.273 A  
HETATM    4  N   UNL     1     -11.244  14.171  67.408  1.00  0.00    -0.306 NA 
HETATM    5  C   UNL     1     -10.858  15.374  66.846  1.00  0.00    -0.313 A  
HETATM    6  C   UNL     1     -10.725  16.376  67.814  1.00  0.00    -0.328 A  
HETATM    7  N   UNL     1     -10.729  15.442  65.402  1.00  0.00    -0.373 N  
HETATM    8  O   UNL     1     -11.048  14.440  64.749  1.00  0.00    -0.378 OA 
HETATM    9  O   UNL     1     -10.311  16.503  64.911  1.00  0.00    -0.591 OA 
ENDROOT
BRANCH   6  10
HETATM   10  S   UNL     1     -10.474  18.098  67.615  1.00  0.00    -0.405 SA 
BRANCH  10  11
HETATM   11  C   UNL     1      -8.784  18.494  67.977  1.00  0.00    -0.295 A  
HETATM   12  N   UNL     1      -8.446  19.056  69.159  1.00  0.00    -0.148 NA 
HETATM   13  C   UNL     1      -7.197  19.547  69.312  1.00  0.00    -0.310 A  
HETATM   14  N   UNL     1      -6.192  19.521  68.439  1.00  0.00    -0.230 NA 
HETATM   15  C   UNL     1      -6.540  18.975  67.263  1.00  0.00    -0.193 A  
HETATM   16  C   UNL     1      -7.809  18.490  66.989  1.00  0.00    -0.227 A  
HETATM   17  N   UNL     1      -7.752  18.156  65.658  1.00  0.00    -0.514 NA 
HETATM   18  H   UNL     1      -8.527  17.814  65.090  1.00  0.00     0.000 HD 
HETATM   19  C   UNL     1      -6.464  18.363  65.230  1.00  0.00    -0.150 A  
HETATM   20  N   UNL     1      -5.713  18.870  66.180  1.00  0.00    -0.153 NA 
ENDBRANCH  10  11
ENDBRANCH   6  10
TORSDOF 2
ENDMDL
MODEL       67
REMARK 921   NORMALIZED FREE ENERGY PREDICTED BY IDOCK:   -5.46 KCAL/MOL
REMARK 922        TOTAL FREE ENERGY PREDICTED BY IDOCK:   -6.41 KCAL/MOL
REMARK 923 INTER-LIGAND FREE ENERGY PREDICTED BY IDOCK:   -5.95 KCAL/MOL
REMARK 924 INTRA-LIGAND FREE ENERGY PREDICTED BY IDOCK:   -0.46 KCAL/MOL
REMARK 927      BINDING AFFINITY PREDICTED BY RF-SCORE:    0.00 PKD
ROOT
HETATM    1  C   UNL     1     -10.821  16.587  69.099  1.00  0.00    -0.334 C  
HETATM    2  N   UNL     1      -9.893  15.529  68.780  1.00  0.00    -0.208 NA 
HETATM    3  C   UNL     1      -8.539  15.710  68.944  1.00  0.00    -0.211 A  
HETATM    4  N   UNL     1      -7.866  14.619  68.688  1.00  0.00    -0.132 NA 
HETATM    5  C   UNL     1      -8.824  13.679  68.358  1.00  0.00    -0.152 A  
HETATM    6  C   UNL     1     -10.112  14.225  68.382  1.00  0.00    -0.243 A  
HETATM    7  N   UNL     1      -8.388  12.314  68.125  1.00  0.00    -0.168 N  
HETATM    8  O   UNL     1      -7.193  12.053  68.311  1.00  0.00    -0.077 OA 
HETATM    9  O   UNL     1      -9.244  11.492  67.758  1.00  0.00    -0.157 OA 
ENDROOT
BRANCH   6  10
HETATM   10  S   UNL     1     -11.668  13.430  68.257  1.00  0.00    -0.367 SA 
BRANCH  10  11
HETATM   11  C   UNL     1     -12.150  12.821  69.850  1.00  0.00    -0.259 A  
HETATM   12  N   UNL     1     -12.028  11.509  70.152  1.00  0.00    -0.350 NA 
HETATM   13  C   UNL     1     -12.609  11.045  71.280  1.00  0.00    -0.412 A  
HETATM   14  N   UNL     1     -13.281  11.734  72.202  1.00  0.00    -0.414 NA 
HETATM   15  C   UNL     1     -13.409  13.032  71.887  1.00  0.00    -0.446 A  
HETATM   16  C   UNL     1     -12.896  13.594  70.729  1.00  0.00    -0.202 A  
HETATM   17  N   UNL     1     -13.367  14.885  70.754  1.00  0.00    -0.605 NA 
HETATM   18  H   UNL     1     -13.237  15.587  70.026  1.00  0.00     0.000 HD 
HETATM   19  C   UNL     1     -14.044  15.059  71.935  1.00  0.00    -0.532 A  
HETATM   20  N   UNL     1     -14.094  13.948  72.635  1.00  0.00    -0.680 NA 
ENDBRANCH  10  11
ENDBRANCH   6  10
TORSDOF 2
ENDMDL
MODEL       68
REMARK 921   NORMALIZED FREE ENERGY PREDICTED BY IDOCK:   -5.44 KCAL/MOL
REMARK 922        TOTAL FREE ENERGY PREDICTED BY IDOCK:   -6.40 KCAL/MOL
REMARK 923 INTER-LIGAND FREE ENERGY PREDICTED BY IDOCK:   -5.83 KCAL/MOL
REMARK 924 INTRA-LIGAND FREE ENERGY PREDICTED BY IDOCK:   -0.57 KCAL/MOL
REMARK 927      BINDING AFFINITY PREDICTED BY RF-SCORE:    0.00 PKD
ROOT
HETATM    1  C   UNL     1      -9.605   6.608  69.208  1.00  0.00    -0.143 C  
HETATM    2  N   UNL     1     -10.724   7.162  69.931  1.00  0.00    -0.233 NA 
HETATM    3  C   UNL     1     -11.647   6.338  70.534  1.00  0.00    -0.287 A  
HETATM    4  N   UNL     1     -12.537   7.015  71.212  1.00  0.00    -0.384 NA 
HETATM    5  C   UNL     1     -12.169   8.338  71.059  1.00  0.00    -0.174 A  
HETATM    6  C   UNL     1     -11.044   8.469  70.238  1.00  0.00    -0.214 A  
HETATM    7  N   UNL     1     -12.913   9.342  71.798  1.00  0.00    -0.371 N  
HETATM    8  O   UNL     1     -13.785   8.949  72.582  1.00  0.00    -0.444 OA 
HETATM    9  O   UNL     1     -12.625  10.534  71.599  1.00  0.00    -0.394 OA 
ENDROOT
BRANCH   6  10
HETATM   10  S   UNL     1     -10.060   9.880  69.903  1.00  0.00    -0.257 SA 
BRANCH  10  11
HETATM   11  C   UNL     1     -10.837  10.856  68.643  1.00  0.00    -0.217 A  
HETATM   12  N   UNL     1     -10.732  10.509  67.340  1.00  0.00    -0.263 NA 
HETATM   13  C   UNL     1     -11.139  11.388  66.399  1.00  0.00    -0.240 A  
HETATM   14  N   UNL     1     -11.692  12.587  66.578  1.00  0.00    -0.429 NA 
HETATM   15  C   UNL     1     -11.779  12.929  67.873  1.00  0.00    -0.357 A  
HETATM   16  C   UNL     1     -11.342  12.121  68.911  1.00  0.00    -0.283 A  
HETATM   17  N   UNL     1     -11.500  12.906  70.027  1.00  0.00    -0.523 NA 
HETATM   18  H   UNL     1     -11.226  12.660  70.979  1.00  0.00     0.000 HD 
HETATM   19  C   UNL     1     -12.092  14.079  69.632  1.00  0.00    -0.355 A  
HETATM   20  N   UNL     1     -12.261  14.123  68.330  1.00  0.00    -0.260 NA 
ENDBRANCH  10  11
ENDBRANCH   6  10
TORSDOF 2
ENDMDL
MODEL       69
REMARK 921   NORMALIZED FREE ENERGY PREDICTED BY IDOCK:   -5.42 KCAL/MOL
REMARK 922        TOTAL FREE ENERGY PREDICTED BY IDOCK:   -6.37 KCAL/MOL
REMARK 923 INTER-LIGAND FREE ENERGY PREDICTED BY IDOCK:   -5.70 KCAL/MOL
REMARK 924 INTRA-LIGAND FREE ENERGY PREDICTED BY IDOCK:   -0.67 KCAL/MOL
REMARK 927      BINDING AFFINITY PREDICTED BY RF-SCORE:    0.00 PKD
ROOT
HETATM    1  C   UNL     1     -10.943  16.450  64.731  1.00  0.00    -0.231 C  
HETATM    2  N   UNL     1     -10.952  15.941  66.081  1.00  0.00    -0.198 NA 
HETATM    3  C   UNL     1     -10.526  16.725  67.128  1.00  0.00    -0.299 A  
HETATM    4  N   UNL     1     -10.688  16.131  68.281  1.00  0.00    -0.292 NA 
HETATM    5  C   UNL     1     -11.260  14.911  67.975  1.00  0.00    -0.308 A  
HETATM    6  C   UNL     1     -11.419  14.748  66.594  1.00  0.00    -0.335 A  
HETATM    7  N   UNL     1     -11.666  14.053  69.073  1.00  0.00    -0.307 N  
HETATM    8  O   UNL     1     -11.548  14.496  70.222  1.00  0.00    -0.273 OA 
HETATM    9  O   UNL     1     -12.112  12.929  68.790  1.00  0.00    -0.280 OA 
ENDROOT
BRANCH   6  10
HETATM   10  S   UNL     1     -12.273  13.504  65.704  1.00  0.00    -0.480 SA 
BRANCH  10  11
HETATM   11  C   UNL     1     -11.111  12.319  65.082  1.00  0.00    -0.317 A  
HETATM   12  N   UNL     1     -10.721  12.351  63.788  1.00  0.00    -0.424 NA 
HETATM   13  C   UNL     1     -10.016  11.308  63.296  1.00  0.00    -0.393 A  
HETATM   14  N   UNL     1      -9.597  10.221  63.943  1.00  0.00    -0.300 NA 
HETATM   15  C   UNL     1     -10.000  10.191  65.223  1.00  0.00    -0.311 A  
HETATM   16  C   UNL     1     -10.770  11.185  65.807  1.00  0.00    -0.188 A  
HETATM   17  N   UNL     1     -11.053  10.689  67.056  1.00  0.00    -0.240 NA 
HETATM   18  H   UNL     1     -11.652  11.127  67.756  1.00  0.00     0.000 HD 
HETATM   19  C   UNL     1     -10.385   9.498  67.194  1.00  0.00    -0.253 A  
HETATM   20  N   UNL     1      -9.749   9.168  66.093  1.00  0.00    -0.270 NA 
ENDBRANCH  10  11
ENDBRANCH   6  10
TORSDOF 2
ENDMDL
MODEL       70
REMARK 921   NORMALIZED FREE ENERGY PREDICTED BY IDOCK:   -5.40 KCAL/MOL
REMARK 922        TOTAL FREE ENERGY PREDICTED BY IDOCK:   -6.35 KCAL/MOL
REMARK 923 INTER-LIGAND FREE ENERGY PREDICTED BY IDOCK:   -5.94 KCAL/MOL
REMARK 924 INTRA-LIGAND FREE ENERGY PREDICTED BY IDOCK:   -0.41 KCAL/MOL
REMARK 927      BINDING AFFINITY PREDICTED BY RF-SCORE:    0.00 PKD
ROOT
HETATM    1  C   UNL     1     -10.926  14.098  64.552  1.00  0.00    -0.328 C  
HETATM    2  N   UNL     1     -11.190  14.271  65.959  1.00  0.00    -0.319 NA 
HETATM    3  C   UNL     1     -12.256  13.637  66.556  1.00  0.00    -0.404 A  
HETATM    4  N   UNL     1     -12.286  13.842  67.847  1.00  0.00    -0.261 NA 
HETATM    5  C   UNL     1     -11.181  14.631  68.107  1.00  0.00    -0.289 A  
HETATM    6  C   UNL     1     -10.481  14.941  66.936  1.00  0.00    -0.280 A  
HETATM    7  N   UNL     1     -10.877  14.943  69.492  1.00  0.00    -0.256 N  
HETATM    8  O   UNL     1     -11.579  14.420  70.366  1.00  0.00    -0.270 OA 
HETATM    9  O   UNL     1      -9.927  15.711  69.713  1.00  0.00    -0.277 OA 
ENDROOT
BRANCH   6  10
HETATM   10  S   UNL     1      -8.922  15.714  66.735  1.00  0.00    -0.286 SA 
BRANCH  10  11
HETATM   11  C   UNL     1      -9.119  17.474  66.824  1.00  0.00    -0.262 A  
HETATM   12  N   UNL     1     -10.293  18.016  67.218  1.00  0.00    -0.364 NA 
HETATM   13  C   UNL     1     -10.480  19.345  67.060  1.00  0.00    -0.463 A  
HETATM   14  N   UNL     1      -9.619  20.245  66.587  1.00  0.00    -0.400 NA 
HETATM   15  C   UNL     1      -8.462  19.696  66.186  1.00  0.00    -0.334 A  
HETATM   16  C   UNL     1      -8.193  18.338  66.257  1.00  0.00    -0.212 A  
HETATM   17  N   UNL     1      -6.977  18.212  65.630  1.00  0.00    -0.502 NA 
HETATM   18  H   UNL     1      -6.485  17.338  65.442  1.00  0.00     0.000 HD 
HETATM   19  C   UNL     1      -6.543  19.472  65.303  1.00  0.00    -0.275 A  
HETATM   20  N   UNL     1      -7.430  20.388  65.618  1.00  0.00    -0.158 NA 
ENDBRANCH  10  11
ENDBRANCH   6  10
TORSDOF 2
ENDMDL
MODEL       71
REMARK 921   NORMALIZED FREE ENERGY PREDICTED BY IDOCK:   -5.40 KCAL/MOL
REMARK 922        TOTAL FREE ENERGY PREDICTED BY IDOCK:   -6.35 KCAL/MOL
REMARK 923 INTER-LIGAND FREE ENERGY PREDICTED BY IDOCK:   -6.31 KCAL/MOL
REMARK 924 INTRA-LIGAND FREE ENERGY PREDICTED BY IDOCK:   -0.04 KCAL/MOL
REMARK 927      BINDING AFFINITY PREDICTED BY RF-SCORE:    0.00 PKD
ROOT
HETATM    1  C   UNL     1     -12.643  12.182  63.696  1.00  0.00    -0.504 C  
HETATM    2  N   UNL     1     -11.429  11.895  64.421  1.00  0.00    -0.336 NA 
HETATM    3  C   UNL     1     -10.436  11.132  63.852  1.00  0.00    -0.381 A  
HETATM    4  N   UNL     1      -9.381  11.050  64.619  1.00  0.00    -0.215 NA 
HETATM    5  C   UNL     1      -9.693  11.808  65.733  1.00  0.00    -0.237 A  
HETATM    6  C   UNL     1     -10.987  12.335  65.652  1.00  0.00    -0.299 A  
HETATM    7  N   UNL     1      -8.661  12.003  66.735  1.00  0.00    -0.196 N  
HETATM    8  O   UNL     1      -7.537  11.545  66.499  1.00  0.00    -0.124 OA 
HETATM    9  O   UNL     1      -8.971  12.622  67.766  1.00  0.00    -0.171 OA 
ENDROOT
BRANCH   6  10
HETATM   10  S   UNL     1     -11.780  13.516  66.675  1.00  0.00    -0.410 SA 
BRANCH  10  11
HETATM   11  C   UNL     1     -11.864  12.899  68.335  1.00  0.00    -0.318 A  
HETATM   12  N   UNL     1     -11.918  11.570  68.573  1.00  0.00    -0.529 NA 
HETATM   13  C   UNL     1     -12.206  11.145  69.823  1.00  0.00    -0.300 A  
HETATM   14  N   UNL     1     -12.416  11.882  70.913  1.00  0.00    -0.353 NA 
HETATM   15  C   UNL     1     -12.374  13.200  70.664  1.00  0.00    -0.326 A  
HETATM   16  C   UNL     1     -12.138  13.735  69.408  1.00  0.00    -0.328 A  
HETATM   17  N   UNL     1     -12.314  15.086  69.589  1.00  0.00    -0.534 NA 
HETATM   18  H   UNL     1     -12.276  15.800  68.862  1.00  0.00     0.000 HD 
HETATM   19  C   UNL     1     -12.550  15.301  70.924  1.00  0.00    -0.412 A  
HETATM   20  N   UNL     1     -12.603  14.173  71.595  1.00  0.00    -0.341 NA 
ENDBRANCH  10  11
ENDBRANCH   6  10
TORSDOF 2
ENDMDL
MODEL       72
REMARK 921   NORMALIZED FREE ENERGY PREDICTED BY IDOCK:   -5.40 KCAL/MOL
REMARK 922        TOTAL FREE ENERGY PREDICTED BY IDOCK:   -6.35 KCAL/MOL
REMARK 923 INTER-LIGAND FREE ENERGY PREDICTED BY IDOCK:   -5.66 KCAL/MOL
REMARK 924 INTRA-LIGAND FREE ENERGY PREDICTED BY IDOCK:   -0.69 KCAL/MOL
REMARK 927      BINDING AFFINITY PREDICTED BY RF-SCORE:    0.00 PKD
ROOT
HETATM    1  C   UNL     1      -8.093  11.355  68.626  1.00  0.00    -0.141 C  
HETATM    2  N   UNL     1      -8.673  12.509  67.983  1.00  0.00    -0.179 NA 
HETATM    3  C   UNL     1      -7.872  13.492  67.450  1.00  0.00    -0.147 A  
HETATM    4  N   UNL     1      -8.568  14.411  66.835  1.00  0.00    -0.199 NA 
HETATM    5  C   UNL     1      -9.883  14.001  66.956  1.00  0.00    -0.260 A  
HETATM    6  C   UNL     1      -9.988  12.817  67.695  1.00  0.00    -0.217 A  
HETATM    7  N   UNL     1     -10.904  14.771  66.269  1.00  0.00    -0.315 N  
HETATM    8  O   UNL     1     -10.530  15.706  65.550  1.00  0.00    -0.349 OA 
HETATM    9  O   UNL     1     -12.088  14.440  66.442  1.00  0.00    -0.414 OA 
ENDROOT
BRANCH   6  10
HETATM   10  S   UNL     1     -11.374  11.778  67.954  1.00  0.00    -0.309 SA 
BRANCH  10  11
HETATM   11  C   UNL     1     -11.993  12.018  69.598  1.00  0.00    -0.293 A  
HETATM   12  N   UNL     1     -12.290  10.958  70.383  1.00  0.00    -0.333 NA 
HETATM   13  C   UNL     1     -12.965  11.171  71.534  1.00  0.00    -0.437 A  
HETATM   14  N   UNL     1     -13.363  12.333  72.050  1.00  0.00    -0.477 NA 
HETATM   15  C   UNL     1     -13.076  13.378  71.258  1.00  0.00    -0.238 A  
HETATM   16  C   UNL     1     -12.434  13.259  70.035  1.00  0.00    -0.100 A  
HETATM   17  N   UNL     1     -12.467  14.533  69.522  1.00  0.00    -0.557 NA 
HETATM   18  H   UNL     1     -12.135  14.820  68.602  1.00  0.00     0.000 HD 
HETATM   19  C   UNL     1     -13.028  15.350  70.471  1.00  0.00    -0.332 A  
HETATM   20  N   UNL     1     -13.416  14.673  71.528  1.00  0.00    -0.366 NA 
ENDBRANCH  10  11
ENDBRANCH   6  10
TORSDOF 2
ENDMDL
MODEL       73
REMARK 921   NORMALIZED FREE ENERGY PREDICTED BY IDOCK:   -5.39 KCAL/MOL
REMARK 922        TOTAL FREE ENERGY PREDICTED BY IDOCK:   -6.34 KCAL/MOL
REMARK 923 INTER-LIGAND FREE ENERGY PREDICTED BY IDOCK:   -6.01 KCAL/MOL
REMARK 924 INTRA-LIGAND FREE ENERGY PREDICTED BY IDOCK:   -0.33 KCAL/MOL
REMARK 927      BINDING AFFINITY PREDICTED BY RF-SCORE:    0.00 PKD
ROOT
HETATM    1  C   UNL     1     -12.434  14.151  70.291  1.00  0.00    -0.353 C  
HETATM    2  N   UNL     1     -11.890  14.708  69.077  1.00  0.00    -0.311 NA 
HETATM    3  C   UNL     1     -11.478  16.020  69.030  1.00  0.00    -0.360 A  
HETATM    4  N   UNL     1     -10.935  16.322  67.880  1.00  0.00    -0.333 NA 
HETATM    5  C   UNL     1     -10.980  15.150  67.148  1.00  0.00    -0.326 A  
HETATM    6  C   UNL     1     -11.597  14.118  67.864  1.00  0.00    -0.338 A  
HETATM    7  N   UNL     1     -10.342  15.136  65.844  1.00  0.00    -0.305 N  
HETATM    8  O   UNL     1      -9.728  16.151  65.494  1.00  0.00    -0.455 OA 
HETATM    9  O   UNL     1     -10.449  14.103  65.162  1.00  0.00    -0.353 OA 
ENDROOT
BRANCH   6  10
HETATM   10  S   UNL     1     -11.715  12.410  67.489  1.00  0.00    -0.308 SA 
BRANCH  10  11
HETATM   11  C   UNL     1     -10.724  11.485  68.631  1.00  0.00    -0.207 A  
HETATM   12  N   UNL     1      -9.413  11.265  68.384  1.00  0.00    -0.186 NA 
HETATM   13  C   UNL     1      -8.748  10.375  69.152  1.00  0.00    -0.166 A  
HETATM   14  N   UNL     1      -9.209   9.681  70.192  1.00  0.00    -0.241 NA 
HETATM   15  C   UNL     1     -10.514   9.895  70.422  1.00  0.00    -0.285 A  
HETATM   16  C   UNL     1     -11.296  10.748  69.658  1.00  0.00    -0.294 A  
HETATM   17  N   UNL     1     -12.564  10.561  70.153  1.00  0.00    -0.498 NA 
HETATM   18  H   UNL     1     -13.419  10.986  69.794  1.00  0.00     0.000 HD 
HETATM   19  C   UNL     1     -12.474   9.701  71.219  1.00  0.00    -0.355 A  
HETATM   20  N   UNL     1     -11.244   9.274  71.395  1.00  0.00    -0.335 NA 
ENDBRANCH  10  11
ENDBRANCH   6  10
TORSDOF 2
ENDMDL
MODEL       74
REMARK 921   NORMALIZED FREE ENERGY PREDICTED BY IDOCK:   -5.39 KCAL/MOL
REMARK 922        TOTAL FREE ENERGY PREDICTED BY IDOCK:   -6.34 KCAL/MOL
REMARK 923 INTER-LIGAND FREE ENERGY PREDICTED BY IDOCK:   -6.01 KCAL/MOL
REMARK 924 INTRA-LIGAND FREE ENERGY PREDICTED BY IDOCK:   -0.33 KCAL/MOL
REMARK 927      BINDING AFFINITY PREDICTED BY RF-SCORE:    0.00 PKD
ROOT
HETATM    1  C   UNL     1     -12.028  14.580  68.365  1.00  0.00    -0.274 C  
HETATM    2  N   UNL     1     -11.865  15.041  69.722  1.00  0.00    -0.301 NA 
HETATM    3  C   UNL     1     -11.284  16.260  69.983  1.00  0.00    -0.319 A  
HETATM    4  N   UNL     1     -11.300  16.546  71.259  1.00  0.00    -0.170 NA 
HETATM    5  C   UNL     1     -11.935  15.473  71.855  1.00  0.00    -0.427 A  
HETATM    6  C   UNL     1     -12.284  14.494  70.918  1.00  0.00    -0.339 A  
HETATM    7  N   UNL     1     -12.206  15.547  73.280  1.00  0.00    -0.447 N  
HETATM    8  O   UNL     1     -11.923  16.600  73.864  1.00  0.00    -0.377 OA 
HETATM    9  O   UNL     1     -12.711  14.550  73.821  1.00  0.00    -0.450 OA 
ENDROOT
BRANCH   6  10
HETATM   10  S   UNL     1     -13.277  13.064  71.110  1.00  0.00     0.111 SA 
BRANCH  10  11
HETATM   11  C   UNL     1     -12.279  11.616  70.883  1.00  0.00    -0.298 A  
HETATM   12  N   UNL     1     -11.314  11.586  69.937  1.00  0.00    -0.231 NA 
HETATM   13  C   UNL     1     -10.730  10.404  69.641  1.00  0.00    -0.265 A  
HETATM   14  N   UNL     1     -10.951   9.216  70.202  1.00  0.00    -0.239 NA 
HETATM   15  C   UNL     1     -11.920   9.252  71.130  1.00  0.00    -0.322 A  
HETATM   16  C   UNL     1     -12.615  10.403  71.468  1.00  0.00    -0.439 A  
HETATM   17  N   UNL     1     -13.578   9.959  72.341  1.00  0.00    -0.623 NA 
HETATM   18  H   UNL     1     -14.318  10.524  72.758  1.00  0.00     0.000 HD 
HETATM   19  C   UNL     1     -13.367   8.620  72.551  1.00  0.00    -0.292 A  
HETATM   20  N   UNL     1     -12.375   8.165  71.820  1.00  0.00    -0.307 NA 
ENDBRANCH  10  11
ENDBRANCH   6  10
TORSDOF 2
ENDMDL
MODEL       75
REMARK 921   NORMALIZED FREE ENERGY PREDICTED BY IDOCK:   -5.37 KCAL/MOL
REMARK 922        TOTAL FREE ENERGY PREDICTED BY IDOCK:   -6.32 KCAL/MOL
REMARK 923 INTER-LIGAND FREE ENERGY PREDICTED BY IDOCK:   -5.97 KCAL/MOL
REMARK 924 INTRA-LIGAND FREE ENERGY PREDICTED BY IDOCK:   -0.35 KCAL/MOL
REMARK 927      BINDING AFFINITY PREDICTED BY RF-SCORE:    0.00 PKD
ROOT
HETATM    1  C   UNL     1      -8.692  10.208  65.248  1.00  0.00    -0.165 C  
HETATM    2  N   UNL     1      -9.742  11.195  65.177  1.00  0.00    -0.238 NA 
HETATM    3  C   UNL     1     -10.615  11.216  64.114  1.00  0.00    -0.368 A  
HETATM    4  N   UNL     1     -11.547  12.120  64.263  1.00  0.00    -0.354 NA 
HETATM    5  C   UNL     1     -11.280  12.705  65.487  1.00  0.00    -0.302 A  
HETATM    6  C   UNL     1     -10.134  12.163  66.080  1.00  0.00    -0.235 A  
HETATM    7  N   UNL     1     -12.221  13.689  65.991  1.00  0.00    -0.434 N  
HETATM    8  O   UNL     1     -13.248  13.892  65.333  1.00  0.00    -0.750 OA 
HETATM    9  O   UNL     1     -11.937  14.263  67.056  1.00  0.00    -0.414 OA 
ENDROOT
BRANCH   6  10
HETATM   10  S   UNL     1      -9.494  12.392  67.694  1.00  0.00    -0.197 SA 
BRANCH  10  11
HETATM   11  C   UNL     1      -9.992  11.038  68.725  1.00  0.00    -0.207 A  
HETATM   12  N   UNL     1      -9.595   9.777  68.445  1.00  0.00    -0.146 NA 
HETATM   13  C   UNL     1     -10.171   8.752  69.111  1.00  0.00    -0.207 A  
HETATM   14  N   UNL     1     -11.087   8.811  70.077  1.00  0.00    -0.208 NA 
HETATM   15  C   UNL     1     -11.485  10.065  70.339  1.00  0.00    -0.314 A  
HETATM   16  C   UNL     1     -10.994  11.179  69.675  1.00  0.00    -0.192 A  
HETATM   17  N   UNL     1     -11.759  12.212  70.160  1.00  0.00    -0.525 NA 
HETATM   18  H   UNL     1     -11.719  13.185  69.854  1.00  0.00     0.000 HD 
HETATM   19  C   UNL     1     -12.585  11.702  71.129  1.00  0.00    -0.335 A  
HETATM   20  N   UNL     1     -12.447  10.401  71.249  1.00  0.00    -0.379 NA 
ENDBRANCH  10  11
ENDBRANCH   6  10
TORSDOF 2
ENDMDL
MODEL       76
REMARK 921   NORMALIZED FREE ENERGY PREDICTED BY IDOCK:   -5.33 KCAL/MOL
REMARK 922        TOTAL FREE ENERGY PREDICTED BY IDOCK:   -6.27 KCAL/MOL
REMARK 923 INTER-LIGAND FREE ENERGY PREDICTED BY IDOCK:   -5.92 KCAL/MOL
REMARK 924 INTRA-LIGAND FREE ENERGY PREDICTED BY IDOCK:   -0.36 KCAL/MOL
REMARK 927      BINDING AFFINITY PREDICTED BY RF-SCORE:    0.00 PKD
ROOT
HETATM    1  C   UNL     1     -10.497  13.564  68.040  1.00  0.00    -0.242 C  
HETATM    2  N   UNL     1     -11.195  13.648  69.300  1.00  0.00    -0.252 NA 
HETATM    3  C   UNL     1     -11.309  14.850  69.960  1.00  0.00    -0.274 A  
HETATM    4  N   UNL     1     -12.046  14.750  71.035  1.00  0.00    -0.309 NA 
HETATM    5  C   UNL     1     -12.444  13.427  71.071  1.00  0.00    -0.353 A  
HETATM    6  C   UNL     1     -11.906  12.697  70.004  1.00  0.00    -0.285 A  
HETATM    7  N   UNL     1     -13.377  13.023  72.107  1.00  0.00    -0.522 N  
HETATM    8  O   UNL     1     -13.823  13.904  72.852  1.00  0.00    -0.662 OA 
HETATM    9  O   UNL     1     -13.673  11.819  72.177  1.00  0.00    -0.251 OA 
ENDROOT
BRANCH   6  10
HETATM   10  S   UNL     1     -12.262  11.067  69.471  1.00  0.00    -0.189 SA 
BRANCH  10  11
HETATM   11  C   UNL     1     -11.382   9.909  70.486  1.00  0.00    -0.327 A  
HETATM   12  N   UNL     1     -12.007   9.268  71.499  1.00  0.00    -0.342 NA 
HETATM   13  C   UNL     1     -11.261   8.571  72.385  1.00  0.00    -0.329 A  
HETATM   14  N   UNL     1      -9.942   8.382  72.379  1.00  0.00    -0.304 NA 
HETATM   15  C   UNL     1      -9.329   9.033  71.377  1.00  0.00    -0.240 A  
HETATM   16  C   UNL     1      -9.998   9.816  70.449  1.00  0.00    -0.233 A  
HETATM   17  N   UNL     1      -8.988  10.382  69.710  1.00  0.00    -0.397 NA 
HETATM   18  H   UNL     1      -9.101  11.068  68.964  1.00  0.00     0.000 HD 
HETATM   19  C   UNL     1      -7.800   9.858  70.154  1.00  0.00    -0.171 A  
HETATM   20  N   UNL     1      -7.978   9.047  71.172  1.00  0.00    -0.238 NA 
ENDBRANCH  10  11
ENDBRANCH   6  10
TORSDOF 2
ENDMDL
MODEL       77
REMARK 921   NORMALIZED FREE ENERGY PREDICTED BY IDOCK:   -5.32 KCAL/MOL
REMARK 922        TOTAL FREE ENERGY PREDICTED BY IDOCK:   -6.26 KCAL/MOL
REMARK 923 INTER-LIGAND FREE ENERGY PREDICTED BY IDOCK:   -5.84 KCAL/MOL
REMARK 924 INTRA-LIGAND FREE ENERGY PREDICTED BY IDOCK:   -0.43 KCAL/MOL
REMARK 927      BINDING AFFINITY PREDICTED BY RF-SCORE:    0.00 PKD
ROOT
HETATM    1  C   UNL     1      -8.435  14.327  68.618  1.00  0.00    -0.142 C  
HETATM    2  N   UNL     1      -9.681  14.231  67.897  1.00  0.00    -0.217 NA 
HETATM    3  C   UNL     1     -10.406  15.361  67.597  1.00  0.00    -0.262 A  
HETATM    4  N   UNL     1     -11.457  15.089  66.868  1.00  0.00    -0.308 NA 
HETATM    5  C   UNL     1     -11.407  13.722  66.669  1.00  0.00    -0.328 A  
HETATM    6  C   UNL     1     -10.313  13.145  67.325  1.00  0.00    -0.243 A  
HETATM    7  N   UNL     1     -12.396  13.124  65.792  1.00  0.00    -0.450 N  
HETATM    8  O   UNL     1     -13.181  13.882  65.210  1.00  0.00    -0.774 OA 
HETATM    9  O   UNL     1     -12.389  11.887  65.676  1.00  0.00    -0.351 OA 
ENDROOT
BRANCH   6  10
HETATM   10  S   UNL     1      -9.678  11.516  67.222  1.00  0.00    -0.183 SA 
BRANCH  10  11
HETATM   11  C   UNL     1      -9.664  10.784  68.837  1.00  0.00    -0.198 A  
HETATM   12  N   UNL     1      -8.549  10.184  69.311  1.00  0.00    -0.163 NA 
HETATM   13  C   UNL     1      -8.638   9.447  70.440  1.00  0.00    -0.230 A  
HETATM   14  N   UNL     1      -9.707   9.251  71.210  1.00  0.00    -0.268 NA 
HETATM   15  C   UNL     1     -10.812   9.838  70.724  1.00  0.00    -0.333 A  
HETATM   16  C   UNL     1     -10.836  10.571  69.548  1.00  0.00    -0.256 A  
HETATM   17  N   UNL     1     -12.166  10.865  69.372  1.00  0.00    -0.524 NA 
HETATM   18  H   UNL     1     -12.575  11.351  68.574  1.00  0.00     0.000 HD 
HETATM   19  C   UNL     1     -12.847  10.389  70.465  1.00  0.00    -0.254 A  
HETATM   20  N   UNL     1     -12.051   9.753  71.293  1.00  0.00    -0.353 NA 
ENDBRANCH  10  11
ENDBRANCH   6  10
TORSDOF 2
ENDMDL
MODEL       78
REMARK 921   NORMALIZED FREE ENERGY PREDICTED BY IDOCK:   -5.29 KCAL/MOL
REMARK 922        TOTAL FREE ENERGY PREDICTED BY IDOCK:   -6.22 KCAL/MOL
REMARK 923 INTER-LIGAND FREE ENERGY PREDICTED BY IDOCK:   -5.80 KCAL/MOL
REMARK 924 INTRA-LIGAND FREE ENERGY PREDICTED BY IDOCK:   -0.42 KCAL/MOL
REMARK 927      BINDING AFFINITY PREDICTED BY RF-SCORE:    0.00 PKD
ROOT
HETATM    1  C   UNL     1     -12.684  14.407  65.396  1.00  0.00    -0.285 C  
HETATM    2  N   UNL     1     -11.953  13.203  65.080  1.00  0.00    -0.369 NA 
HETATM    3  C   UNL     1     -12.253  12.476  63.951  1.00  0.00    -0.503 A  
HETATM    4  N   UNL     1     -11.434  11.471  63.785  1.00  0.00    -0.363 NA 
HETATM    5  C   UNL     1     -10.549  11.556  64.843  1.00  0.00    -0.303 A  
HETATM    6  C   UNL     1     -10.862  12.622  65.694  1.00  0.00    -0.274 A  
HETATM    7  N   UNL     1      -9.435  10.626  64.876  1.00  0.00    -0.221 N  
HETATM    8  O   UNL     1      -9.297   9.861  63.914  1.00  0.00    -0.267 OA 
HETATM    9  O   UNL     1      -8.687  10.660  65.867  1.00  0.00    -0.164 OA 
ENDROOT
BRANCH   6  10
HETATM   10  S   UNL     1      -9.952  13.289  67.034  1.00  0.00    -0.243 SA 
BRANCH  10  11
HETATM   11  C   UNL     1     -10.767  12.891  68.557  1.00  0.00    -0.254 A  
HETATM   12  N   UNL     1     -10.942  11.602  68.928  1.00  0.00    -0.221 NA 
HETATM   13  C   UNL     1     -11.757  11.331  69.971  1.00  0.00    -0.346 A  
HETATM   14  N   UNL     1     -12.412  12.194  70.748  1.00  0.00    -0.325 NA 
HETATM   15  C   UNL     1     -12.244  13.469  70.363  1.00  0.00    -0.356 A  
HETATM   16  C   UNL     1     -11.471  13.846  69.277  1.00  0.00    -0.297 A  
HETATM   17  N   UNL     1     -11.687  15.199  69.175  1.00  0.00    -0.311 NA 
HETATM   18  H   UNL     1     -11.322  15.814  68.448  1.00  0.00     0.000 HD 
HETATM   19  C   UNL     1     -12.482  15.576  70.228  1.00  0.00    -0.367 A  
HETATM   20  N   UNL     1     -12.843  14.544  70.957  1.00  0.00    -0.334 NA 
ENDBRANCH  10  11
ENDBRANCH   6  10
TORSDOF 2
ENDMDL
MODEL       79
REMARK 921   NORMALIZED FREE ENERGY PREDICTED BY IDOCK:   -5.28 KCAL/MOL
REMARK 922        TOTAL FREE ENERGY PREDICTED BY IDOCK:   -6.22 KCAL/MOL
REMARK 923 INTER-LIGAND FREE ENERGY PREDICTED BY IDOCK:   -5.78 KCAL/MOL
REMARK 924 INTRA-LIGAND FREE ENERGY PREDICTED BY IDOCK:   -0.43 KCAL/MOL
REMARK 927      BINDING AFFINITY PREDICTED BY RF-SCORE:    0.00 PKD
ROOT
HETATM    1  C   UNL     1      -7.846  11.611  68.661  1.00  0.00    -0.132 C  
HETATM    2  N   UNL     1      -8.671  12.619  68.041  1.00  0.00    -0.183 NA 
HETATM    3  C   UNL     1      -8.104  13.737  67.473  1.00  0.00    -0.185 A  
HETATM    4  N   UNL     1      -8.995  14.492  66.885  1.00  0.00    -0.239 NA 
HETATM    5  C   UNL     1     -10.195  13.830  67.064  1.00  0.00    -0.254 A  
HETATM    6  C   UNL     1     -10.031  12.657  67.809  1.00  0.00    -0.218 A  
HETATM    7  N   UNL     1     -11.377  14.374  66.419  1.00  0.00    -0.342 N  
HETATM    8  O   UNL     1     -11.228  15.357  65.683  1.00  0.00    -0.300 OA 
HETATM    9  O   UNL     1     -12.463  13.816  66.644  1.00  0.00    -0.386 OA 
ENDROOT
BRANCH   6  10
HETATM   10  S   UNL     1     -11.171  11.366  68.129  1.00  0.00    -0.307 SA 
BRANCH  10  11
HETATM   11  C   UNL     1     -12.091  11.740  69.597  1.00  0.00    -0.258 A  
HETATM   12  N   UNL     1     -12.167  13.009  70.058  1.00  0.00    -0.276 NA 
HETATM   13  C   UNL     1     -12.681  13.224  71.288  1.00  0.00    -0.323 A  
HETATM   14  N   UNL     1     -13.184  12.328  72.137  1.00  0.00    -0.460 NA 
HETATM   15  C   UNL     1     -13.093  11.071  71.677  1.00  0.00    -0.438 A  
HETATM   16  C   UNL     1     -12.535  10.741  70.452  1.00  0.00    -0.347 A  
HETATM   17  N   UNL     1     -12.529   9.367  70.454  1.00  0.00    -0.460 NA 
HETATM   18  H   UNL     1     -12.135   8.766  69.729  1.00  0.00     0.000 HD 
HETATM   19  C   UNL     1     -13.148   8.948  71.604  1.00  0.00    -0.357 A  
HETATM   20  N   UNL     1     -13.489   9.960  72.368  1.00  0.00    -0.323 NA 
ENDBRANCH  10  11
ENDBRANCH   6  10
TORSDOF 2
ENDMDL
MODEL       80
REMARK 921   NORMALIZED FREE ENERGY PREDICTED BY IDOCK:   -5.27 KCAL/MOL
REMARK 922        TOTAL FREE ENERGY PREDICTED BY IDOCK:   -6.20 KCAL/MOL
REMARK 923 INTER-LIGAND FREE ENERGY PREDICTED BY IDOCK:   -5.83 KCAL/MOL
REMARK 924 INTRA-LIGAND FREE ENERGY PREDICTED BY IDOCK:   -0.37 KCAL/MOL
REMARK 927      BINDING AFFINITY PREDICTED BY RF-SCORE:    0.00 PKD
ROOT
HETATM    1  C   UNL     1     -12.426  12.236  64.805  1.00  0.00    -0.302 C  
HETATM    2  N   UNL     1     -11.408  13.181  65.193  1.00  0.00    -0.292 NA 
HETATM    3  C   UNL     1     -11.251  14.364  64.507  1.00  0.00    -0.306 A  
HETATM    4  N   UNL     1     -10.341  15.128  65.052  1.00  0.00    -0.378 NA 
HETATM    5  C   UNL     1      -9.895  14.420  66.153  1.00  0.00    -0.320 A  
HETATM    6  C   UNL     1     -10.529  13.177  66.258  1.00  0.00    -0.285 A  
HETATM    7  N   UNL     1      -8.943  15.065  67.039  1.00  0.00    -0.219 N  
HETATM    8  O   UNL     1      -8.644  16.241  66.801  1.00  0.00    -0.191 OA 
HETATM    9  O   UNL     1      -8.493  14.396  67.983  1.00  0.00    -0.148 OA 
ENDROOT
BRANCH   6  10
HETATM   10  S   UNL     1     -10.489  12.006  67.560  1.00  0.00    -0.216 SA 
BRANCH  10  11
HETATM   11  C   UNL     1     -11.463  12.599  68.918  1.00  0.00    -0.306 A  
HETATM   12  N   UNL     1     -11.493  13.916  69.220  1.00  0.00    -0.281 NA 
HETATM   13  C   UNL     1     -12.058  14.303  70.385  1.00  0.00    -0.339 A  
HETATM   14  N   UNL     1     -12.654  13.541  71.302  1.00  0.00    -0.358 NA 
HETATM   15  C   UNL     1     -12.607  12.234  71.000  1.00  0.00    -0.257 A  
HETATM   16  C   UNL     1     -12.005  11.732  69.857  1.00  0.00    -0.332 A  
HETATM   17  N   UNL     1     -12.075  10.370  70.020  1.00  0.00    -0.439 NA 
HETATM   18  H   UNL     1     -11.678   9.668  69.396  1.00  0.00     0.000 HD 
HETATM   19  C   UNL     1     -12.776  10.123  71.174  1.00  0.00    -0.396 A  
HETATM   20  N   UNL     1     -13.099  11.236  71.793  1.00  0.00    -0.468 NA 
ENDBRANCH  10  11
ENDBRANCH   6  10
TORSDOF 2
ENDMDL
MODEL       81
REMARK 921   NORMALIZED FREE ENERGY PREDICTED BY IDOCK:   -5.25 KCAL/MOL
REMARK 922        TOTAL FREE ENERGY PREDICTED BY IDOCK:   -6.19 KCAL/MOL
REMARK 923 INTER-LIGAND FREE ENERGY PREDICTED BY IDOCK:   -5.81 KCAL/MOL
REMARK 924 INTRA-LIGAND FREE ENERGY PREDICTED BY IDOCK:   -0.37 KCAL/MOL
REMARK 927      BINDING AFFINITY PREDICTED BY RF-SCORE:    0.00 PKD
ROOT
HETATM    1  C   UNL     1      -7.614  15.256  67.383  1.00  0.00    -0.200 C  
HETATM    2  N   UNL     1      -8.064  16.621  67.513  1.00  0.00    -0.165 NA 
HETATM    3  C   UNL     1      -7.214  17.598  67.976  1.00  0.00    -0.216 A  
HETATM    4  N   UNL     1      -7.766  18.783  67.944  1.00  0.00    -0.252 NA 
HETATM    5  C   UNL     1      -9.029  18.571  67.422  1.00  0.00    -0.272 A  
HETATM    6  C   UNL     1      -9.259  17.216  67.161  1.00  0.00    -0.236 A  
HETATM    7  N   UNL     1      -9.860  19.732  67.158  1.00  0.00    -0.360 N  
HETATM    8  O   UNL     1      -9.362  20.849  67.343  1.00  0.00    -0.365 OA 
HETATM    9  O   UNL     1     -11.018  19.530  66.757  1.00  0.00    -0.436 OA 
ENDROOT
BRANCH   6  10
HETATM   10  S   UNL     1     -10.586  16.449  66.313  1.00  0.00    -0.188 SA 
BRANCH  10  11
HETATM   11  C   UNL     1     -11.323  15.220  67.357  1.00  0.00    -0.284 A  
HETATM   12  N   UNL     1     -11.626  15.502  68.644  1.00  0.00    -0.357 NA 
HETATM   13  C   UNL     1     -11.974  14.488  69.466  1.00  0.00    -0.319 A  
HETATM   14  N   UNL     1     -12.106  13.196  69.168  1.00  0.00    -0.267 NA 
HETATM   15  C   UNL     1     -11.790  12.924  67.892  1.00  0.00    -0.339 A  
HETATM   16  C   UNL     1     -11.372  13.884  66.984  1.00  0.00    -0.326 A  
HETATM   17  N   UNL     1     -11.037  13.156  65.868  1.00  0.00    -0.277 NA 
HETATM   18  H   UNL     1     -10.632  13.526  65.008  1.00  0.00     0.000 HD 
HETATM   19  C   UNL     1     -11.347  11.843  66.118  1.00  0.00    -0.324 A  
HETATM   20  N   UNL     1     -11.794  11.674  67.341  1.00  0.00    -0.630 NA 
ENDBRANCH  10  11
ENDBRANCH   6  10
TORSDOF 2
ENDMDL
MODEL       82
REMARK 921   NORMALIZED FREE ENERGY PREDICTED BY IDOCK:   -5.24 KCAL/MOL
REMARK 922        TOTAL FREE ENERGY PREDICTED BY IDOCK:   -6.18 KCAL/MOL
REMARK 923 INTER-LIGAND FREE ENERGY PREDICTED BY IDOCK:   -5.79 KCAL/MOL
REMARK 924 INTRA-LIGAND FREE ENERGY PREDICTED BY IDOCK:   -0.38 KCAL/MOL
REMARK 927      BINDING AFFINITY PREDICTED BY RF-SCORE:    0.00 PKD
ROOT
HETATM    1  C   UNL     1      -9.130  14.963  67.675  1.00  0.00    -0.183 C  
HETATM    2  N   UNL     1     -10.041  14.666  66.596  1.00  0.00    -0.266 NA 
HETATM    3  C   UNL     1     -10.631  15.680  65.878  1.00  0.00    -0.343 A  
HETATM    4  N   UNL     1     -11.354  15.223  64.889  1.00  0.00    -0.399 NA 
HETATM    5  C   UNL     1     -11.217  13.849  64.955  1.00  0.00    -0.342 A  
HETATM    6  C   UNL     1     -10.415  13.462  66.035  1.00  0.00    -0.294 A  
HETATM    7  N   UNL     1     -11.825  13.052  63.905  1.00  0.00    -0.443 N  
HETATM    8  O   UNL     1     -12.366  13.652  62.969  1.00  0.00    -0.672 OA 
HETATM    9  O   UNL     1     -11.760  11.816  64.011  1.00  0.00    -0.372 OA 
ENDROOT
BRANCH   6  10
HETATM   10  S   UNL     1      -9.761  11.887  66.435  1.00  0.00    -0.226 SA 
BRANCH  10  11
HETATM   11  C   UNL     1     -10.584  11.252  67.871  1.00  0.00    -0.194 A  
HETATM   12  N   UNL     1     -11.839  11.652  68.178  1.00  0.00    -0.546 NA 
HETATM   13  C   UNL     1     -12.347  11.327  69.387  1.00  0.00    -0.149 A  
HETATM   14  N   UNL     1     -11.777  10.602  70.350  1.00  0.00    -0.327 NA 
HETATM   15  C   UNL     1     -10.528  10.221  70.042  1.00  0.00    -0.241 A  
HETATM   16  C   UNL     1      -9.898  10.548  68.851  1.00  0.00    -0.201 A  
HETATM   17  N   UNL     1      -8.618  10.078  69.017  1.00  0.00    -0.142 NA 
HETATM   18  H   UNL     1      -7.846  10.190  68.360  1.00  0.00     0.000 HD 
HETATM   19  C   UNL     1      -8.565   9.430  70.225  1.00  0.00    -0.221 A  
HETATM   20  N   UNL     1      -9.705   9.512  70.871  1.00  0.00    -0.235 NA 
ENDBRANCH  10  11
ENDBRANCH   6  10
TORSDOF 2
ENDMDL
MODEL       83
REMARK 921   NORMALIZED FREE ENERGY PREDICTED BY IDOCK:   -5.23 KCAL/MOL
REMARK 922        TOTAL FREE ENERGY PREDICTED BY IDOCK:   -6.16 KCAL/MOL
REMARK 923 INTER-LIGAND FREE ENERGY PREDICTED BY IDOCK:   -5.49 KCAL/MOL
REMARK 924 INTRA-LIGAND FREE ENERGY PREDICTED BY IDOCK:   -0.67 KCAL/MOL
REMARK 927      BINDING AFFINITY PREDICTED BY RF-SCORE:    0.00 PKD
ROOT
HETATM    1  C   UNL     1     -10.501  16.332  65.372  1.00  0.00    -0.343 C  
HETATM    2  N   UNL     1     -10.741  16.038  66.764  1.00  0.00    -0.298 NA 
HETATM    3  C   UNL     1     -10.352  16.921  67.745  1.00  0.00    -0.327 A  
HETATM    4  N   UNL     1     -10.728  16.529  68.934  1.00  0.00    -0.316 NA 
HETATM    5  C   UNL     1     -11.407  15.344  68.718  1.00  0.00    -0.320 A  
HETATM    6  C   UNL     1     -11.413  14.992  67.364  1.00  0.00    -0.317 A  
HETATM    7  N   UNL     1     -12.050  14.710  69.855  1.00  0.00    -0.319 N  
HETATM    8  O   UNL     1     -12.019  15.307  70.938  1.00  0.00    -0.286 OA 
HETATM    9  O   UNL     1     -12.595  13.611  69.668  1.00  0.00    -0.185 OA 
ENDROOT
BRANCH   6  10
HETATM   10  S   UNL     1     -12.301  13.726  66.541  1.00  0.00    -0.320 SA 
BRANCH  10  11
HETATM   11  C   UNL     1     -11.222  12.354  66.231  1.00  0.00    -0.317 A  
HETATM   12  N   UNL     1     -10.674  12.170  65.009  1.00  0.00    -0.286 NA 
HETATM   13  C   UNL     1     -10.045  11.004  64.747  1.00  0.00    -0.308 A  
HETATM   14  N   UNL     1      -9.842   9.977  65.571  1.00  0.00    -0.288 NA 
HETATM   15  C   UNL     1     -10.401  10.161  66.777  1.00  0.00    -0.222 A  
HETATM   16  C   UNL     1     -11.111  11.299  67.127  1.00  0.00    -0.301 A  
HETATM   17  N   UNL     1     -11.604  11.008  68.376  1.00  0.00    -0.420 NA 
HETATM   18  H   UNL     1     -12.227  11.596  68.929  1.00  0.00     0.000 HD 
HETATM   19  C   UNL     1     -11.106   9.784  68.746  1.00  0.00    -0.095 A  
HETATM   20  N   UNL     1     -10.384   9.245  67.790  1.00  0.00    -0.223 NA 
ENDBRANCH  10  11
ENDBRANCH   6  10
TORSDOF 2
ENDMDL
MODEL       84
REMARK 921   NORMALIZED FREE ENERGY PREDICTED BY IDOCK:   -5.22 KCAL/MOL
REMARK 922        TOTAL FREE ENERGY PREDICTED BY IDOCK:   -6.15 KCAL/MOL
REMARK 923 INTER-LIGAND FREE ENERGY PREDICTED BY IDOCK:   -5.95 KCAL/MOL
REMARK 924 INTRA-LIGAND FREE ENERGY PREDICTED BY IDOCK:   -0.19 KCAL/MOL
REMARK 927      BINDING AFFINITY PREDICTED BY RF-SCORE:    0.00 PKD
ROOT
HETATM    1  C   UNL     1     -10.932  10.657  68.558  1.00  0.00    -0.248 C  
HETATM    2  N   UNL     1     -10.488  10.675  67.186  1.00  0.00    -0.231 NA 
HETATM    3  C   UNL     1      -9.684   9.673  66.695  1.00  0.00    -0.209 A  
HETATM    4  N   UNL     1      -9.456   9.811  65.415  1.00  0.00    -0.250 NA 
HETATM    5  C   UNL     1     -10.157  10.945  65.050  1.00  0.00    -0.300 A  
HETATM    6  C   UNL     1     -10.800  11.529  66.147  1.00  0.00    -0.278 A  
HETATM    7  N   UNL     1     -10.189  11.303  63.643  1.00  0.00    -0.355 N  
HETATM    8  O   UNL     1      -9.652  10.529  62.841  1.00  0.00    -0.310 OA 
HETATM    9  O   UNL     1     -10.759  12.362  63.333  1.00  0.00    -0.446 OA 
ENDROOT
BRANCH   6  10
HETATM   10  S   UNL     1     -11.971  12.832  66.195  1.00  0.00    -0.367 SA 
BRANCH  10  11
HETATM   11  C   UNL     1     -11.488  14.015  67.424  1.00  0.00    -0.348 A  
HETATM   12  N   UNL     1     -11.797  13.820  68.725  1.00  0.00    -0.346 NA 
HETATM   13  C   UNL     1     -11.615  14.838  69.595  1.00  0.00    -0.304 A  
HETATM   14  N   UNL     1     -11.116  16.049  69.350  1.00  0.00    -0.306 NA 
HETATM   15  C   UNL     1     -10.826  16.238  68.054  1.00  0.00    -0.339 A  
HETATM   16  C   UNL     1     -11.024  15.276  67.076  1.00  0.00    -0.324 A  
HETATM   17  N   UNL     1     -10.724  15.930  65.906  1.00  0.00    -0.317 NA 
HETATM   18  H   UNL     1     -10.812  15.550  64.964  1.00  0.00     0.000 HD 
HETATM   19  C   UNL     1     -10.284  17.189  66.233  1.00  0.00    -0.334 A  
HETATM   20  N   UNL     1     -10.347  17.404  67.527  1.00  0.00    -0.339 NA 
ENDBRANCH  10  11
ENDBRANCH   6  10
TORSDOF 2
ENDMDL
MODEL       85
REMARK 921   NORMALIZED FREE ENERGY PREDICTED BY IDOCK:   -5.21 KCAL/MOL
REMARK 922        TOTAL FREE ENERGY PREDICTED BY IDOCK:   -6.14 KCAL/MOL
REMARK 923 INTER-LIGAND FREE ENERGY PREDICTED BY IDOCK:   -5.68 KCAL/MOL
REMARK 924 INTRA-LIGAND FREE ENERGY PREDICTED BY IDOCK:   -0.46 KCAL/MOL
REMARK 927      BINDING AFFINITY PREDICTED BY RF-SCORE:    0.00 PKD
ROOT
HETATM    1  C   UNL     1      -8.549   8.845  65.038  1.00  0.00    -0.176 C  
HETATM    2  N   UNL     1      -9.371   8.902  66.222  1.00  0.00    -0.200 NA 
HETATM    3  C   UNL     1      -9.942   7.759  66.735  1.00  0.00    -0.261 A  
HETATM    4  N   UNL     1     -10.578   7.990  67.853  1.00  0.00    -0.185 NA 
HETATM    5  C   UNL     1     -10.402   9.341  68.090  1.00  0.00    -0.215 A  
HETATM    6  C   UNL     1      -9.666   9.952  67.068  1.00  0.00    -0.182 A  
HETATM    7  N   UNL     1     -10.909   9.887  69.336  1.00  0.00    -0.230 N  
HETATM    8  O   UNL     1     -11.401   9.097  70.150  1.00  0.00    -0.231 OA 
HETATM    9  O   UNL     1     -10.812  11.113  69.508  1.00  0.00    -0.239 OA 
ENDROOT
BRANCH   6  10
HETATM   10  S   UNL     1      -8.991  11.567  66.986  1.00  0.00    -0.179 SA 
BRANCH  10  11
HETATM   11  C   UNL     1     -10.248  12.706  66.472  1.00  0.00    -0.243 A  
HETATM   12  N   UNL     1     -10.715  13.646  67.324  1.00  0.00    -0.277 NA 
HETATM   13  C   UNL     1     -11.820  14.345  66.979  1.00  0.00    -0.412 A  
HETATM   14  N   UNL     1     -12.523  14.264  65.850  1.00  0.00    -0.423 NA 
HETATM   15  C   UNL     1     -12.061  13.319  65.017  1.00  0.00    -0.408 A  
HETATM   16  C   UNL     1     -10.968  12.515  65.301  1.00  0.00    -0.293 A  
HETATM   17  N   UNL     1     -10.936  11.624  64.255  1.00  0.00    -0.343 NA 
HETATM   18  H   UNL     1     -10.293  10.839  64.153  1.00  0.00     0.000 HD 
HETATM   19  C   UNL     1     -11.924  11.981  63.372  1.00  0.00    -0.471 A  
HETATM   20  N   UNL     1     -12.628  12.998  63.816  1.00  0.00    -0.712 NA 
ENDBRANCH  10  11
ENDBRANCH   6  10
TORSDOF 2
ENDMDL
MODEL       86
REMARK 921   NORMALIZED FREE ENERGY PREDICTED BY IDOCK:   -5.20 KCAL/MOL
REMARK 922        TOTAL FREE ENERGY PREDICTED BY IDOCK:   -6.12 KCAL/MOL
REMARK 923 INTER-LIGAND FREE ENERGY PREDICTED BY IDOCK:   -5.39 KCAL/MOL
REMARK 924 INTRA-LIGAND FREE ENERGY PREDICTED BY IDOCK:   -0.73 KCAL/MOL
REMARK 927      BINDING AFFINITY PREDICTED BY RF-SCORE:    0.00 PKD
ROOT
HETATM    1  C   UNL     1      -8.028   7.712  67.446  1.00  0.00    -0.119 C  
HETATM    2  N   UNL     1      -8.936   8.813  67.232  1.00  0.00    -0.131 NA 
HETATM    3  C   UNL     1      -9.479   9.043  65.989  1.00  0.00    -0.256 A  
HETATM    4  N   UNL     1     -10.341  10.025  66.006  1.00  0.00    -0.199 NA 
HETATM    5  C   UNL     1     -10.376  10.445  67.323  1.00  0.00    -0.228 A  
HETATM    6  C   UNL     1      -9.483   9.718  68.119  1.00  0.00    -0.135 A  
HETATM    7  N   UNL     1     -11.338  11.469  67.687  1.00  0.00    -0.284 N  
HETATM    8  O   UNL     1     -12.126  11.853  66.814  1.00  0.00    -0.593 OA 
HETATM    9  O   UNL     1     -11.313  11.892  68.854  1.00  0.00    -0.233 OA 
ENDROOT
BRANCH   6  10
HETATM   10  S   UNL     1      -9.295   9.702  69.861  1.00  0.00    -0.237 SA 
BRANCH  10  11
HETATM   11  C   UNL     1     -10.561   8.694  70.584  1.00  0.00    -0.211 A  
HETATM   12  N   UNL     1     -10.573   7.357  70.386  1.00  0.00    -0.223 NA 
HETATM   13  C   UNL     1     -11.666   6.655  70.758  1.00  0.00    -0.388 A  
HETATM   14  N   UNL     1     -12.768   7.106  71.356  1.00  0.00    -0.385 NA 
HETATM   15  C   UNL     1     -12.753   8.436  71.536  1.00  0.00    -0.308 A  
HETATM   16  C   UNL     1     -11.703   9.251  71.142  1.00  0.00    -0.325 A  
HETATM   17  N   UNL     1     -12.162  10.521  71.393  1.00  0.00    -0.350 NA 
HETATM   18  H   UNL     1     -11.676  11.391  71.174  1.00  0.00     0.000 HD 
HETATM   19  C   UNL     1     -13.391  10.410  71.993  1.00  0.00    -0.335 A  
HETATM   20  N   UNL     1     -13.777   9.158  72.081  1.00  0.00    -0.453 NA 
ENDBRANCH  10  11
ENDBRANCH   6  10
TORSDOF 2
ENDMDL
MODEL       87
REMARK 921   NORMALIZED FREE ENERGY PREDICTED BY IDOCK:   -5.20 KCAL/MOL
REMARK 922        TOTAL FREE ENERGY PREDICTED BY IDOCK:   -6.12 KCAL/MOL
REMARK 923 INTER-LIGAND FREE ENERGY PREDICTED BY IDOCK:   -6.00 KCAL/MOL
REMARK 924 INTRA-LIGAND FREE ENERGY PREDICTED BY IDOCK:   -0.12 KCAL/MOL
REMARK 927      BINDING AFFINITY PREDICTED BY RF-SCORE:    0.00 PKD
ROOT
HETATM    1  C   UNL     1      -8.675  18.729  66.230  1.00  0.00    -0.233 C  
HETATM    2  N   UNL     1      -9.411  17.955  67.199  1.00  0.00    -0.260 NA 
HETATM    3  C   UNL     1      -9.481  18.359  68.513  1.00  0.00    -0.334 A  
HETATM    4  N   UNL     1     -10.259  17.583  69.222  1.00  0.00    -0.260 NA 
HETATM    5  C   UNL     1     -10.731  16.641  68.328  1.00  0.00    -0.351 A  
HETATM    6  C   UNL     1     -10.198  16.831  67.048  1.00  0.00    -0.292 A  
HETATM    7  N   UNL     1     -11.721  15.690  68.800  1.00  0.00    -0.377 N  
HETATM    8  O   UNL     1     -12.143  15.825  69.955  1.00  0.00    -0.352 OA 
HETATM    9  O   UNL     1     -12.086  14.801  68.013  1.00  0.00    -0.272 OA 
ENDROOT
BRANCH   6  10
HETATM   10  S   UNL     1     -10.624  16.063  65.532  1.00  0.00    -0.372 SA 
BRANCH  10  11
HETATM   11  C   UNL     1     -10.310  14.322  65.642  1.00  0.00    -0.336 A  
HETATM   12  N   UNL     1      -9.313  13.851  66.424  1.00  0.00    -0.245 NA 
HETATM   13  C   UNL     1      -8.958  12.552  66.312  1.00  0.00    -0.003 A  
HETATM   14  N   UNL     1      -9.501  11.616  65.534  1.00  0.00    -0.221 NA 
HETATM   15  C   UNL     1     -10.480  12.096  64.752  1.00  0.00    -0.294 A  
HETATM   16  C   UNL     1     -10.883  13.422  64.754  1.00  0.00    -0.375 A  
HETATM   17  N   UNL     1     -11.795  13.490  63.730  1.00  0.00    -0.655 NA 
HETATM   18  H   UNL     1     -12.265  14.332  63.397  1.00  0.00     0.000 HD 
HETATM   19  C   UNL     1     -11.962  12.221  63.234  1.00  0.00    -0.403 A  
HETATM   20  N   UNL     1     -11.168  11.360  63.828  1.00  0.00    -0.365 NA 
ENDBRANCH  10  11
ENDBRANCH   6  10
TORSDOF 2
ENDMDL
MODEL       88
REMARK 921   NORMALIZED FREE ENERGY PREDICTED BY IDOCK:   -5.18 KCAL/MOL
REMARK 922        TOTAL FREE ENERGY PREDICTED BY IDOCK:   -6.11 KCAL/MOL
REMARK 923 INTER-LIGAND FREE ENERGY PREDICTED BY IDOCK:   -5.82 KCAL/MOL
REMARK 924 INTRA-LIGAND FREE ENERGY PREDICTED BY IDOCK:   -0.28 KCAL/MOL
REMARK 927      BINDING AFFINITY PREDICTED BY RF-SCORE:    0.00 PKD
ROOT
HETATM    1  C   UNL     1     -11.332  15.855  70.185  1.00  0.00    -0.365 C  
HETATM    2  N   UNL     1     -11.320  15.399  68.816  1.00  0.00    -0.300 NA 
HETATM    3  C   UNL     1     -11.814  14.157  68.487  1.00  0.00    -0.355 A  
HETATM    4  N   UNL     1     -11.800  13.953  67.195  1.00  0.00    -0.389 NA 
HETATM    5  C   UNL     1     -11.289  15.118  66.656  1.00  0.00    -0.234 A  
HETATM    6  C   UNL     1     -10.953  16.043  67.652  1.00  0.00    -0.284 A  
HETATM    7  N   UNL     1     -11.251  15.242  65.210  1.00  0.00    -0.352 N  
HETATM    8  O   UNL     1     -11.751  14.327  64.543  1.00  0.00    -0.399 OA 
HETATM    9  O   UNL     1     -10.724  16.260  64.734  1.00  0.00    -0.680 OA 
ENDROOT
BRANCH   6  10
HETATM   10  S   UNL     1     -10.478  17.723  67.505  1.00  0.00    -0.355 SA 
BRANCH  10  11
HETATM   11  C   UNL     1      -8.981  17.995  68.415  1.00  0.00    -0.279 A  
HETATM   12  N   UNL     1      -8.536  19.250  68.647  1.00  0.00    -0.365 NA 
HETATM   13  C   UNL     1      -7.289  19.416  69.142  1.00  0.00    -0.329 A  
HETATM   14  N   UNL     1      -6.410  18.476  69.486  1.00  0.00    -0.265 NA 
HETATM   15  C   UNL     1      -6.855  17.234  69.239  1.00  0.00    -0.208 A  
HETATM   16  C   UNL     1      -8.096  16.961  68.685  1.00  0.00    -0.253 A  
HETATM   17  N   UNL     1      -8.076  15.601  68.490  1.00  0.00    -0.141 NA 
HETATM   18  H   UNL     1      -8.807  15.046  68.044  1.00  0.00     0.000 HD 
HETATM   19  C   UNL     1      -6.897  15.123  69.004  1.00  0.00    -0.122 A  
HETATM   20  N   UNL     1      -6.135  16.093  69.453  1.00  0.00    -0.149 NA 
ENDBRANCH  10  11
ENDBRANCH   6  10
TORSDOF 2
ENDMDL
MODEL       89
REMARK 921   NORMALIZED FREE ENERGY PREDICTED BY IDOCK:   -5.18 KCAL/MOL
REMARK 922        TOTAL FREE ENERGY PREDICTED BY IDOCK:   -6.10 KCAL/MOL
REMARK 923 INTER-LIGAND FREE ENERGY PREDICTED BY IDOCK:   -5.68 KCAL/MOL
REMARK 924 INTRA-LIGAND FREE ENERGY PREDICTED BY IDOCK:   -0.43 KCAL/MOL
REMARK 927      BINDING AFFINITY PREDICTED BY RF-SCORE:    0.00 PKD
ROOT
HETATM    1  C   UNL     1     -10.658  18.858  67.045  1.00  0.00    -0.438 C  
HETATM    2  N   UNL     1      -9.530  17.962  66.962  1.00  0.00    -0.265 NA 
HETATM    3  C   UNL     1      -8.361  18.361  66.356  1.00  0.00    -0.251 A  
HETATM    4  N   UNL     1      -7.426  17.452  66.452  1.00  0.00    -0.277 NA 
HETATM    5  C   UNL     1      -8.005  16.421  67.167  1.00  0.00    -0.183 A  
HETATM    6  C   UNL     1      -9.340  16.699  67.485  1.00  0.00    -0.219 A  
HETATM    7  N   UNL     1      -7.169  15.293  67.537  1.00  0.00    -0.181 N  
HETATM    8  O   UNL     1      -5.965  15.355  67.257  1.00  0.00    -0.330 OA 
HETATM    9  O   UNL     1      -7.713  14.339  68.115  1.00  0.00    -0.119 OA 
ENDROOT
BRANCH   6  10
HETATM   10  S   UNL     1     -10.441  15.840  68.542  1.00  0.00    -0.246 SA 
BRANCH  10  11
HETATM   11  C   UNL     1     -11.177  14.490  67.658  1.00  0.00    -0.322 A  
HETATM   12  N   UNL     1     -11.216  13.252  68.200  1.00  0.00    -0.256 NA 
HETATM   13  C   UNL     1     -11.575  12.212  67.417  1.00  0.00    -0.340 A  
HETATM   14  N   UNL     1     -11.952  12.237  66.139  1.00  0.00    -0.618 NA 
HETATM   15  C   UNL     1     -11.897  13.467  65.606  1.00  0.00    -0.370 A  
HETATM   16  C   UNL     1     -11.491  14.590  66.310  1.00  0.00    -0.358 A  
HETATM   17  N   UNL     1     -11.461  15.580  65.359  1.00  0.00    -0.127 NA 
HETATM   18  H   UNL     1     -11.151  16.541  65.500  1.00  0.00     0.000 HD 
HETATM   19  C   UNL     1     -11.923  15.044  64.183  1.00  0.00    -0.201 A  
HETATM   20  N   UNL     1     -12.183  13.762  64.303  1.00  0.00    -0.575 NA 
ENDBRANCH  10  11
ENDBRANCH   6  10
TORSDOF 2
ENDMDL
MODEL       90
REMARK 921   NORMALIZED FREE ENERGY PREDICTED BY IDOCK:   -5.17 KCAL/MOL
REMARK 922        TOTAL FREE ENERGY PREDICTED BY IDOCK:   -6.09 KCAL/MOL
REMARK 923 INTER-LIGAND FREE ENERGY PREDICTED BY IDOCK:   -5.65 KCAL/MOL
REMARK 924 INTRA-LIGAND FREE ENERGY PREDICTED BY IDOCK:   -0.44 KCAL/MOL
REMARK 927      BINDING AFFINITY PREDICTED BY RF-SCORE:    0.00 PKD
ROOT
HETATM    1  C   UNL     1      -9.013   9.054  67.949  1.00  0.00    -0.132 C  
HETATM    2  N   UNL     1     -10.018   9.702  68.757  1.00  0.00    -0.167 NA 
HETATM    3  C   UNL     1     -10.692   9.002  69.732  1.00  0.00    -0.225 A  
HETATM    4  N   UNL     1     -11.498   9.771  70.416  1.00  0.00    -0.269 NA 
HETATM    5  C   UNL     1     -11.330  11.032  69.875  1.00  0.00    -0.287 A  
HETATM    6  C   UNL     1     -10.422  11.021  68.811  1.00  0.00    -0.198 A  
HETATM    7  N   UNL     1     -12.022  12.142  70.506  1.00  0.00    -0.298 N  
HETATM    8  O   UNL     1     -12.661  11.908  71.539  1.00  0.00    -0.347 OA 
HETATM    9  O   UNL     1     -11.925  13.258  69.971  1.00  0.00    -0.325 OA 
ENDROOT
BRANCH   6  10
HETATM   10  S   UNL     1      -9.704  12.358  67.936  1.00  0.00    -0.209 SA 
BRANCH  10  11
HETATM   11  C   UNL     1     -10.710  12.753  66.531  1.00  0.00    -0.258 A  
HETATM   12  N   UNL     1     -11.838  13.484  66.675  1.00  0.00    -0.385 NA 
HETATM   13  C   UNL     1     -12.692  13.574  65.631  1.00  0.00    -0.421 A  
HETATM   14  N   UNL     1     -12.555  13.055  64.411  1.00  0.00    -0.661 NA 
HETATM   15  C   UNL     1     -11.439  12.320  64.282  1.00  0.00    -0.362 A  
HETATM   16  C   UNL     1     -10.528  12.124  65.307  1.00  0.00    -0.276 A  
HETATM   17  N   UNL     1      -9.635  11.221  64.783  1.00  0.00    -0.242 NA 
HETATM   18  H   UNL     1      -8.850  10.796  65.277  1.00  0.00     0.000 HD 
HETATM   19  C   UNL     1      -9.987  10.995  63.476  1.00  0.00    -0.370 A  
HETATM   20  N   UNL     1     -11.084  11.640  63.151  1.00  0.00    -0.224 NA 
ENDBRANCH  10  11
ENDBRANCH   6  10
TORSDOF 2
ENDMDL
MODEL       91
REMARK 921   NORMALIZED FREE ENERGY PREDICTED BY IDOCK:   -5.16 KCAL/MOL
REMARK 922        TOTAL FREE ENERGY PREDICTED BY IDOCK:   -6.09 KCAL/MOL
REMARK 923 INTER-LIGAND FREE ENERGY PREDICTED BY IDOCK:   -5.76 KCAL/MOL
REMARK 924 INTRA-LIGAND FREE ENERGY PREDICTED BY IDOCK:   -0.32 KCAL/MOL
REMARK 927      BINDING AFFINITY PREDICTED BY RF-SCORE:    0.00 PKD
ROOT
HETATM    1  C   UNL     1     -10.384  13.945  68.452  1.00  0.00    -0.249 C  
HETATM    2  N   UNL     1     -11.079  13.621  67.230  1.00  0.00    -0.287 NA 
HETATM    3  C   UNL     1     -12.080  14.438  66.755  1.00  0.00    -0.365 A  
HETATM    4  N   UNL     1     -12.533  14.033  65.597  1.00  0.00    -0.489 NA 
HETATM    5  C   UNL     1     -11.782  12.913  65.294  1.00  0.00    -0.364 A  
HETATM    6  C   UNL     1     -10.872  12.610  66.313  1.00  0.00    -0.273 A  
HETATM    7  N   UNL     1     -11.979  12.291  63.997  1.00  0.00    -0.428 N  
HETATM    8  O   UNL     1     -12.752  12.845  63.206  1.00  0.00    -0.660 OA 
HETATM    9  O   UNL     1     -11.356  11.243  63.762  1.00  0.00    -0.328 OA 
ENDROOT
BRANCH   6  10
HETATM   10  S   UNL     1      -9.564  11.445  66.336  1.00  0.00    -0.212 SA 
BRANCH  10  11
HETATM   11  C   UNL     1      -9.765  10.358  67.723  1.00  0.00    -0.160 A  
HETATM   12  N   UNL     1      -9.321  10.717  68.948  1.00  0.00    -0.180 NA 
HETATM   13  C   UNL     1      -9.286   9.784  69.925  1.00  0.00    -0.231 A  
HETATM   14  N   UNL     1      -9.683   8.513  69.862  1.00  0.00    -0.177 NA 
HETATM   15  C   UNL     1     -10.109   8.163  68.638  1.00  0.00    -0.196 A  
HETATM   16  C   UNL     1     -10.134   9.031  67.558  1.00  0.00    -0.228 A  
HETATM   17  N   UNL     1     -10.505   8.231  66.504  1.00  0.00    -0.389 NA 
HETATM   18  H   UNL     1     -10.575   8.517  65.527  1.00  0.00     0.000 HD 
HETATM   19  C   UNL     1     -10.767   6.979  67.001  1.00  0.00    -0.353 A  
HETATM   20  N   UNL     1     -10.523   6.908  68.290  1.00  0.00    -0.193 NA 
ENDBRANCH  10  11
ENDBRANCH   6  10
TORSDOF 2
ENDMDL
MODEL       92
REMARK 921   NORMALIZED FREE ENERGY PREDICTED BY IDOCK:   -5.16 KCAL/MOL
REMARK 922        TOTAL FREE ENERGY PREDICTED BY IDOCK:   -6.08 KCAL/MOL
REMARK 923 INTER-LIGAND FREE ENERGY PREDICTED BY IDOCK:   -5.93 KCAL/MOL
REMARK 924 INTRA-LIGAND FREE ENERGY PREDICTED BY IDOCK:   -0.15 KCAL/MOL
REMARK 927      BINDING AFFINITY PREDICTED BY RF-SCORE:    0.00 PKD
ROOT
HETATM    1  C   UNL     1     -10.411  16.275  69.220  1.00  0.00    -0.277 C  
HETATM    2  N   UNL     1      -9.388  15.377  68.741  1.00  0.00    -0.197 NA 
HETATM    3  C   UNL     1      -8.056  15.682  68.900  1.00  0.00    -0.197 A  
HETATM    4  N   UNL     1      -7.280  14.716  68.484  1.00  0.00    -0.110 NA 
HETATM    5  C   UNL     1      -8.144  13.729  68.048  1.00  0.00    -0.163 A  
HETATM    6  C   UNL     1      -9.481  14.123  68.173  1.00  0.00    -0.213 A  
HETATM    7  N   UNL     1      -7.575  12.464  67.621  1.00  0.00    -0.129 N  
HETATM    8  O   UNL     1      -6.353  12.314  67.745  1.00  0.00    -0.075 OA 
HETATM    9  O   UNL     1      -8.351  11.610  67.162  1.00  0.00    -0.150 OA 
ENDROOT
BRANCH   6  10
HETATM   10  S   UNL     1     -10.947  13.185  67.971  1.00  0.00    -0.259 SA 
BRANCH  10  11
HETATM   11  C   UNL     1     -11.701  13.593  66.419  1.00  0.00    -0.373 A  
HETATM   12  N   UNL     1     -12.349  12.650  65.700  1.00  0.00    -0.630 NA 
HETATM   13  C   UNL     1     -12.712  12.936  64.430  1.00  0.00    -0.245 A  
HETATM   14  N   UNL     1     -12.550  14.081  63.768  1.00  0.00    -0.783 NA 
HETATM   15  C   UNL     1     -11.894  15.007  64.485  1.00  0.00    -0.371 A  
HETATM   16  C   UNL     1     -11.434  14.793  65.775  1.00  0.00    -0.322 A  
HETATM   17  N   UNL     1     -10.722  15.932  66.062  1.00  0.00    -0.311 NA 
HETATM   18  H   UNL     1     -10.187  16.109  66.913  1.00  0.00     0.000 HD 
HETATM   19  C   UNL     1     -10.859  16.790  64.999  1.00  0.00    -0.117 A  
HETATM   20  N   UNL     1     -11.555  16.248  64.026  1.00  0.00    -1.007 NA 
ENDBRANCH  10  11
ENDBRANCH   6  10
TORSDOF 2
ENDMDL
MODEL       93
REMARK 921   NORMALIZED FREE ENERGY PREDICTED BY IDOCK:   -5.15 KCAL/MOL
REMARK 922        TOTAL FREE ENERGY PREDICTED BY IDOCK:   -6.07 KCAL/MOL
REMARK 923 INTER-LIGAND FREE ENERGY PREDICTED BY IDOCK:   -5.83 KCAL/MOL
REMARK 924 INTRA-LIGAND FREE ENERGY PREDICTED BY IDOCK:   -0.24 KCAL/MOL
REMARK 927      BINDING AFFINITY PREDICTED BY RF-SCORE:    0.00 PKD
ROOT
HETATM    1  C   UNL     1      -8.433  13.655  68.026  1.00  0.00    -0.174 C  
HETATM    2  N   UNL     1      -9.237  14.549  67.228  1.00  0.00    -0.199 NA 
HETATM    3  C   UNL     1      -9.065  15.912  67.313  1.00  0.00    -0.205 A  
HETATM    4  N   UNL     1      -9.817  16.554  66.458  1.00  0.00    -0.263 NA 
HETATM    5  C   UNL     1     -10.499  15.566  65.773  1.00  0.00    -0.361 A  
HETATM    6  C   UNL     1     -10.175  14.291  66.249  1.00  0.00    -0.301 A  
HETATM    7  N   UNL     1     -11.346  15.966  64.664  1.00  0.00    -0.393 N  
HETATM    8  O   UNL     1     -11.349  17.162  64.346  1.00  0.00    -1.115 OA 
HETATM    9  O   UNL     1     -12.011  15.082  64.100  1.00  0.00    -0.440 OA 
ENDROOT
BRANCH   6  10
HETATM   10  S   UNL     1     -10.585  12.716  65.600  1.00  0.00    -0.280 SA 
BRANCH  10  11
HETATM   11  C   UNL     1     -10.891  11.588  66.933  1.00  0.00    -0.284 A  
HETATM   12  N   UNL     1     -11.871  11.835  67.832  1.00  0.00    -0.574 NA 
HETATM   13  C   UNL     1     -11.929  11.081  68.952  1.00  0.00    -0.262 A  
HETATM   14  N   UNL     1     -11.149  10.057  69.295  1.00  0.00    -0.225 NA 
HETATM   15  C   UNL     1     -10.171   9.829  68.404  1.00  0.00    -0.185 A  
HETATM   16  C   UNL     1      -9.994  10.578  67.251  1.00  0.00    -0.186 A  
HETATM   17  N   UNL     1      -8.824  10.092  66.720  1.00  0.00    -0.132 NA 
HETATM   18  H   UNL     1      -8.347  10.446  65.891  1.00  0.00     0.000 HD 
HETATM   19  C   UNL     1      -8.414   9.043  67.505  1.00  0.00    -0.116 A  
HETATM   20  N   UNL     1      -9.206   8.871  68.538  1.00  0.00    -0.137 NA 
ENDBRANCH  10  11
ENDBRANCH   6  10
TORSDOF 2
ENDMDL
MODEL       94
REMARK 921   NORMALIZED FREE ENERGY PREDICTED BY IDOCK:   -5.12 KCAL/MOL
REMARK 922        TOTAL FREE ENERGY PREDICTED BY IDOCK:   -6.04 KCAL/MOL
REMARK 923 INTER-LIGAND FREE ENERGY PREDICTED BY IDOCK:   -5.78 KCAL/MOL
REMARK 924 INTRA-LIGAND FREE ENERGY PREDICTED BY IDOCK:   -0.26 KCAL/MOL
REMARK 927      BINDING AFFINITY PREDICTED BY RF-SCORE:    0.00 PKD
ROOT
HETATM    1  C   UNL     1     -11.869  14.955  68.337  1.00  0.00    -0.278 C  
HETATM    2  N   UNL     1     -11.533  13.883  67.432  1.00  0.00    -0.329 NA 
HETATM    3  C   UNL     1     -11.749  12.571  67.788  1.00  0.00    -0.359 A  
HETATM    4  N   UNL     1     -11.467  11.748  66.812  1.00  0.00    -0.476 NA 
HETATM    5  C   UNL     1     -11.064  12.559  65.768  1.00  0.00    -0.308 A  
HETATM    6  C   UNL     1     -11.071  13.910  66.131  1.00  0.00    -0.299 A  
HETATM    7  N   UNL     1     -10.784  11.933  64.488  1.00  0.00    -0.294 N  
HETATM    8  O   UNL     1     -10.997  10.719  64.384  1.00  0.00    -0.124 OA 
HETATM    9  O   UNL     1     -10.354  12.658  63.576  1.00  0.00    -0.371 OA 
ENDROOT
BRANCH   6  10
HETATM   10  S   UNL     1     -10.860  15.338  65.138  1.00  0.00    -0.445 SA 
BRANCH  10  11
HETATM   11  C   UNL     1      -9.982  16.573  66.059  1.00  0.00    -0.337 A  
HETATM   12  N   UNL     1     -10.404  17.857  66.064  1.00  0.00    -0.528 NA 
HETATM   13  C   UNL     1      -9.594  18.805  66.584  1.00  0.00    -0.336 A  
HETATM   14  N   UNL     1      -8.401  18.643  67.156  1.00  0.00    -0.259 NA 
HETATM   15  C   UNL     1      -7.984  17.367  67.134  1.00  0.00    -0.204 A  
HETATM   16  C   UNL     1      -8.717  16.331  66.577  1.00  0.00    -0.292 A  
HETATM   17  N   UNL     1      -7.871  15.252  66.655  1.00  0.00    -0.278 NA 
HETATM   18  H   UNL     1      -8.051  14.318  66.287  1.00  0.00     0.000 HD 
HETATM   19  C   UNL     1      -6.739  15.656  67.318  1.00  0.00    -0.132 A  
HETATM   20  N   UNL     1      -6.778  16.936  67.609  1.00  0.00    -0.135 NA 
ENDBRANCH  10  11
ENDBRANCH   6  10
TORSDOF 2
ENDMDL
MODEL       95
REMARK 921   NORMALIZED FREE ENERGY PREDICTED BY IDOCK:   -5.12 KCAL/MOL
REMARK 922        TOTAL FREE ENERGY PREDICTED BY IDOCK:   -6.04 KCAL/MOL
REMARK 923 INTER-LIGAND FREE ENERGY PREDICTED BY IDOCK:   -5.58 KCAL/MOL
REMARK 924 INTRA-LIGAND FREE ENERGY PREDICTED BY IDOCK:   -0.46 KCAL/MOL
REMARK 927      BINDING AFFINITY PREDICTED BY RF-SCORE:    0.00 PKD
ROOT
HETATM    1  C   UNL     1     -10.548  19.125  66.820  1.00  0.00    -0.439 C  
HETATM    2  N   UNL     1      -9.447  18.488  67.500  1.00  0.00    -0.275 NA 
HETATM    3  C   UNL     1      -8.450  19.240  68.078  1.00  0.00    -0.317 A  
HETATM    4  N   UNL     1      -7.587  18.497  68.720  1.00  0.00    -0.300 NA 
HETATM    5  C   UNL     1      -8.050  17.203  68.569  1.00  0.00    -0.260 A  
HETATM    6  C   UNL     1      -9.208  17.158  67.785  1.00  0.00    -0.241 A  
HETATM    7  N   UNL     1      -7.353  16.142  69.273  1.00  0.00    -0.228 N  
HETATM    8  O   UNL     1      -6.430  16.466  70.031  1.00  0.00    -0.151 OA 
HETATM    9  O   UNL     1      -7.730  14.976  69.075  1.00  0.00    -0.145 OA 
ENDROOT
BRANCH   6  10
HETATM   10  S   UNL     1     -10.298  15.822  67.472  1.00  0.00    -0.286 SA 
BRANCH  10  11
HETATM   11  C   UNL     1     -11.144  15.387  68.968  1.00  0.00    -0.268 A  
HETATM   12  N   UNL     1     -11.266  16.281  69.975  1.00  0.00    -0.346 NA 
HETATM   13  C   UNL     1     -11.712  15.850  71.176  1.00  0.00    -0.442 A  
HETATM   14  N   UNL     1     -12.106  14.623  71.514  1.00  0.00    -0.344 NA 
HETATM   15  C   UNL     1     -11.968  13.740  70.512  1.00  0.00    -0.296 A  
HETATM   16  C   UNL     1     -11.471  14.071  69.262  1.00  0.00    -0.295 A  
HETATM   17  N   UNL     1     -11.383  12.863  68.614  1.00  0.00    -0.267 NA 
HETATM   18  H   UNL     1     -11.001  12.707  67.681  1.00  0.00     0.000 HD 
HETATM   19  C   UNL     1     -11.901  11.903  69.447  1.00  0.00    -0.327 A  
HETATM   20  N   UNL     1     -12.252  12.407  70.608  1.00  0.00    -0.352 NA 
ENDBRANCH  10  11
ENDBRANCH   6  10
TORSDOF 2
ENDMDL
MODEL       96
REMARK 921   NORMALIZED FREE ENERGY PREDICTED BY IDOCK:   -5.11 KCAL/MOL
REMARK 922        TOTAL FREE ENERGY PREDICTED BY IDOCK:   -6.03 KCAL/MOL
REMARK 923 INTER-LIGAND FREE ENERGY PREDICTED BY IDOCK:   -6.15 KCAL/MOL
REMARK 924 INTRA-LIGAND FREE ENERGY PREDICTED BY IDOCK:    0.12 KCAL/MOL
REMARK 927      BINDING AFFINITY PREDICTED BY RF-SCORE:    0.00 PKD
ROOT
HETATM    1  C   UNL     1     -11.399   7.522  70.554  1.00  0.00    -0.260 C  
HETATM    2  N   UNL     1     -12.025   8.776  70.895  1.00  0.00    -0.249 NA 
HETATM    3  C   UNL     1     -13.045   8.823  71.817  1.00  0.00    -0.363 A  
HETATM    4  N   UNL     1     -13.429  10.049  72.061  1.00  0.00    -0.393 NA 
HETATM    5  C   UNL     1     -12.611  10.839  71.275  1.00  0.00    -0.426 A  
HETATM    6  C   UNL     1     -11.731  10.068  70.508  1.00  0.00    -0.318 A  
HETATM    7  N   UNL     1     -12.723  12.280  71.409  1.00  0.00    -0.315 N  
HETATM    8  O   UNL     1     -13.489  12.719  72.276  1.00  0.00    -0.565 OA 
HETATM    9  O   UNL     1     -12.038  12.984  70.648  1.00  0.00    -0.348 OA 
ENDROOT
BRANCH   6  10
HETATM   10  S   UNL     1     -10.368  10.568  69.527  1.00  0.00    -0.189 SA 
BRANCH  10  11
HETATM   11  C   UNL     1     -10.921  11.702  68.281  1.00  0.00    -0.226 A  
HETATM   12  N   UNL     1     -11.663  11.269  67.237  1.00  0.00    -0.553 NA 
HETATM   13  C   UNL     1     -11.875  12.107  66.199  1.00  0.00    -0.254 A  
HETATM   14  N   UNL     1     -11.473  13.371  66.068  1.00  0.00    -0.318 NA 
HETATM   15  C   UNL     1     -10.726  13.787  67.102  1.00  0.00    -0.281 A  
HETATM   16  C   UNL     1     -10.408  12.988  68.189  1.00  0.00    -0.240 A  
HETATM   17  N   UNL     1      -9.538  13.759  68.920  1.00  0.00    -0.412 NA 
HETATM   18  H   UNL     1      -9.047  13.474  69.768  1.00  0.00     0.000 HD 
HETATM   19  C   UNL     1      -9.447  14.983  68.305  1.00  0.00    -0.196 A  
HETATM   20  N   UNL     1     -10.148  15.022  67.195  1.00  0.00    -0.238 NA 
ENDBRANCH  10  11
ENDBRANCH   6  10
TORSDOF 2
ENDMDL
MODEL       97
REMARK 921   NORMALIZED FREE ENERGY PREDICTED BY IDOCK:   -5.11 KCAL/MOL
REMARK 922        TOTAL FREE ENERGY PREDICTED BY IDOCK:   -6.02 KCAL/MOL
REMARK 923 INTER-LIGAND FREE ENERGY PREDICTED BY IDOCK:   -5.33 KCAL/MOL
REMARK 924 INTRA-LIGAND FREE ENERGY PREDICTED BY IDOCK:   -0.69 KCAL/MOL
REMARK 927      BINDING AFFINITY PREDICTED BY RF-SCORE:    0.00 PKD
ROOT
HETATM    1  C   UNL     1     -10.395   8.362  66.784  1.00  0.00    -0.287 C  
HETATM    2  N   UNL     1      -9.689   9.458  67.402  1.00  0.00    -0.152 NA 
HETATM    3  C   UNL     1      -9.371   9.422  68.740  1.00  0.00    -0.146 A  
HETATM    4  N   UNL     1      -8.660  10.457  69.102  1.00  0.00    -0.159 NA 
HETATM    5  C   UNL     1      -8.491  11.194  67.945  1.00  0.00    -0.131 A  
HETATM    6  C   UNL     1      -9.148  10.606  66.858  1.00  0.00    -0.155 A  
HETATM    7  N   UNL     1      -7.638  12.367  68.002  1.00  0.00    -0.116 N  
HETATM    8  O   UNL     1      -7.047  12.596  69.065  1.00  0.00    -0.094 OA 
HETATM    9  O   UNL     1      -7.550  13.064  66.979  1.00  0.00    -0.064 OA 
ENDROOT
BRANCH   6  10
HETATM   10  S   UNL     1      -9.076  11.009  65.155  1.00  0.00    -0.142 SA 
BRANCH  10  11
HETATM   11  C   UNL     1     -10.498  11.971  64.715  1.00  0.00    -0.294 A  
HETATM   12  N   UNL     1     -11.484  11.436  63.961  1.00  0.00    -0.248 NA 
HETATM   13  C   UNL     1     -12.435  12.255  63.459  1.00  0.00    -0.534 A  
HETATM   14  N   UNL     1     -12.568  13.568  63.642  1.00  0.00    -0.723 NA 
HETATM   15  C   UNL     1     -11.577  14.093  64.379  1.00  0.00    -0.362 A  
HETATM   16  C   UNL     1     -10.529  13.347  64.895  1.00  0.00    -0.390 A  
HETATM   17  N   UNL     1      -9.700  14.289  65.454  1.00  0.00    -0.557 NA 
HETATM   18  H   UNL     1      -8.791  14.113  65.883  1.00  0.00     0.000 HD 
HETATM   19  C   UNL     1     -10.314  15.510  65.333  1.00  0.00    -0.394 A  
HETATM   20  N   UNL     1     -11.447  15.420  64.675  1.00  0.00    -0.387 NA 
ENDBRANCH  10  11
ENDBRANCH   6  10
TORSDOF 2
ENDMDL
MODEL       98
REMARK 921   NORMALIZED FREE ENERGY PREDICTED BY IDOCK:   -5.09 KCAL/MOL
REMARK 922        TOTAL FREE ENERGY PREDICTED BY IDOCK:   -6.01 KCAL/MOL
REMARK 923 INTER-LIGAND FREE ENERGY PREDICTED BY IDOCK:   -5.38 KCAL/MOL
REMARK 924 INTRA-LIGAND FREE ENERGY PREDICTED BY IDOCK:   -0.63 KCAL/MOL
REMARK 927      BINDING AFFINITY PREDICTED BY RF-SCORE:    0.00 PKD
ROOT
HETATM    1  C   UNL     1     -13.299  15.407  71.446  1.00  0.00    -0.519 C  
HETATM    2  N   UNL     1     -12.726  14.213  70.875  1.00  0.00    -0.348 NA 
HETATM    3  C   UNL     1     -12.844  13.001  71.516  1.00  0.00    -0.290 A  
HETATM    4  N   UNL     1     -12.340  12.023  70.810  1.00  0.00    -0.362 NA 
HETATM    5  C   UNL     1     -11.888  12.620  69.648  1.00  0.00    -0.311 A  
HETATM    6  C   UNL     1     -12.093  14.004  69.666  1.00  0.00    -0.355 A  
HETATM    7  N   UNL     1     -11.366  11.762  68.600  1.00  0.00    -0.244 N  
HETATM    8  O   UNL     1     -11.427  10.539  68.775  1.00  0.00    -0.260 OA 
HETATM    9  O   UNL     1     -10.895  12.310  67.590  1.00  0.00    -0.213 OA 
ENDROOT
BRANCH   6  10
HETATM   10  S   UNL     1     -11.903  15.180  68.381  1.00  0.00    -0.194 SA 
BRANCH  10  11
HETATM   11  C   UNL     1     -10.468  16.172  68.696  1.00  0.00    -0.269 A  
HETATM   12  N   UNL     1     -10.514  17.515  68.548  1.00  0.00    -0.372 NA 
HETATM   13  C   UNL     1      -9.357  18.212  68.576  1.00  0.00    -0.310 A  
HETATM   14  N   UNL     1      -8.124  17.749  68.777  1.00  0.00    -0.263 NA 
HETATM   15  C   UNL     1      -8.086  16.413  68.908  1.00  0.00    -0.236 A  
HETATM   16  C   UNL     1      -9.210  15.605  68.843  1.00  0.00    -0.226 A  
HETATM   17  N   UNL     1      -8.701  14.330  68.893  1.00  0.00    -0.349 NA 
HETATM   18  H   UNL     1      -9.235  13.465  68.811  1.00  0.00     0.000 HD 
HETATM   19  C   UNL     1      -7.344  14.430  69.073  1.00  0.00    -0.127 A  
HETATM   20  N   UNL     1      -6.945  15.681  69.075  1.00  0.00    -0.134 NA 
ENDBRANCH  10  11
ENDBRANCH   6  10
TORSDOF 2
ENDMDL
MODEL       99
REMARK 921   NORMALIZED FREE ENERGY PREDICTED BY IDOCK:   -5.09 KCAL/MOL
REMARK 922        TOTAL FREE ENERGY PREDICTED BY IDOCK:   -6.00 KCAL/MOL
REMARK 923 INTER-LIGAND FREE ENERGY PREDICTED BY IDOCK:   -5.31 KCAL/MOL
REMARK 924 INTRA-LIGAND FREE ENERGY PREDICTED BY IDOCK:   -0.69 KCAL/MOL
REMARK 927      BINDING AFFINITY PREDICTED BY RF-SCORE:    0.00 PKD
ROOT
HETATM    1  C   UNL     1     -10.766   5.854  66.914  1.00  0.00    -0.321 C  
HETATM    2  N   UNL     1     -10.710   6.658  68.110  1.00  0.00    -0.239 NA 
HETATM    3  C   UNL     1     -11.291   6.220  69.278  1.00  0.00    -0.341 A  
HETATM    4  N   UNL     1     -11.066   7.037  70.273  1.00  0.00    -0.273 NA 
HETATM    5  C   UNL     1     -10.289   8.046  69.736  1.00  0.00    -0.219 A  
HETATM    6  C   UNL     1     -10.066   7.851  68.368  1.00  0.00    -0.194 A  
HETATM    7  N   UNL     1      -9.777   9.064  70.634  1.00  0.00    -0.214 N  
HETATM    8  O   UNL     1     -10.000   8.928  71.843  1.00  0.00    -0.322 OA 
HETATM    9  O   UNL     1      -9.141  10.006  70.133  1.00  0.00    -0.181 OA 
ENDROOT
BRANCH   6  10
HETATM   10  S   UNL     1      -8.991   8.702  67.277  1.00  0.00    -0.134 SA 
BRANCH  10  11
HETATM   11  C   UNL     1      -9.927   9.842  66.294  1.00  0.00    -0.262 A  
HETATM   12  N   UNL     1      -9.746   9.907  64.956  1.00  0.00    -0.309 NA 
HETATM   13  C   UNL     1     -10.305  10.931  64.274  1.00  0.00    -0.368 A  
HETATM   14  N   UNL     1     -11.078  11.908  64.747  1.00  0.00    -0.310 NA 
HETATM   15  C   UNL     1     -11.241  11.843  66.077  1.00  0.00    -0.324 A  
HETATM   16  C   UNL     1     -10.667  10.864  66.873  1.00  0.00    -0.264 A  
HETATM   17  N   UNL     1     -10.982  11.254  68.151  1.00  0.00    -0.212 NA 
HETATM   18  H   UNL     1     -10.675  10.800  69.012  1.00  0.00     0.000 HD 
HETATM   19  C   UNL     1     -11.783  12.365  68.064  1.00  0.00    -0.356 A  
HETATM   20  N   UNL     1     -11.946  12.749  66.819  1.00  0.00    -0.466 NA 
ENDBRANCH  10  11
ENDBRANCH   6  10
TORSDOF 2
ENDMDL
MODEL      100
REMARK 921   NORMALIZED FREE ENERGY PREDICTED BY IDOCK:   -5.06 KCAL/MOL
REMARK 922        TOTAL FREE ENERGY PREDICTED BY IDOCK:   -5.97 KCAL/MOL
REMARK 923 INTER-LIGAND FREE ENERGY PREDICTED BY IDOCK:   -5.32 KCAL/MOL
REMARK 924 INTRA-LIGAND FREE ENERGY PREDICTED BY IDOCK:   -0.65 KCAL/MOL
REMARK 927      BINDING AFFINITY PREDICTED BY RF-SCORE:    0.00 PKD
ROOT
HETATM    1  C   UNL     1     -10.872  11.137  65.177  1.00  0.00    -0.159 C  
HETATM    2  N   UNL     1     -11.114  12.352  65.916  1.00  0.00    -0.300 NA 
HETATM    3  C   UNL     1     -12.170  13.172  65.591  1.00  0.00    -0.466 A  
HETATM    4  N   UNL     1     -12.282  14.176  66.420  1.00  0.00    -0.459 NA 
HETATM    5  C   UNL     1     -11.264  13.995  67.338  1.00  0.00    -0.311 A  
HETATM    6  C   UNL     1     -10.492  12.868  67.036  1.00  0.00    -0.238 A  
HETATM    7  N   UNL     1     -11.193  14.905  68.466  1.00  0.00    -0.266 N  
HETATM    8  O   UNL     1     -12.095  15.744  68.585  1.00  0.00    -0.269 OA 
HETATM    9  O   UNL     1     -10.234  14.782  69.245  1.00  0.00    -0.228 OA 
ENDROOT
BRANCH   6  10
HETATM   10  S   UNL     1      -9.240  12.083  67.977  1.00  0.00    -0.196 SA 
BRANCH  10  11
HETATM   11  C   UNL     1      -9.961  10.798  68.963  1.00  0.00    -0.199 A  
HETATM   12  N   UNL     1      -9.720   9.497  68.682  1.00  0.00    -0.152 NA 
HETATM   13  C   UNL     1     -10.456   8.551  69.305  1.00  0.00    -0.215 A  
HETATM   14  N   UNL     1     -11.402   8.721  70.229  1.00  0.00    -0.202 NA 
HETATM   15  C   UNL     1     -11.644  10.015  70.491  1.00  0.00    -0.323 A  
HETATM   16  C   UNL     1     -10.980  11.061  69.868  1.00  0.00    -0.150 A  
HETATM   17  N   UNL     1     -11.625  12.181  70.332  1.00  0.00    -0.496 NA 
HETATM   18  H   UNL     1     -11.444  13.143  70.043  1.00  0.00     0.000 HD 
HETATM   19  C   UNL     1     -12.557  11.775  71.254  1.00  0.00    -0.296 A  
HETATM   20  N   UNL     1     -12.596  10.467  71.360  1.00  0.00    -0.397 NA 
ENDBRANCH  10  11
ENDBRANCH   6  10
TORSDOF 2
ENDMDL
MODEL      101
REMARK 921   NORMALIZED FREE ENERGY PREDICTED BY IDOCK:   -5.06 KCAL/MOL
REMARK 922        TOTAL FREE ENERGY PREDICTED BY IDOCK:   -5.97 KCAL/MOL
REMARK 923 INTER-LIGAND FREE ENERGY PREDICTED BY IDOCK:   -5.58 KCAL/MOL
REMARK 924 INTRA-LIGAND FREE ENERGY PREDICTED BY IDOCK:   -0.39 KCAL/MOL
REMARK 927      BINDING AFFINITY PREDICTED BY RF-SCORE:    0.00 PKD
ROOT
HETATM    1  C   UNL     1     -11.470  15.291  68.803  1.00  0.00    -0.331 C  
HETATM    2  N   UNL     1     -11.350  14.259  67.802  1.00  0.00    -0.291 NA 
HETATM    3  C   UNL     1     -11.903  13.016  68.007  1.00  0.00    -0.347 A  
HETATM    4  N   UNL     1     -11.771  12.243  66.961  1.00  0.00    -0.513 NA 
HETATM    5  C   UNL     1     -11.116  13.022  66.025  1.00  0.00    -0.278 A  
HETATM    6  C   UNL     1     -10.814  14.291  66.530  1.00  0.00    -0.304 A  
HETATM    7  N   UNL     1     -10.918  12.469  64.697  1.00  0.00    -0.295 N  
HETATM    8  O   UNL     1     -11.415  11.362  64.455  1.00  0.00    -0.202 OA 
HETATM    9  O   UNL     1     -10.266  13.145  63.885  1.00  0.00    -0.365 OA 
ENDROOT
BRANCH   6  10
HETATM   10  S   UNL     1     -10.197  15.707  65.704  1.00  0.00    -0.390 SA 
BRANCH  10  11
HETATM   11  C   UNL     1      -8.637  16.169  66.409  1.00  0.00    -0.330 A  
HETATM   12  N   UNL     1      -7.900  15.270  67.099  1.00  0.00    -0.209 NA 
HETATM   13  C   UNL     1      -6.837  15.709  67.808  1.00  0.00    -0.159 A  
HETATM   14  N   UNL     1      -6.364  16.952  67.896  1.00  0.00    -0.133 NA 
HETATM   15  C   UNL     1      -7.110  17.839  67.219  1.00  0.00    -0.181 A  
HETATM   16  C   UNL     1      -8.248  17.498  66.505  1.00  0.00    -0.276 A  
HETATM   17  N   UNL     1      -8.753  18.708  66.095  1.00  0.00    -0.485 NA 
HETATM   18  H   UNL     1      -9.625  18.855  65.587  1.00  0.00     0.000 HD 
HETATM   19  C   UNL     1      -7.873  19.684  66.491  1.00  0.00    -0.294 A  
HETATM   20  N   UNL     1      -6.875  19.185  67.183  1.00  0.00    -0.199 NA 
ENDBRANCH  10  11
ENDBRANCH   6  10
TORSDOF 2
ENDMDL
MODEL      102
REMARK 921   NORMALIZED FREE ENERGY PREDICTED BY IDOCK:   -5.05 KCAL/MOL
REMARK 922        TOTAL FREE ENERGY PREDICTED BY IDOCK:   -5.96 KCAL/MOL
REMARK 923 INTER-LIGAND FREE ENERGY PREDICTED BY IDOCK:   -5.22 KCAL/MOL
REMARK 924 INTRA-LIGAND FREE ENERGY PREDICTED BY IDOCK:   -0.74 KCAL/MOL
REMARK 927      BINDING AFFINITY PREDICTED BY RF-SCORE:    0.00 PKD
ROOT
HETATM    1  C   UNL     1     -10.056  17.989  68.799  1.00  0.00    -0.381 C  
HETATM    2  N   UNL     1      -9.344  16.743  68.650  1.00  0.00    -0.245 NA 
HETATM    3  C   UNL     1      -8.003  16.663  68.947  1.00  0.00    -0.236 A  
HETATM    4  N   UNL     1      -7.550  15.441  68.837  1.00  0.00    -0.149 NA 
HETATM    5  C   UNL     1      -8.648  14.687  68.467  1.00  0.00    -0.170 A  
HETATM    6  C   UNL     1      -9.791  15.481  68.317  1.00  0.00    -0.213 A  
HETATM    7  N   UNL     1      -8.486  13.248  68.371  1.00  0.00    -0.156 N  
HETATM    8  O   UNL     1      -7.394  12.770  68.701  1.00  0.00    -0.108 OA 
HETATM    9  O   UNL     1      -9.456  12.586  67.968  1.00  0.00    -0.196 OA 
ENDROOT
BRANCH   6  10
HETATM   10  S   UNL     1     -11.460  15.005  68.076  1.00  0.00    -0.343 SA 
BRANCH  10  11
HETATM   11  C   UNL     1     -12.207  14.653  69.645  1.00  0.00    -0.283 A  
HETATM   12  N   UNL     1     -12.500  15.651  70.508  1.00  0.00    -0.419 NA 
HETATM   13  C   UNL     1     -12.855  15.334  71.772  1.00  0.00    -0.380 A  
HETATM   14  N   UNL     1     -13.003  14.121  72.304  1.00  0.00    -0.374 NA 
HETATM   15  C   UNL     1     -12.696  13.137  71.445  1.00  0.00    -0.297 A  
HETATM   16  C   UNL     1     -12.272  13.359  70.145  1.00  0.00    -0.315 A  
HETATM   17  N   UNL     1     -11.950  12.105  69.686  1.00  0.00    -0.303 NA 
HETATM   18  H   UNL     1     -11.545  11.883  68.777  1.00  0.00     0.000 HD 
HETATM   19  C   UNL     1     -12.273  11.205  70.670  1.00  0.00    -0.397 A  
HETATM   20  N   UNL     1     -12.716  11.805  71.750  1.00  0.00    -0.256 NA 
ENDBRANCH  10  11
ENDBRANCH   6  10
TORSDOF 2
ENDMDL
MODEL      103
REMARK 921   NORMALIZED FREE ENERGY PREDICTED BY IDOCK:   -5.04 KCAL/MOL
REMARK 922        TOTAL FREE ENERGY PREDICTED BY IDOCK:   -5.95 KCAL/MOL
REMARK 923 INTER-LIGAND FREE ENERGY PREDICTED BY IDOCK:   -5.56 KCAL/MOL
REMARK 924 INTRA-LIGAND FREE ENERGY PREDICTED BY IDOCK:   -0.39 KCAL/MOL
REMARK 927      BINDING AFFINITY PREDICTED BY RF-SCORE:    0.00 PKD
ROOT
HETATM    1  C   UNL     1      -8.095  10.593  65.951  1.00  0.00    -0.159 C  
HETATM    2  N   UNL     1      -9.264  11.085  65.264  1.00  0.00    -0.208 NA 
HETATM    3  C   UNL     1      -9.547  10.676  63.981  1.00  0.00    -0.299 A  
HETATM    4  N   UNL     1     -10.686  11.155  63.554  1.00  0.00    -0.341 NA 
HETATM    5  C   UNL     1     -11.177  11.899  64.612  1.00  0.00    -0.305 A  
HETATM    6  C   UNL     1     -10.294  11.896  65.698  1.00  0.00    -0.247 A  
HETATM    7  N   UNL     1     -12.501  12.478  64.482  1.00  0.00    -0.478 N  
HETATM    8  O   UNL     1     -13.148  12.209  63.462  1.00  0.00    -0.785 OA 
HETATM    9  O   UNL     1     -12.904  13.204  65.405  1.00  0.00    -0.553 OA 
ENDROOT
BRANCH   6  10
HETATM   10  S   UNL     1     -10.524  12.490  67.329  1.00  0.00    -0.220 SA 
BRANCH  10  11
HETATM   11  C   UNL     1      -9.334  13.760  67.669  1.00  0.00    -0.213 A  
HETATM   12  N   UNL     1      -8.085  13.442  68.076  1.00  0.00    -0.147 NA 
HETATM   13  C   UNL     1      -7.282  14.426  68.538  1.00  0.00    -0.119 A  
HETATM   14  N   UNL     1      -7.543  15.730  68.618  1.00  0.00    -0.141 NA 
HETATM   15  C   UNL     1      -8.790  16.035  68.225  1.00  0.00    -0.182 A  
HETATM   16  C   UNL     1      -9.706  15.092  67.784  1.00  0.00    -0.211 A  
HETATM   17  N   UNL     1     -10.864  15.813  67.619  1.00  0.00    -0.308 NA 
HETATM   18  H   UNL     1     -11.774  15.437  67.355  1.00  0.00     0.000 HD 
HETATM   19  C   UNL     1     -10.575  17.131  67.872  1.00  0.00    -0.376 A  
HETATM   20  N   UNL     1      -9.328  17.290  68.253  1.00  0.00    -0.263 NA 
ENDBRANCH  10  11
ENDBRANCH   6  10
TORSDOF 2
ENDMDL
MODEL      104
REMARK 921   NORMALIZED FREE ENERGY PREDICTED BY IDOCK:   -5.04 KCAL/MOL
REMARK 922        TOTAL FREE ENERGY PREDICTED BY IDOCK:   -5.94 KCAL/MOL
REMARK 923 INTER-LIGAND FREE ENERGY PREDICTED BY IDOCK:   -5.23 KCAL/MOL
REMARK 924 INTRA-LIGAND FREE ENERGY PREDICTED BY IDOCK:   -0.72 KCAL/MOL
REMARK 927      BINDING AFFINITY PREDICTED BY RF-SCORE:    0.00 PKD
ROOT
HETATM    1  C   UNL     1      -6.714  14.169  68.304  1.00  0.00    -0.108 C  
HETATM    2  N   UNL     1      -7.477  15.376  68.508  1.00  0.00    -0.113 NA 
HETATM    3  C   UNL     1      -6.858  16.535  68.920  1.00  0.00    -0.186 A  
HETATM    4  N   UNL     1      -7.690  17.543  68.966  1.00  0.00    -0.197 NA 
HETATM    5  C   UNL     1      -8.901  17.023  68.551  1.00  0.00    -0.253 A  
HETATM    6  C   UNL     1      -8.809  15.654  68.276  1.00  0.00    -0.180 A  
HETATM    7  N   UNL     1     -10.016  17.939  68.390  1.00  0.00    -0.346 N  
HETATM    8  O   UNL     1      -9.798  19.145  68.560  1.00  0.00    -0.366 OA 
HETATM    9  O   UNL     1     -11.119  17.454  68.087  1.00  0.00    -0.259 OA 
ENDROOT
BRANCH   6  10
HETATM   10  S   UNL     1      -9.974  14.581  67.528  1.00  0.00    -0.224 SA 
BRANCH  10  11
HETATM   11  C   UNL     1     -10.787  13.625  68.780  1.00  0.00    -0.255 A  
HETATM   12  N   UNL     1     -10.735  12.275  68.758  1.00  0.00    -0.229 NA 
HETATM   13  C   UNL     1     -11.544  11.580  69.587  1.00  0.00    -0.333 A  
HETATM   14  N   UNL     1     -12.396  12.056  70.494  1.00  0.00    -0.319 NA 
HETATM   15  C   UNL     1     -12.452  13.397  70.499  1.00  0.00    -0.279 A  
HETATM   16  C   UNL     1     -11.702  14.199  69.653  1.00  0.00    -0.316 A  
HETATM   17  N   UNL     1     -12.164  15.467  69.906  1.00  0.00    -0.454 NA 
HETATM   18  H   UNL     1     -11.880  16.319  69.423  1.00  0.00     0.000 HD 
HETATM   19  C   UNL     1     -13.078  15.382  70.927  1.00  0.00    -0.468 A  
HETATM   20  N   UNL     1     -13.278  14.137  71.296  1.00  0.00    -0.341 NA 
ENDBRANCH  10  11
ENDBRANCH   6  10
TORSDOF 2
ENDMDL
MODEL      105
REMARK 921   NORMALIZED FREE ENERGY PREDICTED BY IDOCK:   -5.03 KCAL/MOL
REMARK 922        TOTAL FREE ENERGY PREDICTED BY IDOCK:   -5.93 KCAL/MOL
REMARK 923 INTER-LIGAND FREE ENERGY PREDICTED BY IDOCK:   -5.46 KCAL/MOL
REMARK 924 INTRA-LIGAND FREE ENERGY PREDICTED BY IDOCK:   -0.48 KCAL/MOL
REMARK 927      BINDING AFFINITY PREDICTED BY RF-SCORE:    0.00 PKD
ROOT
HETATM    1  C   UNL     1     -10.336  10.993  65.198  1.00  0.00    -0.283 C  
HETATM    2  N   UNL     1     -10.951  11.540  66.383  1.00  0.00    -0.291 NA 
HETATM    3  C   UNL     1     -11.199  10.742  67.476  1.00  0.00    -0.274 A  
HETATM    4  N   UNL     1     -11.677  11.426  68.482  1.00  0.00    -0.412 NA 
HETATM    5  C   UNL     1     -11.728  12.732  68.031  1.00  0.00    -0.356 A  
HETATM    6  C   UNL     1     -11.300  12.836  66.703  1.00  0.00    -0.316 A  
HETATM    7  N   UNL     1     -12.121  13.764  68.974  1.00  0.00    -0.350 N  
HETATM    8  O   UNL     1     -12.313  13.425  70.148  1.00  0.00    -0.306 OA 
HETATM    9  O   UNL     1     -12.235  14.923  68.543  1.00  0.00    -0.194 OA 
ENDROOT
BRANCH   6  10
HETATM   10  S   UNL     1     -10.971  14.263  65.742  1.00  0.00    -0.316 SA 
BRANCH  10  11
HETATM   11  C   UNL     1      -9.460  15.010  66.290  1.00  0.00    -0.311 A  
HETATM   12  N   UNL     1      -8.502  14.266  66.887  1.00  0.00    -0.159 NA 
HETATM   13  C   UNL     1      -7.470  14.898  67.489  1.00  0.00    -0.200 A  
HETATM   14  N   UNL     1      -7.230  16.208  67.548  1.00  0.00    -0.145 NA 
HETATM   15  C   UNL     1      -8.193  16.938  66.965  1.00  0.00    -0.199 A  
HETATM   16  C   UNL     1      -9.316  16.388  66.366  1.00  0.00    -0.292 A  
HETATM   17  N   UNL     1     -10.077  17.482  66.030  1.00  0.00    -0.515 NA 
HETATM   18  H   UNL     1     -11.009  17.462  65.616  1.00  0.00     0.000 HD 
HETATM   19  C   UNL     1      -9.357  18.606  66.349  1.00  0.00    -0.297 A  
HETATM   20  N   UNL     1      -8.217  18.304  66.927  1.00  0.00    -0.240 NA 
ENDBRANCH  10  11
ENDBRANCH   6  10
TORSDOF 2
ENDMDL
MODEL      106
REMARK 921   NORMALIZED FREE ENERGY PREDICTED BY IDOCK:   -5.02 KCAL/MOL
REMARK 922        TOTAL FREE ENERGY PREDICTED BY IDOCK:   -5.93 KCAL/MOL
REMARK 923 INTER-LIGAND FREE ENERGY PREDICTED BY IDOCK:   -5.26 KCAL/MOL
REMARK 924 INTRA-LIGAND FREE ENERGY PREDICTED BY IDOCK:   -0.67 KCAL/MOL
REMARK 927      BINDING AFFINITY PREDICTED BY RF-SCORE:    0.00 PKD
ROOT
HETATM    1  C   UNL     1     -11.827  13.055  69.638  1.00  0.00    -0.319 C  
HETATM    2  N   UNL     1     -11.623  12.409  68.364  1.00  0.00    -0.303 NA 
HETATM    3  C   UNL     1     -12.281  12.853  67.240  1.00  0.00    -0.055 A  
HETATM    4  N   UNL     1     -11.908  12.205  66.167  1.00  0.00    -0.582 NA 
HETATM    5  C   UNL     1     -10.951  11.310  66.608  1.00  0.00    -0.268 A  
HETATM    6  C   UNL     1     -10.764  11.395  67.992  1.00  0.00    -0.200 A  
HETATM    7  N   UNL     1     -10.258  10.509  65.615  1.00  0.00    -0.262 N  
HETATM    8  O   UNL     1     -10.508  10.729  64.424  1.00  0.00    -0.365 OA 
HETATM    9  O   UNL     1      -9.454   9.656  66.024  1.00  0.00    -0.187 OA 
ENDROOT
BRANCH   6  10
HETATM   10  S   UNL     1      -9.543  10.651  69.005  1.00  0.00    -0.171 SA 
BRANCH  10  11
HETATM   11  C   UNL     1     -10.282   9.358  69.968  1.00  0.00    -0.229 A  
HETATM   12  N   UNL     1     -10.289   9.424  71.318  1.00  0.00    -0.320 NA 
HETATM   13  C   UNL     1     -10.653   8.329  72.020  1.00  0.00    -0.296 A  
HETATM   14  N   UNL     1     -11.063   7.151  71.551  1.00  0.00    -0.236 NA 
HETATM   15  C   UNL     1     -11.039   7.090  70.210  1.00  0.00    -0.285 A  
HETATM   16  C   UNL     1     -10.632   8.140  69.402  1.00  0.00    -0.200 A  
HETATM   17  N   UNL     1     -10.641   7.603  68.138  1.00  0.00    -0.352 NA 
HETATM   18  H   UNL     1     -10.341   8.072  67.283  1.00  0.00     0.000 HD 
HETATM   19  C   UNL     1     -11.125   6.323  68.231  1.00  0.00    -0.269 A  
HETATM   20  N   UNL     1     -11.363   5.983  69.477  1.00  0.00    -0.360 NA 
ENDBRANCH  10  11
ENDBRANCH   6  10
TORSDOF 2
ENDMDL
MODEL      107
REMARK 921   NORMALIZED FREE ENERGY PREDICTED BY IDOCK:   -5.02 KCAL/MOL
REMARK 922        TOTAL FREE ENERGY PREDICTED BY IDOCK:   -5.93 KCAL/MOL
REMARK 923 INTER-LIGAND FREE ENERGY PREDICTED BY IDOCK:   -5.42 KCAL/MOL
REMARK 924 INTRA-LIGAND FREE ENERGY PREDICTED BY IDOCK:   -0.51 KCAL/MOL
REMARK 927      BINDING AFFINITY PREDICTED BY RF-SCORE:    0.00 PKD
ROOT
HETATM    1  C   UNL     1     -10.402  19.497  67.370  1.00  0.00    -0.450 C  
HETATM    2  N   UNL     1      -9.213  18.712  67.597  1.00  0.00    -0.279 NA 
HETATM    3  C   UNL     1      -8.252  19.136  68.485  1.00  0.00    -0.364 A  
HETATM    4  N   UNL     1      -7.293  18.259  68.624  1.00  0.00    -0.284 NA 
HETATM    5  C   UNL     1      -7.652  17.207  67.802  1.00  0.00    -0.176 A  
HETATM    6  C   UNL     1      -8.846  17.470  67.120  1.00  0.00    -0.238 A  
HETATM    7  N   UNL     1      -6.828  16.013  67.823  1.00  0.00    -0.134 N  
HETATM    8  O   UNL     1      -5.894  15.974  68.634  1.00  0.00    -0.102 OA 
HETATM    9  O   UNL     1      -7.114  15.102  67.029  1.00  0.00    -0.199 OA 
ENDROOT
BRANCH   6  10
HETATM   10  S   UNL     1      -9.833  16.405  66.140  1.00  0.00    -0.349 SA 
BRANCH  10  11
HETATM   11  C   UNL     1     -10.582  15.176  67.175  1.00  0.00    -0.295 A  
HETATM   12  N   UNL     1     -10.997  13.998  66.656  1.00  0.00    -0.297 NA 
HETATM   13  C   UNL     1     -11.760  13.185  67.419  1.00  0.00    -0.370 A  
HETATM   14  N   UNL     1     -12.147  13.366  68.681  1.00  0.00    -0.314 NA 
HETATM   15  C   UNL     1     -11.743  14.544  69.183  1.00  0.00    -0.314 A  
HETATM   16  C   UNL     1     -11.002  15.469  68.465  1.00  0.00    -0.288 A  
HETATM   17  N   UNL     1     -10.931  16.554  69.305  1.00  0.00    -0.318 NA 
HETATM   18  H   UNL     1     -10.506  17.456  69.088  1.00  0.00     0.000 HD 
HETATM   19  C   UNL     1     -11.535  16.208  70.487  1.00  0.00    -0.343 A  
HETATM   20  N   UNL     1     -12.045  14.998  70.435  1.00  0.00    -0.309 NA 
ENDBRANCH  10  11
ENDBRANCH   6  10
TORSDOF 2
ENDMDL
MODEL      108
REMARK 921   NORMALIZED FREE ENERGY PREDICTED BY IDOCK:   -5.02 KCAL/MOL
REMARK 922        TOTAL FREE ENERGY PREDICTED BY IDOCK:   -5.92 KCAL/MOL
REMARK 923 INTER-LIGAND FREE ENERGY PREDICTED BY IDOCK:   -5.65 KCAL/MOL
REMARK 924 INTRA-LIGAND FREE ENERGY PREDICTED BY IDOCK:   -0.27 KCAL/MOL
REMARK 927      BINDING AFFINITY PREDICTED BY RF-SCORE:    0.00 PKD
ROOT
HETATM    1  C   UNL     1      -9.988  15.561  67.949  1.00  0.00    -0.218 C  
HETATM    2  N   UNL     1     -10.594  14.466  68.666  1.00  0.00    -0.245 NA 
HETATM    3  C   UNL     1     -11.698  14.673  69.461  1.00  0.00    -0.324 A  
HETATM    4  N   UNL     1     -12.159  13.556  69.960  1.00  0.00    -0.339 NA 
HETATM    5  C   UNL     1     -11.329  12.573  69.453  1.00  0.00    -0.210 A  
HETATM    6  C   UNL     1     -10.317  13.114  68.653  1.00  0.00    -0.196 A  
HETATM    7  N   UNL     1     -11.657  11.189  69.744  1.00  0.00    -0.303 N  
HETATM    8  O   UNL     1     -12.704  10.964  70.363  1.00  0.00    -0.309 OA 
HETATM    9  O   UNL     1     -10.867  10.316  69.348  1.00  0.00    -0.214 OA 
ENDROOT
BRANCH   6  10
HETATM   10  S   UNL     1      -9.156  12.306  67.619  1.00  0.00    -0.193 SA 
BRANCH  10  11
HETATM   11  C   UNL     1      -9.942  11.838  66.100  1.00  0.00    -0.226 A  
HETATM   12  N   UNL     1      -9.300  11.054  65.205  1.00  0.00    -0.211 NA 
HETATM   13  C   UNL     1      -9.833  10.904  63.973  1.00  0.00    -0.322 A  
HETATM   14  N   UNL     1     -10.975  11.408  63.505  1.00  0.00    -0.380 NA 
HETATM   15  C   UNL     1     -11.598  12.195  64.395  1.00  0.00    -0.350 A  
HETATM   16  C   UNL     1     -11.107  12.454  65.665  1.00  0.00    -0.306 A  
HETATM   17  N   UNL     1     -11.977  13.391  66.167  1.00  0.00    -0.391 NA 
HETATM   18  H   UNL     1     -11.898  13.864  67.068  1.00  0.00     0.000 HD 
HETATM   19  C   UNL     1     -12.972  13.578  65.241  1.00  0.00    -0.228 A  
HETATM   20  N   UNL     1     -12.759  12.873  64.153  1.00  0.00    -0.690 NA 
ENDBRANCH  10  11
ENDBRANCH   6  10
TORSDOF 2
ENDMDL
MODEL      109
REMARK 921   NORMALIZED FREE ENERGY PREDICTED BY IDOCK:   -5.01 KCAL/MOL
REMARK 922        TOTAL FREE ENERGY PREDICTED BY IDOCK:   -5.92 KCAL/MOL
REMARK 923 INTER-LIGAND FREE ENERGY PREDICTED BY IDOCK:   -5.52 KCAL/MOL
REMARK 924 INTRA-LIGAND FREE ENERGY PREDICTED BY IDOCK:   -0.40 KCAL/MOL
REMARK 927      BINDING AFFINITY PREDICTED BY RF-SCORE:    0.00 PKD
ROOT
HETATM    1  C   UNL     1     -11.587  15.337  64.350  1.00  0.00    -0.263 C  
HETATM    2  N   UNL     1     -11.428  14.343  65.383  1.00  0.00    -0.335 NA 
HETATM    3  C   UNL     1     -12.290  13.274  65.466  1.00  0.00    -0.480 A  
HETATM    4  N   UNL     1     -11.940  12.435  66.406  1.00  0.00    -0.607 NA 
HETATM    5  C   UNL     1     -10.789  12.972  66.951  1.00  0.00    -0.264 A  
HETATM    6  C   UNL     1     -10.450  14.188  66.345  1.00  0.00    -0.283 A  
HETATM    7  N   UNL     1     -10.089  12.201  67.962  1.00  0.00    -0.198 N  
HETATM    8  O   UNL     1     -10.520  11.072  68.224  1.00  0.00    -0.171 OA 
HETATM    9  O   UNL     1      -9.097  12.722  68.498  1.00  0.00    -0.154 OA 
ENDROOT
BRANCH   6  10
HETATM   10  S   UNL     1      -8.998  15.153  66.509  1.00  0.00    -0.274 SA 
BRANCH  10  11
HETATM   11  C   UNL     1      -9.368  16.627  67.422  1.00  0.00    -0.222 A  
HETATM   12  N   UNL     1     -10.618  17.141  67.423  1.00  0.00    -0.326 NA 
HETATM   13  C   UNL     1     -10.813  18.375  67.938  1.00  0.00    -0.202 A  
HETATM   14  N   UNL     1      -9.916  19.179  68.506  1.00  0.00    -0.403 NA 
HETATM   15  C   UNL     1      -8.675  18.667  68.488  1.00  0.00    -0.332 A  
HETATM   16  C   UNL     1      -8.363  17.434  67.937  1.00  0.00    -0.230 A  
HETATM   17  N   UNL     1      -6.993  17.377  68.017  1.00  0.00    -0.182 NA 
HETATM   18  H   UNL     1      -6.399  16.632  67.653  1.00  0.00     0.000 HD 
HETATM   19  C   UNL     1      -6.565  18.503  68.675  1.00  0.00    -0.247 A  
HETATM   20  N   UNL     1      -7.564  19.307  68.961  1.00  0.00    -0.346 NA 
ENDBRANCH  10  11
ENDBRANCH   6  10
TORSDOF 2
ENDMDL
MODEL      110
REMARK 921   NORMALIZED FREE ENERGY PREDICTED BY IDOCK:   -5.01 KCAL/MOL
REMARK 922        TOTAL FREE ENERGY PREDICTED BY IDOCK:   -5.91 KCAL/MOL
REMARK 923 INTER-LIGAND FREE ENERGY PREDICTED BY IDOCK:   -5.75 KCAL/MOL
REMARK 924 INTRA-LIGAND FREE ENERGY PREDICTED BY IDOCK:   -0.16 KCAL/MOL
REMARK 927      BINDING AFFINITY PREDICTED BY RF-SCORE:    0.00 PKD
ROOT
HETATM    1  C   UNL     1     -10.848  15.200  67.919  1.00  0.00    -0.291 C  
HETATM    2  N   UNL     1     -11.382  14.983  69.242  1.00  0.00    -0.278 NA 
HETATM    3  C   UNL     1     -11.505  16.029  70.128  1.00  0.00    -0.344 A  
HETATM    4  N   UNL     1     -12.087  15.661  71.240  1.00  0.00    -0.373 NA 
HETATM    5  C   UNL     1     -12.371  14.320  71.065  1.00  0.00    -0.361 A  
HETATM    6  C   UNL     1     -11.919  13.854  69.826  1.00  0.00    -0.338 A  
HETATM    7  N   UNL     1     -13.128  13.643  72.102  1.00  0.00    -0.391 N  
HETATM    8  O   UNL     1     -13.543  14.324  73.048  1.00  0.00    -0.643 OA 
HETATM    9  O   UNL     1     -13.317  12.422  71.973  1.00  0.00    -0.507 OA 
ENDROOT
BRANCH   6  10
HETATM   10  S   UNL     1     -12.210  12.319  69.033  1.00  0.00     0.162 SA 
BRANCH  10  11
HETATM   11  C   UNL     1     -10.828  11.917  67.997  1.00  0.00    -0.216 A  
HETATM   12  N   UNL     1      -9.581  11.844  68.512  1.00  0.00    -0.188 NA 
HETATM   13  C   UNL     1      -8.532  11.760  67.664  1.00  0.00    -0.149 A  
HETATM   14  N   UNL     1      -8.555  11.696  66.333  1.00  0.00    -0.173 NA 
HETATM   15  C   UNL     1      -9.796  11.783  65.830  1.00  0.00    -0.238 A  
HETATM   16  C   UNL     1     -10.932  11.924  66.613  1.00  0.00    -0.291 A  
HETATM   17  N   UNL     1     -11.940  12.104  65.698  1.00  0.00    -0.523 NA 
HETATM   18  H   UNL     1     -12.918  12.298  65.911  1.00  0.00     0.000 HD 
HETATM   19  C   UNL     1     -11.395  11.975  64.445  1.00  0.00    -0.345 A  
HETATM   20  N   UNL     1     -10.096  11.792  64.497  1.00  0.00    -0.265 NA 
ENDBRANCH  10  11
ENDBRANCH   6  10
TORSDOF 2
ENDMDL
MODEL      111
REMARK 921   NORMALIZED FREE ENERGY PREDICTED BY IDOCK:   -4.99 KCAL/MOL
REMARK 922        TOTAL FREE ENERGY PREDICTED BY IDOCK:   -5.89 KCAL/MOL
REMARK 923 INTER-LIGAND FREE ENERGY PREDICTED BY IDOCK:   -5.39 KCAL/MOL
REMARK 924 INTRA-LIGAND FREE ENERGY PREDICTED BY IDOCK:   -0.50 KCAL/MOL
REMARK 927      BINDING AFFINITY PREDICTED BY RF-SCORE:    0.00 PKD
ROOT
HETATM    1  C   UNL     1     -12.284  14.202  65.581  1.00  0.00    -0.435 C  
HETATM    2  N   UNL     1     -11.586  12.965  65.328  1.00  0.00    -0.326 NA 
HETATM    3  C   UNL     1     -11.720  12.318  64.120  1.00  0.00    -0.402 A  
HETATM    4  N   UNL     1     -10.950  11.265  64.041  1.00  0.00    -0.362 NA 
HETATM    5  C   UNL     1     -10.271  11.230  65.245  1.00  0.00    -0.274 A  
HETATM    6  C   UNL     1     -10.666  12.274  66.090  1.00  0.00    -0.261 A  
HETATM    7  N   UNL     1      -9.244  10.219  65.419  1.00  0.00    -0.178 N  
HETATM    8  O   UNL     1      -8.981   9.495  64.452  1.00  0.00    -0.224 OA 
HETATM    9  O   UNL     1      -8.690  10.149  66.528  1.00  0.00    -0.129 OA 
ENDROOT
BRANCH   6  10
HETATM   10  S   UNL     1      -9.977  12.804  67.611  1.00  0.00    -0.222 SA 
BRANCH  10  11
HETATM   11  C   UNL     1     -11.119  12.471  68.925  1.00  0.00    -0.260 A  
HETATM   12  N   UNL     1     -11.824  13.474  69.495  1.00  0.00    -0.316 NA 
HETATM   13  C   UNL     1     -12.509  13.221  70.632  1.00  0.00    -0.298 A  
HETATM   14  N   UNL     1     -12.628  12.063  71.279  1.00  0.00    -0.316 NA 
HETATM   15  C   UNL     1     -11.914  11.077  70.714  1.00  0.00    -0.333 A  
HETATM   16  C   UNL     1     -11.138  11.247  69.579  1.00  0.00    -0.238 A  
HETATM   17  N   UNL     1     -10.496  10.041  69.437  1.00  0.00    -0.216 NA 
HETATM   18  H   UNL     1      -9.792   9.813  68.735  1.00  0.00     0.000 HD 
HETATM   19  C   UNL     1     -10.971   9.198  70.411  1.00  0.00    -0.248 A  
HETATM   20  N   UNL     1     -11.823   9.805  71.205  1.00  0.00    -0.352 NA 
ENDBRANCH  10  11
ENDBRANCH   6  10
TORSDOF 2
ENDMDL
MODEL      112
REMARK 921   NORMALIZED FREE ENERGY PREDICTED BY IDOCK:   -4.99 KCAL/MOL
REMARK 922        TOTAL FREE ENERGY PREDICTED BY IDOCK:   -5.89 KCAL/MOL
REMARK 923 INTER-LIGAND FREE ENERGY PREDICTED BY IDOCK:   -5.17 KCAL/MOL
REMARK 924 INTRA-LIGAND FREE ENERGY PREDICTED BY IDOCK:   -0.72 KCAL/MOL
REMARK 927      BINDING AFFINITY PREDICTED BY RF-SCORE:    0.00 PKD
ROOT
HETATM    1  C   UNL     1     -12.383  15.198  64.121  1.00  0.00    -0.094 C  
HETATM    2  N   UNL     1     -12.058  13.884  64.621  1.00  0.00    -0.413 NA 
HETATM    3  C   UNL     1     -11.878  12.829  63.757  1.00  0.00    -0.499 A  
HETATM    4  N   UNL     1     -11.506  11.743  64.382  1.00  0.00    -0.305 NA 
HETATM    5  C   UNL     1     -11.423  12.109  65.712  1.00  0.00    -0.361 A  
HETATM    6  C   UNL     1     -11.787  13.447  65.902  1.00  0.00    -0.376 A  
HETATM    7  N   UNL     1     -10.919  11.130  66.658  1.00  0.00    -0.260 N  
HETATM    8  O   UNL     1     -10.520  10.049  66.209  1.00  0.00    -0.189 OA 
HETATM    9  O   UNL     1     -10.916  11.442  67.861  1.00  0.00    -0.208 OA 
ENDROOT
BRANCH   6  10
HETATM   10  S   UNL     1     -11.653  14.451  67.331  1.00  0.00    -0.389 SA 
BRANCH  10  11
HETATM   11  C   UNL     1     -10.154  15.395  67.250  1.00  0.00    -0.238 A  
HETATM   12  N   UNL     1     -10.168  16.672  66.807  1.00  0.00    -0.295 NA 
HETATM   13  C   UNL     1      -8.990  17.282  66.547  1.00  0.00    -0.268 A  
HETATM   14  N   UNL     1      -7.760  16.797  66.710  1.00  0.00    -0.221 NA 
HETATM   15  C   UNL     1      -7.757  15.525  67.138  1.00  0.00    -0.222 A  
HETATM   16  C   UNL     1      -8.909  14.796  67.383  1.00  0.00    -0.193 A  
HETATM   17  N   UNL     1      -8.445  13.534  67.666  1.00  0.00    -0.170 NA 
HETATM   18  H   UNL     1      -9.017  12.708  67.843  1.00  0.00     0.000 HD 
HETATM   19  C   UNL     1      -7.074  13.584  67.668  1.00  0.00    -0.168 A  
HETATM   20  N   UNL     1      -6.631  14.777  67.339  1.00  0.00    -0.301 NA 
ENDBRANCH  10  11
ENDBRANCH   6  10
TORSDOF 2
ENDMDL
MODEL      113
REMARK 921   NORMALIZED FREE ENERGY PREDICTED BY IDOCK:   -4.99 KCAL/MOL
REMARK 922        TOTAL FREE ENERGY PREDICTED BY IDOCK:   -5.89 KCAL/MOL
REMARK 923 INTER-LIGAND FREE ENERGY PREDICTED BY IDOCK:   -5.30 KCAL/MOL
REMARK 924 INTRA-LIGAND FREE ENERGY PREDICTED BY IDOCK:   -0.59 KCAL/MOL
REMARK 927      BINDING AFFINITY PREDICTED BY RF-SCORE:    0.00 PKD
ROOT
HETATM    1  C   UNL     1      -7.954   7.955  68.700  1.00  0.00    -0.124 C  
HETATM    2  N   UNL     1      -9.083   8.595  69.330  1.00  0.00    -0.148 NA 
HETATM    3  C   UNL     1      -9.156   8.699  70.701  1.00  0.00    -0.171 A  
HETATM    4  N   UNL     1     -10.202   9.383  71.084  1.00  0.00    -0.309 NA 
HETATM    5  C   UNL     1     -10.832   9.757  69.912  1.00  0.00    -0.272 A  
HETATM    6  C   UNL     1     -10.166   9.256  68.787  1.00  0.00    -0.205 A  
HETATM    7  N   UNL     1     -11.985  10.633  70.007  1.00  0.00    -0.311 N  
HETATM    8  O   UNL     1     -12.292  11.059  71.127  1.00  0.00    -0.361 OA 
HETATM    9  O   UNL     1     -12.588  10.905  68.956  1.00  0.00    -0.350 OA 
ENDROOT
BRANCH   6  10
HETATM   10  S   UNL     1     -10.417   9.609  67.089  1.00  0.00    -0.229 SA 
BRANCH  10  11
HETATM   11  C   UNL     1      -9.915  11.275  66.751  1.00  0.00    -0.206 A  
HETATM   12  N   UNL     1      -8.706  11.725  67.155  1.00  0.00    -0.162 NA 
HETATM   13  C   UNL     1      -8.448  13.049  67.081  1.00  0.00    -0.174 A  
HETATM   14  N   UNL     1      -9.236  14.015  66.609  1.00  0.00    -0.263 NA 
HETATM   15  C   UNL     1     -10.438  13.561  66.223  1.00  0.00    -0.290 A  
HETATM   16  C   UNL     1     -10.818  12.230  66.307  1.00  0.00    -0.278 A  
HETATM   17  N   UNL     1     -12.142  12.244  65.938  1.00  0.00    -0.620 NA 
HETATM   18  H   UNL     1     -12.774  11.443  65.936  1.00  0.00     0.000 HD 
HETATM   19  C   UNL     1     -12.461  13.527  65.573  1.00  0.00    -0.491 A  
HETATM   20  N   UNL     1     -11.449  14.347  65.747  1.00  0.00    -0.330 NA 
ENDBRANCH  10  11
ENDBRANCH   6  10
TORSDOF 2
ENDMDL
MODEL      114
REMARK 921   NORMALIZED FREE ENERGY PREDICTED BY IDOCK:   -4.99 KCAL/MOL
REMARK 922        TOTAL FREE ENERGY PREDICTED BY IDOCK:   -5.89 KCAL/MOL
REMARK 923 INTER-LIGAND FREE ENERGY PREDICTED BY IDOCK:   -5.28 KCAL/MOL
REMARK 924 INTRA-LIGAND FREE ENERGY PREDICTED BY IDOCK:   -0.61 KCAL/MOL
REMARK 927      BINDING AFFINITY PREDICTED BY RF-SCORE:    0.00 PKD
ROOT
HETATM    1  C   UNL     1     -10.135  13.158  65.137  1.00  0.00    -0.223 C  
HETATM    2  N   UNL     1     -10.709  13.613  66.380  1.00  0.00    -0.280 NA 
HETATM    3  C   UNL     1     -11.967  13.209  66.762  1.00  0.00    -0.373 A  
HETATM    4  N   UNL     1     -12.283  13.650  67.951  1.00  0.00    -0.259 NA 
HETATM    5  C   UNL     1     -11.175  14.361  68.372  1.00  0.00    -0.273 A  
HETATM    6  C   UNL     1     -10.172  14.379  67.396  1.00  0.00    -0.247 A  
HETATM    7  N   UNL     1     -11.178  14.891  69.724  1.00  0.00    -0.269 N  
HETATM    8  O   UNL     1     -12.140  14.609  70.448  1.00  0.00    -0.279 OA 
HETATM    9  O   UNL     1     -10.212  15.589  70.069  1.00  0.00    -0.301 OA 
ENDROOT
BRANCH   6  10
HETATM   10  S   UNL     1      -8.518  14.944  67.502  1.00  0.00    -0.199 SA 
BRANCH  10  11
HETATM   11  C   UNL     1      -8.394  16.551  66.763  1.00  0.00    -0.239 A  
HETATM   12  N   UNL     1      -7.331  16.876  65.993  1.00  0.00    -0.126 NA 
HETATM   13  C   UNL     1      -7.158  18.167  65.636  1.00  0.00    -0.135 A  
HETATM   14  N   UNL     1      -7.942  19.208  65.912  1.00  0.00    -0.458 NA 
HETATM   15  C   UNL     1      -8.987  18.880  66.688  1.00  0.00    -0.323 A  
HETATM   16  C   UNL     1      -9.224  17.595  67.151  1.00  0.00    -0.245 A  
HETATM   17  N   UNL     1     -10.296  17.743  67.996  1.00  0.00    -0.375 NA 
HETATM   18  H   UNL     1     -10.718  17.011  68.568  1.00  0.00     0.000 HD 
HETATM   19  C   UNL     1     -10.700  19.053  67.933  1.00  0.00    -0.293 A  
HETATM   20  N   UNL     1      -9.916  19.765  67.156  1.00  0.00    -0.380 NA 
ENDBRANCH  10  11
ENDBRANCH   6  10
TORSDOF 2
ENDMDL
MODEL      115
REMARK 921   NORMALIZED FREE ENERGY PREDICTED BY IDOCK:   -4.98 KCAL/MOL
REMARK 922        TOTAL FREE ENERGY PREDICTED BY IDOCK:   -5.88 KCAL/MOL
REMARK 923 INTER-LIGAND FREE ENERGY PREDICTED BY IDOCK:   -5.22 KCAL/MOL
REMARK 924 INTRA-LIGAND FREE ENERGY PREDICTED BY IDOCK:   -0.66 KCAL/MOL
REMARK 927      BINDING AFFINITY PREDICTED BY RF-SCORE:    0.00 PKD
ROOT
HETATM    1  C   UNL     1     -10.087  19.115  66.277  1.00  0.00    -0.431 C  
HETATM    2  N   UNL     1      -8.893  18.306  66.318  1.00  0.00    -0.453 NA 
HETATM    3  C   UNL     1      -7.670  18.843  65.986  1.00  0.00    -0.213 A  
HETATM    4  N   UNL     1      -6.697  17.989  66.165  1.00  0.00    -0.241 NA 
HETATM    5  C   UNL     1      -7.309  16.849  66.651  1.00  0.00    -0.263 A  
HETATM    6  C   UNL     1      -8.697  17.006  66.738  1.00  0.00    -0.245 A  
HETATM    7  N   UNL     1      -6.463  15.741  67.056  1.00  0.00     0.005 N  
HETATM    8  O   UNL     1      -5.238  15.909  67.015  1.00  0.00    -0.330 OA 
HETATM    9  O   UNL     1      -7.023  14.695  67.422  1.00  0.00    -0.186 OA 
ENDROOT
BRANCH   6  10
HETATM   10  S   UNL     1      -9.897  15.965  67.477  1.00  0.00    -0.232 SA 
BRANCH  10  11
HETATM   11  C   UNL     1     -10.590  14.895  66.245  1.00  0.00    -0.308 A  
HETATM   12  N   UNL     1     -11.768  15.197  65.655  1.00  0.00    -0.126 NA 
HETATM   13  C   UNL     1     -12.373  14.258  64.894  1.00  0.00    -0.425 A  
HETATM   14  N   UNL     1     -11.935  13.035  64.596  1.00  0.00    -0.370 NA 
HETATM   15  C   UNL     1     -10.772  12.739  65.197  1.00  0.00    -0.294 A  
HETATM   16  C   UNL     1     -10.100  13.613  66.037  1.00  0.00    -0.312 A  
HETATM   17  N   UNL     1      -9.055  12.864  66.520  1.00  0.00    -0.389 NA 
HETATM   18  H   UNL     1      -8.372  13.163  67.217  1.00  0.00     0.000 HD 
HETATM   19  C   UNL     1      -9.093  11.642  65.897  1.00  0.00    -0.149 A  
HETATM   20  N   UNL     1     -10.131  11.537  65.099  1.00  0.00    -0.256 NA 
ENDBRANCH  10  11
ENDBRANCH   6  10
TORSDOF 2
ENDMDL
MODEL      116
REMARK 921   NORMALIZED FREE ENERGY PREDICTED BY IDOCK:   -4.97 KCAL/MOL
REMARK 922        TOTAL FREE ENERGY PREDICTED BY IDOCK:   -5.87 KCAL/MOL
REMARK 923 INTER-LIGAND FREE ENERGY PREDICTED BY IDOCK:   -5.61 KCAL/MOL
REMARK 924 INTRA-LIGAND FREE ENERGY PREDICTED BY IDOCK:   -0.26 KCAL/MOL
REMARK 927      BINDING AFFINITY PREDICTED BY RF-SCORE:    0.00 PKD
ROOT
HETATM    1  C   UNL     1     -11.828  12.216  64.971  1.00  0.00    -0.298 C  
HETATM    2  N   UNL     1     -11.490  13.616  64.880  1.00  0.00    -0.328 NA 
HETATM    3  C   UNL     1     -12.231  14.466  64.092  1.00  0.00    -0.363 A  
HETATM    4  N   UNL     1     -11.832  15.706  64.201  1.00  0.00    -0.456 NA 
HETATM    5  C   UNL     1     -10.795  15.667  65.114  1.00  0.00    -0.431 A  
HETATM    6  C   UNL     1     -10.536  14.360  65.545  1.00  0.00    -0.347 A  
HETATM    7  N   UNL     1     -10.207  16.926  65.534  1.00  0.00    -0.194 N  
HETATM    8  O   UNL     1     -10.719  17.968  65.109  1.00  0.00    -0.612 OA 
HETATM    9  O   UNL     1      -9.229  16.877  66.297  1.00  0.00    -0.267 OA 
ENDROOT
BRANCH   6  10
HETATM   10  S   UNL     1      -9.493  13.791  66.832  1.00  0.00    -0.269 SA 
BRANCH  10  11
HETATM   11  C   UNL     1     -10.459  12.916  68.033  1.00  0.00    -0.230 A  
HETATM   12  N   UNL     1     -11.272  13.584  68.882  1.00  0.00    -0.263 NA 
HETATM   13  C   UNL     1     -11.816  12.914  69.922  1.00  0.00    -0.303 A  
HETATM   14  N   UNL     1     -11.693  11.622  70.222  1.00  0.00    -0.308 NA 
HETATM   15  C   UNL     1     -10.874  10.970  69.382  1.00  0.00    -0.231 A  
HETATM   16  C   UNL     1     -10.227  11.578  68.317  1.00  0.00    -0.196 A  
HETATM   17  N   UNL     1      -9.409  10.590  67.824  1.00  0.00    -0.148 NA 
HETATM   18  H   UNL     1      -8.735  10.690  67.065  1.00  0.00     0.000 HD 
HETATM   19  C   UNL     1      -9.662   9.444  68.536  1.00  0.00    -0.149 A  
HETATM   20  N   UNL     1     -10.537   9.651  69.493  1.00  0.00    -0.218 NA 
ENDBRANCH  10  11
ENDBRANCH   6  10
TORSDOF 2
ENDMDL
MODEL      117
REMARK 921   NORMALIZED FREE ENERGY PREDICTED BY IDOCK:   -4.96 KCAL/MOL
REMARK 922        TOTAL FREE ENERGY PREDICTED BY IDOCK:   -5.86 KCAL/MOL
REMARK 923 INTER-LIGAND FREE ENERGY PREDICTED BY IDOCK:   -5.20 KCAL/MOL
REMARK 924 INTRA-LIGAND FREE ENERGY PREDICTED BY IDOCK:   -0.66 KCAL/MOL
REMARK 927      BINDING AFFINITY PREDICTED BY RF-SCORE:    0.00 PKD
ROOT
HETATM    1  C   UNL     1      -9.756  13.953  66.924  1.00  0.00    -0.268 C  
HETATM    2  N   UNL     1      -9.064  12.947  67.692  1.00  0.00    -0.184 NA 
HETATM    3  C   UNL     1      -7.789  13.175  68.159  1.00  0.00    -0.145 A  
HETATM    4  N   UNL     1      -7.358  12.191  68.904  1.00  0.00    -0.089 NA 
HETATM    5  C   UNL     1      -8.404  11.287  68.939  1.00  0.00    -0.071 A  
HETATM    6  C   UNL     1      -9.487  11.721  68.165  1.00  0.00    -0.193 A  
HETATM    7  N   UNL     1      -8.269  10.120  69.791  1.00  0.00    -0.170 N  
HETATM    8  O   UNL     1      -7.256  10.039  70.497  1.00  0.00    -0.246 OA 
HETATM    9  O   UNL     1      -9.180   9.277  69.761  1.00  0.00    -0.158 OA 
ENDROOT
BRANCH   6  10
HETATM   10  S   UNL     1     -11.108  11.070  68.044  1.00  0.00    -0.310 SA 
BRANCH  10  11
HETATM   11  C   UNL     1     -12.012  11.455  69.520  1.00  0.00    -0.341 A  
HETATM   12  N   UNL     1     -12.133  12.735  69.939  1.00  0.00    -0.292 NA 
HETATM   13  C   UNL     1     -12.628  12.970  71.174  1.00  0.00    -0.297 A  
HETATM   14  N   UNL     1     -13.073  12.084  72.063  1.00  0.00    -0.427 NA 
HETATM   15  C   UNL     1     -12.937  10.816  71.645  1.00  0.00    -0.476 A  
HETATM   16  C   UNL     1     -12.392  10.468  70.418  1.00  0.00    -0.324 A  
HETATM   17  N   UNL     1     -12.326   9.097  70.466  1.00  0.00    -0.472 NA 
HETATM   18  H   UNL     1     -11.922   8.489  69.753  1.00  0.00     0.000 HD 
HETATM   19  C   UNL     1     -12.901   8.691  71.645  1.00  0.00    -0.345 A  
HETATM   20  N   UNL     1     -13.268   9.714  72.382  1.00  0.00    -0.391 NA 
ENDBRANCH  10  11
ENDBRANCH   6  10
TORSDOF 2
ENDMDL
MODEL      118
REMARK 921   NORMALIZED FREE ENERGY PREDICTED BY IDOCK:   -4.96 KCAL/MOL
REMARK 922        TOTAL FREE ENERGY PREDICTED BY IDOCK:   -5.85 KCAL/MOL
REMARK 923 INTER-LIGAND FREE ENERGY PREDICTED BY IDOCK:   -5.17 KCAL/MOL
REMARK 924 INTRA-LIGAND FREE ENERGY PREDICTED BY IDOCK:   -0.69 KCAL/MOL
REMARK 927      BINDING AFFINITY PREDICTED BY RF-SCORE:    0.00 PKD
ROOT
HETATM    1  C   UNL     1     -10.177   6.719  74.164  1.00  0.00    -0.339 C  
HETATM    2  N   UNL     1      -9.948   6.336  72.792  1.00  0.00    -0.171 NA 
HETATM    3  C   UNL     1      -8.840   5.597  72.446  1.00  0.00    -0.135 A  
HETATM    4  N   UNL     1      -8.844   5.272  71.180  1.00  0.00    -0.133 NA 
HETATM    5  C   UNL     1     -10.016   5.809  70.679  1.00  0.00    -0.194 A  
HETATM    6  C   UNL     1     -10.724   6.508  71.664  1.00  0.00    -0.230 A  
HETATM    7  N   UNL     1     -10.364   5.520  69.300  1.00  0.00    -0.250 N  
HETATM    8  O   UNL     1      -9.631   4.745  68.674  1.00  0.00    -0.141 OA 
HETATM    9  O   UNL     1     -11.379   6.065  68.837  1.00  0.00    -0.307 OA 
ENDROOT
BRANCH   6  10
HETATM   10  S   UNL     1     -12.341   7.181  71.614  1.00  0.00    -0.376 SA 
BRANCH  10  11
HETATM   11  C   UNL     1     -12.244   8.933  71.364  1.00  0.00    -0.318 A  
HETATM   12  N   UNL     1     -12.985   9.778  72.116  1.00  0.00    -0.409 NA 
HETATM   13  C   UNL     1     -13.057  11.077  71.753  1.00  0.00    -0.449 A  
HETATM   14  N   UNL     1     -12.443  11.682  70.737  1.00  0.00    -0.357 NA 
HETATM   15  C   UNL     1     -11.721  10.834  69.988  1.00  0.00    -0.336 A  
HETATM   16  C   UNL     1     -11.625   9.475  70.246  1.00  0.00    -0.169 A  
HETATM   17  N   UNL     1     -10.913   8.988  69.177  1.00  0.00    -0.426 NA 
HETATM   18  H   UNL     1     -10.695   8.008  68.996  1.00  0.00     0.000 HD 
HETATM   19  C   UNL     1     -10.546  10.057  68.398  1.00  0.00    -0.220 A  
HETATM   20  N   UNL     1     -11.033  11.185  68.861  1.00  0.00    -0.208 NA 
ENDBRANCH  10  11
ENDBRANCH   6  10
TORSDOF 2
ENDMDL
MODEL      119
REMARK 921   NORMALIZED FREE ENERGY PREDICTED BY IDOCK:   -4.94 KCAL/MOL
REMARK 922        TOTAL FREE ENERGY PREDICTED BY IDOCK:   -5.84 KCAL/MOL
REMARK 923 INTER-LIGAND FREE ENERGY PREDICTED BY IDOCK:   -5.68 KCAL/MOL
REMARK 924 INTRA-LIGAND FREE ENERGY PREDICTED BY IDOCK:   -0.16 KCAL/MOL
REMARK 927      BINDING AFFINITY PREDICTED BY RF-SCORE:    0.00 PKD
ROOT
HETATM    1  C   UNL     1      -9.046  10.809  68.610  1.00  0.00    -0.173 C  
HETATM    2  N   UNL     1      -9.911   9.909  69.333  1.00  0.00    -0.199 NA 
HETATM    3  C   UNL     1      -9.533   8.607  69.564  1.00  0.00    -0.162 A  
HETATM    4  N   UNL     1     -10.400   7.970  70.306  1.00  0.00    -0.208 NA 
HETATM    5  C   UNL     1     -11.381   8.903  70.586  1.00  0.00    -0.259 A  
HETATM    6  C   UNL     1     -11.117  10.130  69.968  1.00  0.00    -0.308 A  
HETATM    7  N   UNL     1     -12.446   8.521  71.496  1.00  0.00    -0.310 N  
HETATM    8  O   UNL     1     -12.372   7.407  72.030  1.00  0.00    -0.300 OA 
HETATM    9  O   UNL     1     -13.361   9.338  71.685  1.00  0.00    -0.357 OA 
ENDROOT
BRANCH   6  10
HETATM   10  S   UNL     1     -11.912  11.678  70.168  1.00  0.00    -0.332 SA 
BRANCH  10  11
HETATM   11  C   UNL     1     -11.953  12.527  68.612  1.00  0.00    -0.224 A  
HETATM   12  N   UNL     1     -12.081  11.839  67.456  1.00  0.00    -0.550 NA 
HETATM   13  C   UNL     1     -11.883  12.489  66.288  1.00  0.00    -0.390 A  
HETATM   14  N   UNL     1     -11.606  13.780  66.102  1.00  0.00    -0.339 NA 
HETATM   15  C   UNL     1     -11.467  14.451  67.256  1.00  0.00    -0.359 A  
HETATM   16  C   UNL     1     -11.598  13.865  68.505  1.00  0.00    -0.332 A  
HETATM   17  N   UNL     1     -11.250  14.868  69.376  1.00  0.00    -0.268 NA 
HETATM   18  H   UNL     1     -11.175  14.785  70.390  1.00  0.00     0.000 HD 
HETATM   19  C   UNL     1     -11.022  16.002  68.638  1.00  0.00    -0.323 A  
HETATM   20  N   UNL     1     -11.135  15.773  67.349  1.00  0.00    -0.281 NA 
ENDBRANCH  10  11
ENDBRANCH   6  10
TORSDOF 2
ENDMDL
MODEL      120
REMARK 921   NORMALIZED FREE ENERGY PREDICTED BY IDOCK:   -4.93 KCAL/MOL
REMARK 922        TOTAL FREE ENERGY PREDICTED BY IDOCK:   -5.83 KCAL/MOL
REMARK 923 INTER-LIGAND FREE ENERGY PREDICTED BY IDOCK:   -5.58 KCAL/MOL
REMARK 924 INTRA-LIGAND FREE ENERGY PREDICTED BY IDOCK:   -0.24 KCAL/MOL
REMARK 927      BINDING AFFINITY PREDICTED BY RF-SCORE:    0.00 PKD
ROOT
HETATM    1  C   UNL     1      -6.619  16.310  68.472  1.00  0.00    -0.130 C  
HETATM    2  N   UNL     1      -7.450  17.479  68.314  1.00  0.00    -0.227 NA 
HETATM    3  C   UNL     1      -7.195  18.623  69.035  1.00  0.00    -0.256 A  
HETATM    4  N   UNL     1      -7.993  19.602  68.699  1.00  0.00    -0.331 NA 
HETATM    5  C   UNL     1      -8.795  19.079  67.701  1.00  0.00    -0.289 A  
HETATM    6  C   UNL     1      -8.496  17.735  67.451  1.00  0.00    -0.226 A  
HETATM    7  N   UNL     1      -9.728  19.972  67.038  1.00  0.00    -0.392 N  
HETATM    8  O   UNL     1      -9.697  21.169  67.349  1.00  0.00    -0.347 OA 
HETATM    9  O   UNL     1     -10.495  19.479  66.195  1.00  0.00    -0.458 OA 
ENDROOT
BRANCH   6  10
HETATM   10  S   UNL     1      -9.056  16.684  66.166  1.00  0.00    -0.242 SA 
BRANCH  10  11
HETATM   11  C   UNL     1     -10.053  15.390  66.853  1.00  0.00    -0.257 A  
HETATM   12  N   UNL     1     -10.605  14.448  66.056  1.00  0.00    -0.293 NA 
HETATM   13  C   UNL     1     -11.534  13.617  66.578  1.00  0.00    -0.335 A  
HETATM   14  N   UNL     1     -11.974  13.563  67.835  1.00  0.00    -0.357 NA 
HETATM   15  C   UNL     1     -11.431  14.510  68.616  1.00  0.00    -0.293 A  
HETATM   16  C   UNL     1     -10.510  15.442  68.163  1.00  0.00    -0.247 A  
HETATM   17  N   UNL     1     -10.332  16.277  69.239  1.00  0.00    -0.258 NA 
HETATM   18  H   UNL     1      -9.761  17.121  69.257  1.00  0.00     0.000 HD 
HETATM   19  C   UNL     1     -11.061  15.770  70.286  1.00  0.00    -0.361 A  
HETATM   20  N   UNL     1     -11.745  14.707  69.931  1.00  0.00    -0.282 NA 
ENDBRANCH  10  11
ENDBRANCH   6  10
TORSDOF 2
ENDMDL
MODEL      121
REMARK 921   NORMALIZED FREE ENERGY PREDICTED BY IDOCK:   -4.92 KCAL/MOL
REMARK 922        TOTAL FREE ENERGY PREDICTED BY IDOCK:   -5.82 KCAL/MOL
REMARK 923 INTER-LIGAND FREE ENERGY PREDICTED BY IDOCK:   -5.44 KCAL/MOL
REMARK 924 INTRA-LIGAND FREE ENERGY PREDICTED BY IDOCK:   -0.38 KCAL/MOL
REMARK 927      BINDING AFFINITY PREDICTED BY RF-SCORE:    0.00 PKD
ROOT
HETATM    1  C   UNL     1      -7.770   9.614  64.674  1.00  0.00    -0.130 C  
HETATM    2  N   UNL     1      -8.974  10.403  64.573  1.00  0.00    -0.201 NA 
HETATM    3  C   UNL     1      -9.535  10.672  63.345  1.00  0.00    -0.319 A  
HETATM    4  N   UNL     1     -10.663  11.323  63.456  1.00  0.00    -0.375 NA 
HETATM    5  C   UNL     1     -10.856  11.472  64.816  1.00  0.00    -0.297 A  
HETATM    6  C   UNL     1      -9.797  10.925  65.550  1.00  0.00    -0.246 A  
HETATM    7  N   UNL     1     -12.099  12.071  65.268  1.00  0.00    -0.181 N  
HETATM    8  O   UNL     1     -12.949  12.344  64.411  1.00  0.00    -0.721 OA 
HETATM    9  O   UNL     1     -12.232  12.269  66.486  1.00  0.00    -0.588 OA 
ENDROOT
BRANCH   6  10
HETATM   10  S   UNL     1      -9.650  10.661  67.276  1.00  0.00    -0.165 SA 
BRANCH  10  11
HETATM   11  C   UNL     1     -10.065   8.979  67.653  1.00  0.00    -0.216 A  
HETATM   12  N   UNL     1     -10.317   8.093  66.663  1.00  0.00    -0.280 NA 
HETATM   13  C   UNL     1     -10.845   6.892  66.986  1.00  0.00    -0.366 A  
HETATM   14  N   UNL     1     -11.129   6.418  68.198  1.00  0.00    -0.306 NA 
HETATM   15  C   UNL     1     -10.888   7.309  69.173  1.00  0.00    -0.136 A  
HETATM   16  C   UNL     1     -10.397   8.584  68.941  1.00  0.00    -0.210 A  
HETATM   17  N   UNL     1     -10.433   9.179  70.179  1.00  0.00    -0.206 NA 
HETATM   18  H   UNL     1     -10.195  10.148  70.388  1.00  0.00     0.000 HD 
HETATM   19  C   UNL     1     -10.844   8.233  71.085  1.00  0.00    -0.233 A  
HETATM   20  N   UNL     1     -11.138   7.095  70.499  1.00  0.00    -0.262 NA 
ENDBRANCH  10  11
ENDBRANCH   6  10
TORSDOF 2
ENDMDL
MODEL      122
REMARK 921   NORMALIZED FREE ENERGY PREDICTED BY IDOCK:   -4.90 KCAL/MOL
REMARK 922        TOTAL FREE ENERGY PREDICTED BY IDOCK:   -5.80 KCAL/MOL
REMARK 923 INTER-LIGAND FREE ENERGY PREDICTED BY IDOCK:   -5.29 KCAL/MOL
REMARK 924 INTRA-LIGAND FREE ENERGY PREDICTED BY IDOCK:   -0.50 KCAL/MOL
REMARK 927      BINDING AFFINITY PREDICTED BY RF-SCORE:    0.00 PKD
ROOT
HETATM    1  C   UNL     1     -12.374  12.897  70.533  1.00  0.00    -0.283 C  
HETATM    2  N   UNL     1     -11.821  11.567  70.458  1.00  0.00    -0.328 NA 
HETATM    3  C   UNL     1     -12.442  10.513  71.088  1.00  0.00    -0.412 A  
HETATM    4  N   UNL     1     -11.847   9.376  70.838  1.00  0.00    -0.290 NA 
HETATM    5  C   UNL     1     -10.801   9.699  69.995  1.00  0.00    -0.264 A  
HETATM    6  C   UNL     1     -10.740  11.076  69.754  1.00  0.00    -0.078 A  
HETATM    7  N   UNL     1     -10.007   8.615  69.446  1.00  0.00    -0.192 N  
HETATM    8  O   UNL     1     -10.361   7.458  69.703  1.00  0.00    -0.211 OA 
HETATM    9  O   UNL     1      -9.025   8.917  68.749  1.00  0.00    -0.133 OA 
ENDROOT
BRANCH   6  10
HETATM   10  S   UNL     1      -9.760  11.970  68.610  1.00  0.00    -0.027 SA 
BRANCH  10  11
HETATM   11  C   UNL     1     -10.412  11.753  66.976  1.00  0.00    -0.220 A  
HETATM   12  N   UNL     1      -9.804  10.927  66.095  1.00  0.00    -0.214 NA 
HETATM   13  C   UNL     1     -10.192  10.958  64.801  1.00  0.00    -0.333 A  
HETATM   14  N   UNL     1     -11.160  11.689  64.251  1.00  0.00    -0.343 NA 
HETATM   15  C   UNL     1     -11.749  12.516  65.129  1.00  0.00    -0.378 A  
HETATM   16  C   UNL     1     -11.388  12.598  66.465  1.00  0.00    -0.326 A  
HETATM   17  N   UNL     1     -12.142  13.641  66.945  1.00  0.00    -0.399 NA 
HETATM   18  H   UNL     1     -12.100  14.030  67.887  1.00  0.00     0.000 HD 
HETATM   19  C   UNL     1     -12.963  14.065  65.930  1.00  0.00    -0.178 A  
HETATM   20  N   UNL     1     -12.736  13.407  64.816  1.00  0.00    -0.685 NA 
ENDBRANCH  10  11
ENDBRANCH   6  10
TORSDOF 2
ENDMDL
MODEL      123
REMARK 921   NORMALIZED FREE ENERGY PREDICTED BY IDOCK:   -4.89 KCAL/MOL
REMARK 922        TOTAL FREE ENERGY PREDICTED BY IDOCK:   -5.79 KCAL/MOL
REMARK 923 INTER-LIGAND FREE ENERGY PREDICTED BY IDOCK:   -5.04 KCAL/MOL
REMARK 924 INTRA-LIGAND FREE ENERGY PREDICTED BY IDOCK:   -0.75 KCAL/MOL
REMARK 927      BINDING AFFINITY PREDICTED BY RF-SCORE:    0.00 PKD
ROOT
HETATM    1  C   UNL     1     -10.959   9.093  71.504  1.00  0.00    -0.364 C  
HETATM    2  N   UNL     1     -10.814   8.209  70.374  1.00  0.00    -0.234 NA 
HETATM    3  C   UNL     1     -11.599   7.085  70.257  1.00  0.00    -0.262 A  
HETATM    4  N   UNL     1     -11.388   6.456  69.131  1.00  0.00    -0.354 NA 
HETATM    5  C   UNL     1     -10.434   7.211  68.475  1.00  0.00    -0.204 A  
HETATM    6  C   UNL     1     -10.031   8.311  69.241  1.00  0.00    -0.192 A  
HETATM    7  N   UNL     1     -10.065   6.822  67.127  1.00  0.00    -0.171 N  
HETATM    8  O   UNL     1     -10.681   5.882  66.611  1.00  0.00    -0.286 OA 
HETATM    9  O   UNL     1      -9.155   7.461  66.573  1.00  0.00    -0.150 OA 
ENDROOT
BRANCH   6  10
HETATM   10  S   UNL     1      -9.027   9.677  68.798  1.00  0.00    -0.138 SA 
BRANCH  10  11
HETATM   11  C   UNL     1     -10.033  10.933  68.053  1.00  0.00    -0.171 A  
HETATM   12  N   UNL     1     -10.810  11.734  68.815  1.00  0.00    -0.219 NA 
HETATM   13  C   UNL     1     -11.724  12.521  68.207  1.00  0.00    -0.340 A  
HETATM   14  N   UNL     1     -11.954  12.656  66.902  1.00  0.00    -0.506 NA 
HETATM   15  C   UNL     1     -11.188  11.847  66.154  1.00  0.00    -0.333 A  
HETATM   16  C   UNL     1     -10.258  10.966  66.684  1.00  0.00    -0.234 A  
HETATM   17  N   UNL     1      -9.814  10.262  65.592  1.00  0.00    -0.249 NA 
HETATM   18  H   UNL     1      -9.158   9.481  65.606  1.00  0.00     0.000 HD 
HETATM   19  C   UNL     1     -10.411  10.797  64.478  1.00  0.00    -0.331 A  
HETATM   20  N   UNL     1     -11.257  11.751  64.793  1.00  0.00    -0.297 NA 
ENDBRANCH  10  11
ENDBRANCH   6  10
TORSDOF 2
ENDMDL
MODEL      124
REMARK 921   NORMALIZED FREE ENERGY PREDICTED BY IDOCK:   -4.89 KCAL/MOL
REMARK 922        TOTAL FREE ENERGY PREDICTED BY IDOCK:   -5.78 KCAL/MOL
REMARK 923 INTER-LIGAND FREE ENERGY PREDICTED BY IDOCK:   -5.31 KCAL/MOL
REMARK 924 INTRA-LIGAND FREE ENERGY PREDICTED BY IDOCK:   -0.47 KCAL/MOL
REMARK 927      BINDING AFFINITY PREDICTED BY RF-SCORE:    0.00 PKD
ROOT
HETATM    1  C   UNL     1      -8.962  11.304  68.608  1.00  0.00    -0.147 C  
HETATM    2  N   UNL     1      -9.700  10.297  69.330  1.00  0.00    -0.223 NA 
HETATM    3  C   UNL     1      -9.046   9.254  69.945  1.00  0.00    -0.191 A  
HETATM    4  N   UNL     1      -9.867   8.492  70.620  1.00  0.00    -0.180 NA 
HETATM    5  C   UNL     1     -11.110   9.073  70.452  1.00  0.00    -0.244 A  
HETATM    6  C   UNL     1     -11.046  10.200  69.624  1.00  0.00    -0.263 A  
HETATM    7  N   UNL     1     -12.230   8.509  71.183  1.00  0.00    -0.271 N  
HETATM    8  O   UNL     1     -11.994   7.589  71.976  1.00  0.00    -0.282 OA 
HETATM    9  O   UNL     1     -13.355   8.990  70.971  1.00  0.00    -0.159 OA 
ENDROOT
BRANCH   6  10
HETATM   10  S   UNL     1     -12.271  11.401  69.271  1.00  0.00    -0.099 SA 
BRANCH  10  11
HETATM   11  C   UNL     1     -12.405  12.527  70.634  1.00  0.00    -0.282 A  
HETATM   12  N   UNL     1     -13.279  12.291  71.638  1.00  0.00    -0.351 NA 
HETATM   13  C   UNL     1     -13.516  13.271  72.537  1.00  0.00    -0.516 A  
HETATM   14  N   UNL     1     -12.956  14.479  72.602  1.00  0.00    -0.424 NA 
HETATM   15  C   UNL     1     -12.100  14.709  71.594  1.00  0.00    -0.335 A  
HETATM   16  C   UNL     1     -11.829  13.789  70.594  1.00  0.00    -0.185 A  
HETATM   17  N   UNL     1     -11.022  14.479  69.723  1.00  0.00    -0.404 NA 
HETATM   18  H   UNL     1     -10.667  14.136  68.831  1.00  0.00     0.000 HD 
HETATM   19  C   UNL     1     -10.778  15.714  70.269  1.00  0.00    -0.338 A  
HETATM   20  N   UNL     1     -11.429  15.883  71.397  1.00  0.00    -0.417 NA 
ENDBRANCH  10  11
ENDBRANCH   6  10
TORSDOF 2
ENDMDL
MODEL      125
REMARK 921   NORMALIZED FREE ENERGY PREDICTED BY IDOCK:   -4.84 KCAL/MOL
REMARK 922        TOTAL FREE ENERGY PREDICTED BY IDOCK:   -5.73 KCAL/MOL
REMARK 923 INTER-LIGAND FREE ENERGY PREDICTED BY IDOCK:   -5.38 KCAL/MOL
REMARK 924 INTRA-LIGAND FREE ENERGY PREDICTED BY IDOCK:   -0.35 KCAL/MOL
REMARK 927      BINDING AFFINITY PREDICTED BY RF-SCORE:    0.00 PKD
ROOT
HETATM    1  C   UNL     1     -13.108  13.932  65.270  1.00  0.00    -0.158 C  
HETATM    2  N   UNL     1     -12.247  12.860  64.834  1.00  0.00    -0.426 NA 
HETATM    3  C   UNL     1     -12.315  12.387  63.543  1.00  0.00    -0.546 A  
HETATM    4  N   UNL     1     -11.405  11.479  63.306  1.00  0.00    -0.229 NA 
HETATM    5  C   UNL     1     -10.700  11.365  64.490  1.00  0.00    -0.327 A  
HETATM    6  C   UNL     1     -11.220  12.204  65.482  1.00  0.00    -0.334 A  
HETATM    7  N   UNL     1      -9.536  10.498  64.510  1.00  0.00    -0.249 N  
HETATM    8  O   UNL     1      -9.195   9.971  63.444  1.00  0.00    -0.261 OA 
HETATM    9  O   UNL     1      -8.952  10.345  65.595  1.00  0.00    -0.162 OA 
ENDROOT
BRANCH   6  10
HETATM   10  S   UNL     1     -10.579  12.597  67.065  1.00  0.00    -0.241 SA 
BRANCH  10  11
HETATM   11  C   UNL     1      -9.288  13.800  66.897  1.00  0.00    -0.261 A  
HETATM   12  N   UNL     1      -8.091  13.614  67.499  1.00  0.00    -0.172 NA 
HETATM   13  C   UNL     1      -7.217  14.644  67.538  1.00  0.00    -0.192 A  
HETATM   14  N   UNL     1      -7.355  15.859  67.010  1.00  0.00    -0.218 NA 
HETATM   15  C   UNL     1      -8.551  16.039  66.427  1.00  0.00    -0.334 A  
HETATM   16  C   UNL     1      -9.535  15.064  66.380  1.00  0.00    -0.297 A  
HETATM   17  N   UNL     1     -10.611  15.711  65.822  1.00  0.00    -0.342 NA 
HETATM   18  H   UNL     1     -11.542  15.319  65.683  1.00  0.00     0.000 HD 
HETATM   19  C   UNL     1     -10.208  16.979  65.486  1.00  0.00    -0.089 A  
HETATM   20  N   UNL     1      -8.967  17.207  65.853  1.00  0.00    -0.536 NA 
ENDBRANCH  10  11
ENDBRANCH   6  10
TORSDOF 2
ENDMDL
MODEL      126
REMARK 921   NORMALIZED FREE ENERGY PREDICTED BY IDOCK:   -4.84 KCAL/MOL
REMARK 922        TOTAL FREE ENERGY PREDICTED BY IDOCK:   -5.72 KCAL/MOL
REMARK 923 INTER-LIGAND FREE ENERGY PREDICTED BY IDOCK:   -5.33 KCAL/MOL
REMARK 924 INTRA-LIGAND FREE ENERGY PREDICTED BY IDOCK:   -0.40 KCAL/MOL
REMARK 927      BINDING AFFINITY PREDICTED BY RF-SCORE:    0.00 PKD
ROOT
HETATM    1  C   UNL     1     -12.479  13.840  70.325  1.00  0.00    -0.289 C  
HETATM    2  N   UNL     1     -11.896  15.013  69.720  1.00  0.00    -0.301 NA 
HETATM    3  C   UNL     1     -11.379  16.021  70.500  1.00  0.00    -0.401 A  
HETATM    4  N   UNL     1     -10.819  16.958  69.780  1.00  0.00    -0.183 NA 
HETATM    5  C   UNL     1     -10.961  16.534  68.472  1.00  0.00    -0.350 A  
HETATM    6  C   UNL     1     -11.658  15.322  68.396  1.00  0.00    -0.349 A  
HETATM    7  N   UNL     1     -10.333  17.322  67.428  1.00  0.00    -0.330 N  
HETATM    8  O   UNL     1      -9.640  18.286  67.774  1.00  0.00    -0.273 OA 
HETATM    9  O   UNL     1     -10.527  16.976  66.251  1.00  0.00    -0.314 OA 
ENDROOT
BRANCH   6  10
HETATM   10  S   UNL     1     -11.916  14.264  67.024  1.00  0.00    -0.392 SA 
BRANCH  10  11
HETATM   11  C   UNL     1     -11.130  12.704  67.325  1.00  0.00    -0.278 A  
HETATM   12  N   UNL     1     -11.866  11.580  67.474  1.00  0.00    -0.631 NA 
HETATM   13  C   UNL     1     -11.257  10.460  67.922  1.00  0.00    -0.263 A  
HETATM   14  N   UNL     1      -9.969  10.285  68.213  1.00  0.00    -0.144 NA 
HETATM   15  C   UNL     1      -9.249  11.409  68.075  1.00  0.00    -0.171 A  
HETATM   16  C   UNL     1      -9.789  12.621  67.672  1.00  0.00    -0.210 A  
HETATM   17  N   UNL     1      -8.743  13.503  67.796  1.00  0.00    -0.176 NA 
HETATM   18  H   UNL     1      -8.784  14.510  67.640  1.00  0.00     0.000 HD 
HETATM   19  C   UNL     1      -7.634  12.786  68.168  1.00  0.00    -0.134 A  
HETATM   20  N   UNL     1      -7.916  11.517  68.355  1.00  0.00    -0.137 NA 
ENDBRANCH  10  11
ENDBRANCH   6  10
TORSDOF 2
ENDMDL
MODEL      127
REMARK 921   NORMALIZED FREE ENERGY PREDICTED BY IDOCK:   -4.84 KCAL/MOL
REMARK 922        TOTAL FREE ENERGY PREDICTED BY IDOCK:   -5.72 KCAL/MOL
REMARK 923 INTER-LIGAND FREE ENERGY PREDICTED BY IDOCK:   -5.51 KCAL/MOL
REMARK 924 INTRA-LIGAND FREE ENERGY PREDICTED BY IDOCK:   -0.22 KCAL/MOL
REMARK 927      BINDING AFFINITY PREDICTED BY RF-SCORE:    0.00 PKD
ROOT
HETATM    1  C   UNL     1     -10.172  14.681  65.197  1.00  0.00    -0.382 C  
HETATM    2  N   UNL     1     -10.564  15.037  66.539  1.00  0.00    -0.298 NA 
HETATM    3  C   UNL     1     -10.432  16.331  66.988  1.00  0.00    -0.306 A  
HETATM    4  N   UNL     1     -10.917  16.482  68.193  1.00  0.00    -0.351 NA 
HETATM    5  C   UNL     1     -11.401  15.235  68.540  1.00  0.00    -0.327 A  
HETATM    6  C   UNL     1     -11.173  14.293  67.530  1.00  0.00    -0.307 A  
HETATM    7  N   UNL     1     -12.109  15.105  69.800  1.00  0.00    -0.322 N  
HETATM    8  O   UNL     1     -12.307  16.134  70.457  1.00  0.00    -0.199 OA 
HETATM    9  O   UNL     1     -12.476  13.968  70.139  1.00  0.00    -0.344 OA 
ENDROOT
BRANCH   6  10
HETATM   10  S   UNL     1     -11.766  12.652  67.374  1.00  0.00    -0.338 SA 
BRANCH  10  11
HETATM   11  C   UNL     1     -11.032  11.637  68.629  1.00  0.00    -0.220 A  
HETATM   12  N   UNL     1      -9.704  11.386  68.622  1.00  0.00    -0.193 NA 
HETATM   13  C   UNL     1      -9.218  10.436  69.451  1.00  0.00    -0.159 A  
HETATM   14  N   UNL     1      -9.885   9.706  70.345  1.00  0.00    -0.262 NA 
HETATM   15  C   UNL     1     -11.204   9.953  70.335  1.00  0.00    -0.313 A  
HETATM   16  C   UNL     1     -11.807  10.869  69.487  1.00  0.00    -0.332 A  
HETATM   17  N   UNL     1     -13.149  10.700  69.723  1.00  0.00    -0.428 NA 
HETATM   18  H   UNL     1     -13.910  11.171  69.233  1.00  0.00     0.000 HD 
HETATM   19  C   UNL     1     -13.284   9.784  70.736  1.00  0.00    -0.117 A  
HETATM   20  N   UNL     1     -12.121   9.308  71.117  1.00  0.00    -0.307 NA 
ENDBRANCH  10  11
ENDBRANCH   6  10
TORSDOF 2
ENDMDL
MODEL      128
REMARK 921   NORMALIZED FREE ENERGY PREDICTED BY IDOCK:   -4.83 KCAL/MOL
REMARK 922        TOTAL FREE ENERGY PREDICTED BY IDOCK:   -5.72 KCAL/MOL
REMARK 923 INTER-LIGAND FREE ENERGY PREDICTED BY IDOCK:   -5.28 KCAL/MOL
REMARK 924 INTRA-LIGAND FREE ENERGY PREDICTED BY IDOCK:   -0.44 KCAL/MOL
REMARK 927      BINDING AFFINITY PREDICTED BY RF-SCORE:    0.00 PKD
ROOT
HETATM    1  C   UNL     1     -12.222  14.688  64.341  1.00  0.00    -0.452 C  
HETATM    2  N   UNL     1     -11.763  13.342  64.581  1.00  0.00    -0.347 NA 
HETATM    3  C   UNL     1     -11.362  12.541  63.536  1.00  0.00    -0.486 A  
HETATM    4  N   UNL     1     -10.898  11.391  63.951  1.00  0.00    -0.385 NA 
HETATM    5  C   UNL     1     -10.984  11.450  65.330  1.00  0.00    -0.184 A  
HETATM    6  C   UNL     1     -11.548  12.657  65.760  1.00  0.00    -0.387 A  
HETATM    7  N   UNL     1     -10.435  10.346  66.095  1.00  0.00    -0.195 N  
HETATM    8  O   UNL     1      -9.851   9.451  65.473  1.00  0.00    -0.290 OA 
HETATM    9  O   UNL     1     -10.581  10.372  67.328  1.00  0.00    -0.235 OA 
ENDROOT
BRANCH   6  10
HETATM   10  S   UNL     1     -11.681  13.316  67.378  1.00  0.00    -0.375 SA 
BRANCH  10  11
HETATM   11  C   UNL     1     -10.228  14.262  67.751  1.00  0.00    -0.235 A  
HETATM   12  N   UNL     1      -9.060  13.646  68.036  1.00  0.00    -0.186 NA 
HETATM   13  C   UNL     1      -8.041  14.382  68.533  1.00  0.00    -0.146 A  
HETATM   14  N   UNL     1      -8.008  15.695  68.754  1.00  0.00    -0.159 NA 
HETATM   15  C   UNL     1      -9.177  16.297  68.481  1.00  0.00    -0.211 A  
HETATM   16  C   UNL     1     -10.296  15.623  68.019  1.00  0.00    -0.246 A  
HETATM   17  N   UNL     1     -11.276  16.585  68.006  1.00  0.00    -0.271 NA 
HETATM   18  H   UNL     1     -12.259  16.440  67.773  1.00  0.00     0.000 HD 
HETATM   19  C   UNL     1     -10.696  17.777  68.362  1.00  0.00    -0.197 A  
HETATM   20  N   UNL     1      -9.428  17.627  68.667  1.00  0.00    -0.289 NA 
ENDBRANCH  10  11
ENDBRANCH   6  10
TORSDOF 2
ENDMDL
MODEL      129
REMARK 921   NORMALIZED FREE ENERGY PREDICTED BY IDOCK:   -4.83 KCAL/MOL
REMARK 922        TOTAL FREE ENERGY PREDICTED BY IDOCK:   -5.71 KCAL/MOL
REMARK 923 INTER-LIGAND FREE ENERGY PREDICTED BY IDOCK:   -5.26 KCAL/MOL
REMARK 924 INTRA-LIGAND FREE ENERGY PREDICTED BY IDOCK:   -0.45 KCAL/MOL
REMARK 927      BINDING AFFINITY PREDICTED BY RF-SCORE:    0.00 PKD
ROOT
HETATM    1  C   UNL     1     -12.547  12.988  71.003  1.00  0.00    -0.299 C  
HETATM    2  N   UNL     1     -12.094  14.291  70.581  1.00  0.00    -0.325 NA 
HETATM    3  C   UNL     1     -11.783  15.259  71.508  1.00  0.00    -0.391 A  
HETATM    4  N   UNL     1     -11.311  16.341  70.945  1.00  0.00    -0.361 NA 
HETATM    5  C   UNL     1     -11.297  16.060  69.591  1.00  0.00    -0.332 A  
HETATM    6  C   UNL     1     -11.808  14.785  69.324  1.00  0.00    -0.318 A  
HETATM    7  N   UNL     1     -10.713  17.043  68.697  1.00  0.00    -0.349 N  
HETATM    8  O   UNL     1     -10.191  18.042  69.205  1.00  0.00    -0.349 OA 
HETATM    9  O   UNL     1     -10.771  16.816  67.477  1.00  0.00    -0.328 OA 
ENDROOT
BRANCH   6  10
HETATM   10  S   UNL     1     -11.814  13.872  67.829  1.00  0.00    -0.370 SA 
BRANCH  10  11
HETATM   11  C   UNL     1     -10.261  13.037  67.639  1.00  0.00    -0.216 A  
HETATM   12  N   UNL     1      -9.139  13.535  68.205  1.00  0.00    -0.195 NA 
HETATM   13  C   UNL     1      -7.946  13.004  67.857  1.00  0.00    -0.157 A  
HETATM   14  N   UNL     1      -7.709  11.987  67.029  1.00  0.00    -0.153 NA 
HETATM   15  C   UNL     1      -8.828  11.508  66.462  1.00  0.00    -0.190 A  
HETATM   16  C   UNL     1     -10.092  12.018  66.713  1.00  0.00    -0.203 A  
HETATM   17  N   UNL     1     -10.901  11.333  65.839  1.00  0.00    -0.241 NA 
HETATM   18  H   UNL     1     -11.900  11.484  65.698  1.00  0.00     0.000 HD 
HETATM   19  C   UNL     1     -10.124  10.407  65.189  1.00  0.00    -0.308 A  
HETATM   20  N   UNL     1      -8.862  10.501  65.540  1.00  0.00    -0.177 NA 
ENDBRANCH  10  11
ENDBRANCH   6  10
TORSDOF 2
ENDMDL
MODEL      130
REMARK 921   NORMALIZED FREE ENERGY PREDICTED BY IDOCK:   -4.81 KCAL/MOL
REMARK 922        TOTAL FREE ENERGY PREDICTED BY IDOCK:   -5.69 KCAL/MOL
REMARK 923 INTER-LIGAND FREE ENERGY PREDICTED BY IDOCK:   -5.26 KCAL/MOL
REMARK 924 INTRA-LIGAND FREE ENERGY PREDICTED BY IDOCK:   -0.43 KCAL/MOL
REMARK 927      BINDING AFFINITY PREDICTED BY RF-SCORE:    0.00 PKD
ROOT
HETATM    1  C   UNL     1     -13.256   8.077  71.609  1.00  0.00    -0.330 C  
HETATM    2  N   UNL     1     -11.862   8.342  71.869  1.00  0.00    -0.312 NA 
HETATM    3  C   UNL     1     -11.255   7.857  73.004  1.00  0.00    -0.283 A  
HETATM    4  N   UNL     1      -9.975   8.121  73.027  1.00  0.00    -0.276 NA 
HETATM    5  C   UNL     1      -9.732   8.795  71.844  1.00  0.00    -0.316 A  
HETATM    6  C   UNL     1     -10.904   8.973  71.101  1.00  0.00    -0.294 A  
HETATM    7  N   UNL     1      -8.357   9.133  71.523  1.00  0.00     0.007 N  
HETATM    8  O   UNL     1      -7.473   8.730  72.289  1.00  0.00    -0.309 OA 
HETATM    9  O   UNL     1      -8.154   9.802  70.497  1.00  0.00    -0.222 OA 
ENDROOT
BRANCH   6  10
HETATM   10  S   UNL     1     -11.113   9.561  69.464  1.00  0.00    -0.080 SA 
BRANCH  10  11
HETATM   11  C   UNL     1     -11.393  11.311  69.495  1.00  0.00    -0.294 A  
HETATM   12  N   UNL     1     -10.669  12.138  68.708  1.00  0.00    -0.230 NA 
HETATM   13  C   UNL     1     -10.750  13.470  68.918  1.00  0.00    -0.201 A  
HETATM   14  N   UNL     1     -11.505  14.118  69.805  1.00  0.00    -0.264 NA 
HETATM   15  C   UNL     1     -12.208  13.289  70.591  1.00  0.00    -0.338 A  
HETATM   16  C   UNL     1     -12.155  11.907  70.490  1.00  0.00    -0.331 A  
HETATM   17  N   UNL     1     -12.911  11.471  71.551  1.00  0.00    -0.409 NA 
HETATM   18  H   UNL     1     -13.052  10.501  71.830  1.00  0.00     0.000 HD 
HETATM   19  C   UNL     1     -13.442  12.576  72.167  1.00  0.00    -0.422 A  
HETATM   20  N   UNL     1     -13.023  13.690  71.612  1.00  0.00    -0.357 NA 
ENDBRANCH  10  11
ENDBRANCH   6  10
TORSDOF 2
ENDMDL
MODEL      131
REMARK 921   NORMALIZED FREE ENERGY PREDICTED BY IDOCK:   -4.81 KCAL/MOL
REMARK 922        TOTAL FREE ENERGY PREDICTED BY IDOCK:   -5.69 KCAL/MOL
REMARK 923 INTER-LIGAND FREE ENERGY PREDICTED BY IDOCK:   -5.32 KCAL/MOL
REMARK 924 INTRA-LIGAND FREE ENERGY PREDICTED BY IDOCK:   -0.36 KCAL/MOL
REMARK 927      BINDING AFFINITY PREDICTED BY RF-SCORE:    0.00 PKD
ROOT
HETATM    1  C   UNL     1     -10.771  15.087  67.946  1.00  0.00    -0.268 C  
HETATM    2  N   UNL     1     -11.365  14.786  69.226  1.00  0.00    -0.278 NA 
HETATM    3  C   UNL     1     -11.612  15.786  70.137  1.00  0.00    -0.357 A  
HETATM    4  N   UNL     1     -12.231  15.339  71.199  1.00  0.00    -0.317 NA 
HETATM    5  C   UNL     1     -12.411  13.989  70.962  1.00  0.00    -0.369 A  
HETATM    6  C   UNL     1     -11.856  13.601  69.738  1.00  0.00    -0.327 A  
HETATM    7  N   UNL     1     -13.178  13.224  71.928  1.00  0.00    -0.427 N  
HETATM    8  O   UNL     1     -13.694  13.840  72.869  1.00  0.00    -0.684 OA 
HETATM    9  O   UNL     1     -13.273  11.999  71.747  1.00  0.00    -0.450 OA 
ENDROOT
BRANCH   6  10
HETATM   10  S   UNL     1     -11.992  12.081  68.878  1.00  0.00    -0.167 SA 
BRANCH  10  11
HETATM   11  C   UNL     1     -10.373  11.487  68.467  1.00  0.00    -0.210 A  
HETATM   12  N   UNL     1      -9.849  11.709  67.241  1.00  0.00    -0.187 NA 
HETATM   13  C   UNL     1      -8.720  11.056  66.889  1.00  0.00    -0.148 A  
HETATM   14  N   UNL     1      -7.993  10.216  67.625  1.00  0.00    -0.102 NA 
HETATM   15  C   UNL     1      -8.528   9.991  68.835  1.00  0.00    -0.132 A  
HETATM   16  C   UNL     1      -9.709  10.571  69.271  1.00  0.00    -0.196 A  
HETATM   17  N   UNL     1      -9.942   9.969  70.483  1.00  0.00    -0.374 NA 
HETATM   18  H   UNL     1     -10.760  10.108  71.077  1.00  0.00     0.000 HD 
HETATM   19  C   UNL     1      -8.876   9.149  70.754  1.00  0.00    -0.239 A  
HETATM   20  N   UNL     1      -8.011   9.135  69.766  1.00  0.00    -0.089 NA 
ENDBRANCH  10  11
ENDBRANCH   6  10
TORSDOF 2
ENDMDL
MODEL      132
REMARK 921   NORMALIZED FREE ENERGY PREDICTED BY IDOCK:   -4.80 KCAL/MOL
REMARK 922        TOTAL FREE ENERGY PREDICTED BY IDOCK:   -5.68 KCAL/MOL
REMARK 923 INTER-LIGAND FREE ENERGY PREDICTED BY IDOCK:   -5.99 KCAL/MOL
REMARK 924 INTRA-LIGAND FREE ENERGY PREDICTED BY IDOCK:    0.31 KCAL/MOL
REMARK 927      BINDING AFFINITY PREDICTED BY RF-SCORE:    0.00 PKD
ROOT
HETATM    1  C   UNL     1     -11.867  11.909  67.463  1.00  0.00    -0.179 C  
HETATM    2  N   UNL     1     -11.766  12.978  66.499  1.00  0.00    -0.363 NA 
HETATM    3  C   UNL     1     -12.594  13.012  65.401  1.00  0.00    -0.422 A  
HETATM    4  N   UNL     1     -12.418  14.094  64.689  1.00  0.00    -0.638 NA 
HETATM    5  C   UNL     1     -11.442  14.806  65.361  1.00  0.00    -0.341 A  
HETATM    6  C   UNL     1     -10.991  14.120  66.494  1.00  0.00    -0.309 A  
HETATM    7  N   UNL     1     -11.100  16.128  64.867  1.00  0.00    -0.390 N  
HETATM    8  O   UNL     1     -11.757  16.574  63.918  1.00  0.00    -1.148 OA 
HETATM    9  O   UNL     1     -10.173  16.731  65.431  1.00  0.00    -0.599 OA 
ENDROOT
BRANCH   6  10
HETATM   10  S   UNL     1      -9.940  14.663  67.787  1.00  0.00    -0.225 SA 
BRANCH  10  11
HETATM   11  C   UNL     1      -8.514  13.612  67.869  1.00  0.00    -0.177 A  
HETATM   12  N   UNL     1      -7.414  13.997  68.554  1.00  0.00    -0.118 NA 
HETATM   13  C   UNL     1      -6.277  13.282  68.411  1.00  0.00    -0.086 A  
HETATM   14  N   UNL     1      -6.085  12.178  67.689  1.00  0.00    -0.094 NA 
HETATM   15  C   UNL     1      -7.178  11.812  67.002  1.00  0.00    -0.134 A  
HETATM   16  C   UNL     1      -8.377  12.507  67.040  1.00  0.00    -0.144 A  
HETATM   17  N   UNL     1      -9.156  11.870  66.106  1.00  0.00    -0.323 NA 
HETATM   18  H   UNL     1     -10.095  12.143  65.818  1.00  0.00     0.000 HD 
HETATM   19  C   UNL     1      -8.444  10.797  65.630  1.00  0.00    -0.163 A  
HETATM   20  N   UNL     1      -7.238  10.747  66.148  1.00  0.00    -0.137 NA 
ENDBRANCH  10  11
ENDBRANCH   6  10
TORSDOF 2
ENDMDL
MODEL      133
REMARK 921   NORMALIZED FREE ENERGY PREDICTED BY IDOCK:   -4.80 KCAL/MOL
REMARK 922        TOTAL FREE ENERGY PREDICTED BY IDOCK:   -5.67 KCAL/MOL
REMARK 923 INTER-LIGAND FREE ENERGY PREDICTED BY IDOCK:   -5.01 KCAL/MOL
REMARK 924 INTRA-LIGAND FREE ENERGY PREDICTED BY IDOCK:   -0.66 KCAL/MOL
REMARK 927      BINDING AFFINITY PREDICTED BY RF-SCORE:    0.00 PKD
ROOT
HETATM    1  C   UNL     1     -10.876  16.848  68.473  1.00  0.00    -0.335 C  
HETATM    2  N   UNL     1      -9.745  15.953  68.471  1.00  0.00    -0.207 NA 
HETATM    3  C   UNL     1      -8.509  16.385  68.894  1.00  0.00    -0.247 A  
HETATM    4  N   UNL     1      -7.630  15.418  68.904  1.00  0.00    -0.149 NA 
HETATM    5  C   UNL     1      -8.327  14.300  68.485  1.00  0.00    -0.156 A  
HETATM    6  C   UNL     1      -9.658  14.607  68.180  1.00  0.00    -0.213 A  
HETATM    7  N   UNL     1      -7.638  13.022  68.497  1.00  0.00    -0.129 N  
HETATM    8  O   UNL     1      -6.489  12.994  68.955  1.00  0.00    -0.082 OA 
HETATM    9  O   UNL     1      -8.247  12.037  68.050  1.00  0.00    -0.138 OA 
ENDROOT
BRANCH   6  10
HETATM   10  S   UNL     1     -10.999  13.538  67.819  1.00  0.00    -0.274 SA 
BRANCH  10  11
HETATM   11  C   UNL     1     -11.159  13.365  66.062  1.00  0.00    -0.283 A  
HETATM   12  N   UNL     1     -11.991  14.171  65.364  1.00  0.00    -0.365 NA 
HETATM   13  C   UNL     1     -12.258  13.868  64.074  1.00  0.00    -0.369 A  
HETATM   14  N   UNL     1     -11.766  12.865  63.347  1.00  0.00    -0.515 NA 
HETATM   15  C   UNL     1     -10.953  12.063  64.052  1.00  0.00    -0.381 A  
HETATM   16  C   UNL     1     -10.657  12.258  65.392  1.00  0.00    -0.274 A  
HETATM   17  N   UNL     1      -9.914  11.153  65.728  1.00  0.00    -0.234 NA 
HETATM   18  H   UNL     1      -9.565  10.923  66.658  1.00  0.00     0.000 HD 
HETATM   19  C   UNL     1      -9.726  10.413  64.587  1.00  0.00    -0.329 A  
HETATM   20  N   UNL     1     -10.355  10.938  63.560  1.00  0.00    -0.333 NA 
ENDBRANCH  10  11
ENDBRANCH   6  10
TORSDOF 2
ENDMDL
MODEL      134
REMARK 921   NORMALIZED FREE ENERGY PREDICTED BY IDOCK:   -4.78 KCAL/MOL
REMARK 922        TOTAL FREE ENERGY PREDICTED BY IDOCK:   -5.66 KCAL/MOL
REMARK 923 INTER-LIGAND FREE ENERGY PREDICTED BY IDOCK:   -5.35 KCAL/MOL
REMARK 924 INTRA-LIGAND FREE ENERGY PREDICTED BY IDOCK:   -0.31 KCAL/MOL
REMARK 927      BINDING AFFINITY PREDICTED BY RF-SCORE:    0.00 PKD
ROOT
HETATM    1  C   UNL     1     -12.264  13.142  65.611  1.00  0.00    -0.466 C  
HETATM    2  N   UNL     1     -11.520  14.377  65.653  1.00  0.00    -0.331 NA 
HETATM    3  C   UNL     1     -11.461  15.199  64.551  1.00  0.00    -0.316 A  
HETATM    4  N   UNL     1     -10.817  16.309  64.802  1.00  0.00    -0.699 NA 
HETATM    5  C   UNL     1     -10.453  16.215  66.132  1.00  0.00    -0.325 A  
HETATM    6  C   UNL     1     -10.859  14.999  66.694  1.00  0.00    -0.318 A  
HETATM    7  N   UNL     1      -9.807  17.361  66.745  1.00  0.00    -0.283 N  
HETATM    8  O   UNL     1      -9.689  18.386  66.062  1.00  0.00    -0.491 OA 
HETATM    9  O   UNL     1      -9.417  17.243  67.918  1.00  0.00    -0.256 OA 
ENDROOT
BRANCH   6  10
HETATM   10  S   UNL     1     -10.839  14.476  68.366  1.00  0.00    -0.251 SA 
BRANCH  10  11
HETATM   11  C   UNL     1     -10.358  12.771  68.446  1.00  0.00    -0.243 A  
HETATM   12  N   UNL     1     -11.151  11.860  69.052  1.00  0.00    -0.240 NA 
HETATM   13  C   UNL     1     -10.657  10.625  69.292  1.00  0.00    -0.233 A  
HETATM   14  N   UNL     1      -9.458  10.143  68.966  1.00  0.00    -0.180 NA 
HETATM   15  C   UNL     1      -8.673  11.058  68.377  1.00  0.00    -0.150 A  
HETATM   16  C   UNL     1      -9.068  12.365  68.135  1.00  0.00    -0.200 A  
HETATM   17  N   UNL     1      -7.931  12.967  67.652  1.00  0.00    -0.154 NA 
HETATM   18  H   UNL     1      -7.827  13.954  67.416  1.00  0.00     0.000 HD 
HETATM   19  C   UNL     1      -6.961  12.002  67.545  1.00  0.00    -0.130 A  
HETATM   20  N   UNL     1      -7.381  10.839  67.988  1.00  0.00    -0.087 NA 
ENDBRANCH  10  11
ENDBRANCH   6  10
TORSDOF 2
ENDMDL
MODEL      135
REMARK 921   NORMALIZED FREE ENERGY PREDICTED BY IDOCK:   -4.78 KCAL/MOL
REMARK 922        TOTAL FREE ENERGY PREDICTED BY IDOCK:   -5.66 KCAL/MOL
REMARK 923 INTER-LIGAND FREE ENERGY PREDICTED BY IDOCK:   -5.28 KCAL/MOL
REMARK 924 INTRA-LIGAND FREE ENERGY PREDICTED BY IDOCK:   -0.38 KCAL/MOL
REMARK 927      BINDING AFFINITY PREDICTED BY RF-SCORE:    0.00 PKD
ROOT
HETATM    1  C   UNL     1      -7.123  15.303  67.481  1.00  0.00    -0.196 C  
HETATM    2  N   UNL     1      -7.612  13.949  67.577  1.00  0.00    -0.177 NA 
HETATM    3  C   UNL     1      -6.747  12.883  67.480  1.00  0.00    -0.154 A  
HETATM    4  N   UNL     1      -7.355  11.742  67.677  1.00  0.00    -0.110 NA 
HETATM    5  C   UNL     1      -8.671  12.079  67.929  1.00  0.00    -0.170 A  
HETATM    6  C   UNL     1      -8.874  13.462  67.850  1.00  0.00    -0.194 A  
HETATM    7  N   UNL     1      -9.589  11.017  68.298  1.00  0.00    -0.165 N  
HETATM    8  O   UNL     1      -9.122   9.880  68.442  1.00  0.00    -0.122 OA 
HETATM    9  O   UNL     1     -10.784  11.316  68.452  1.00  0.00    -0.182 OA 
ENDROOT
BRANCH   6  10
HETATM   10  S   UNL     1     -10.278  14.414  68.286  1.00  0.00    -0.247 SA 
BRANCH  10  11
HETATM   11  C   UNL     1     -10.706  15.486  66.940  1.00  0.00    -0.317 A  
HETATM   12  N   UNL     1     -11.089  14.976  65.748  1.00  0.00    -0.346 NA 
HETATM   13  C   UNL     1     -11.189  15.807  64.688  1.00  0.00    -0.363 A  
HETATM   14  N   UNL     1     -10.993  17.125  64.655  1.00  0.00    -0.921 NA 
HETATM   15  C   UNL     1     -10.600  17.620  65.839  1.00  0.00    -0.203 A  
HETATM   16  C   UNL     1     -10.417  16.843  66.972  1.00  0.00    -0.281 A  
HETATM   17  N   UNL     1      -9.895  17.721  67.891  1.00  0.00    -0.294 NA 
HETATM   18  H   UNL     1      -9.580  17.490  68.833  1.00  0.00     0.000 HD 
HETATM   19  C   UNL     1      -9.875  18.966  67.314  1.00  0.00    -0.320 A  
HETATM   20  N   UNL     1     -10.285  18.930  66.067  1.00  0.00    -0.521 NA 
ENDBRANCH  10  11
ENDBRANCH   6  10
TORSDOF 2
ENDMDL
MODEL      136
REMARK 921   NORMALIZED FREE ENERGY PREDICTED BY IDOCK:   -4.77 KCAL/MOL
REMARK 922        TOTAL FREE ENERGY PREDICTED BY IDOCK:   -5.65 KCAL/MOL
REMARK 923 INTER-LIGAND FREE ENERGY PREDICTED BY IDOCK:   -5.20 KCAL/MOL
REMARK 924 INTRA-LIGAND FREE ENERGY PREDICTED BY IDOCK:   -0.45 KCAL/MOL
REMARK 927      BINDING AFFINITY PREDICTED BY RF-SCORE:    0.00 PKD
ROOT
HETATM    1  C   UNL     1     -10.776  10.780  65.619  1.00  0.00    -0.072 C  
HETATM    2  N   UNL     1     -10.889  12.103  65.055  1.00  0.00    -0.290 NA 
HETATM    3  C   UNL     1     -11.447  12.290  63.811  1.00  0.00    -0.466 A  
HETATM    4  N   UNL     1     -11.545  13.557  63.504  1.00  0.00    -0.168 NA 
HETATM    5  C   UNL     1     -11.044  14.229  64.604  1.00  0.00    -0.363 A  
HETATM    6  C   UNL     1     -10.598  13.342  65.591  1.00  0.00    -0.282 A  
HETATM    7  N   UNL     1     -11.120  15.678  64.610  1.00  0.00    -0.421 N  
HETATM    8  O   UNL     1     -11.700  16.227  63.666  1.00  0.00    -0.860 OA 
HETATM    9  O   UNL     1     -10.602  16.277  65.567  1.00  0.00    -0.373 OA 
ENDROOT
BRANCH   6  10
HETATM   10  S   UNL     1     -10.085  13.663  67.235  1.00  0.00    -0.241 SA 
BRANCH  10  11
HETATM   11  C   UNL     1      -8.347  14.011  67.253  1.00  0.00    -0.194 A  
HETATM   12  N   UNL     1      -7.453  13.042  67.553  1.00  0.00    -0.153 NA 
HETATM   13  C   UNL     1      -6.168  13.391  67.777  1.00  0.00    -0.157 A  
HETATM   14  N   UNL     1      -5.620  14.603  67.704  1.00  0.00    -0.340 NA 
HETATM   15  C   UNL     1      -6.517  15.561  67.420  1.00  0.00    -0.109 A  
HETATM   16  C   UNL     1      -7.866  15.313  67.224  1.00  0.00    -0.209 A  
HETATM   17  N   UNL     1      -8.414  16.566  67.095  1.00  0.00    -0.173 NA 
HETATM   18  H   UNL     1      -9.406  16.782  66.994  1.00  0.00     0.000 HD 
HETATM   19  C   UNL     1      -7.388  17.476  67.127  1.00  0.00    -0.188 A  
HETATM   20  N   UNL     1      -6.229  16.894  67.334  1.00  0.00    -0.143 NA 
ENDBRANCH  10  11
ENDBRANCH   6  10
TORSDOF 2
ENDMDL
MODEL      137
REMARK 921   NORMALIZED FREE ENERGY PREDICTED BY IDOCK:   -4.76 KCAL/MOL
REMARK 922        TOTAL FREE ENERGY PREDICTED BY IDOCK:   -5.63 KCAL/MOL
REMARK 923 INTER-LIGAND FREE ENERGY PREDICTED BY IDOCK:   -4.99 KCAL/MOL
REMARK 924 INTRA-LIGAND FREE ENERGY PREDICTED BY IDOCK:   -0.64 KCAL/MOL
REMARK 927      BINDING AFFINITY PREDICTED BY RF-SCORE:    0.00 PKD
ROOT
HETATM    1  C   UNL     1      -6.445  13.655  68.576  1.00  0.00    -0.090 C  
HETATM    2  N   UNL     1      -6.744  12.611  67.627  1.00  0.00    -0.128 NA 
HETATM    3  C   UNL     1      -5.753  11.768  67.177  1.00  0.00    -0.131 A  
HETATM    4  N   UNL     1      -6.224  10.834  66.392  1.00  0.00    -0.106 NA 
HETATM    5  C   UNL     1      -7.586  11.068  66.340  1.00  0.00    -0.135 A  
HETATM    6  C   UNL     1      -7.945  12.195  67.088  1.00  0.00    -0.170 A  
HETATM    7  N   UNL     1      -8.414  10.117  65.622  1.00  0.00    -0.147 N  
HETATM    8  O   UNL     1      -7.864   9.108  65.162  1.00  0.00    -0.101 OA 
HETATM    9  O   UNL     1      -9.625  10.372  65.518  1.00  0.00    -0.200 OA 
ENDROOT
BRANCH   6  10
HETATM   10  S   UNL     1      -9.534  12.791  67.522  1.00  0.00    -0.194 SA 
BRANCH  10  11
HETATM   11  C   UNL     1     -10.091  13.940  66.292  1.00  0.00    -0.300 A  
HETATM   12  N   UNL     1      -9.866  15.265  66.436  1.00  0.00    -0.259 NA 
HETATM   13  C   UNL     1     -10.494  16.124  65.604  1.00  0.00    -0.383 A  
HETATM   14  N   UNL     1     -11.310  15.838  64.589  1.00  0.00    -0.401 NA 
HETATM   15  C   UNL     1     -11.538  14.521  64.463  1.00  0.00    -0.377 A  
HETATM   16  C   UNL     1     -10.984  13.564  65.298  1.00  0.00    -0.295 A  
HETATM   17  N   UNL     1     -11.581  12.394  64.897  1.00  0.00    -0.331 NA 
HETATM   18  H   UNL     1     -11.458  11.477  65.327  1.00  0.00     0.000 HD 
HETATM   19  C   UNL     1     -12.372  12.679  63.813  1.00  0.00    -0.478 A  
HETATM   20  N   UNL     1     -12.373  13.963  63.537  1.00  0.00    -0.765 NA 
ENDBRANCH  10  11
ENDBRANCH   6  10
TORSDOF 2
ENDMDL
MODEL      138
REMARK 921   NORMALIZED FREE ENERGY PREDICTED BY IDOCK:   -4.75 KCAL/MOL
REMARK 922        TOTAL FREE ENERGY PREDICTED BY IDOCK:   -5.62 KCAL/MOL
REMARK 923 INTER-LIGAND FREE ENERGY PREDICTED BY IDOCK:   -5.17 KCAL/MOL
REMARK 924 INTRA-LIGAND FREE ENERGY PREDICTED BY IDOCK:   -0.46 KCAL/MOL
REMARK 927      BINDING AFFINITY PREDICTED BY RF-SCORE:    0.00 PKD
ROOT
HETATM    1  C   UNL     1      -8.053   9.119  67.103  1.00  0.00    -0.109 C  
HETATM    2  N   UNL     1      -9.052   9.992  66.537  1.00  0.00    -0.146 NA 
HETATM    3  C   UNL     1      -9.545   9.767  65.272  1.00  0.00    -0.300 A  
HETATM    4  N   UNL     1     -10.500  10.605  64.964  1.00  0.00    -0.266 NA 
HETATM    5  C   UNL     1     -10.649  11.402  66.083  1.00  0.00    -0.265 A  
HETATM    6  C   UNL     1      -9.735  11.059  67.086  1.00  0.00    -0.174 A  
HETATM    7  N   UNL     1     -11.726  12.375  66.089  1.00  0.00    -0.403 N  
HETATM    8  O   UNL     1     -12.499  12.383  65.123  1.00  0.00    -0.583 OA 
HETATM    9  O   UNL     1     -11.808  13.137  67.067  1.00  0.00    -0.363 OA 
ENDROOT
BRANCH   6  10
HETATM   10  S   UNL     1      -9.642  11.601  68.749  1.00  0.00     0.001 SA 
BRANCH  10  11
HETATM   11  C   UNL     1     -10.886  10.779  69.708  1.00  0.00    -0.226 A  
HETATM   12  N   UNL     1     -12.116  11.322  69.851  1.00  0.00    -0.332 NA 
HETATM   13  C   UNL     1     -12.959  10.790  70.763  1.00  0.00    -0.262 A  
HETATM   14  N   UNL     1     -12.758   9.733  71.549  1.00  0.00    -0.374 NA 
HETATM   15  C   UNL     1     -11.530   9.209  71.410  1.00  0.00    -0.350 A  
HETATM   16  C   UNL     1     -10.576   9.713  70.541  1.00  0.00    -0.306 A  
HETATM   17  N   UNL     1      -9.454   8.970  70.819  1.00  0.00    -0.229 NA 
HETATM   18  H   UNL     1      -8.530   9.100  70.409  1.00  0.00     0.000 HD 
HETATM   19  C   UNL     1      -9.801   8.022  71.748  1.00  0.00    -0.183 A  
HETATM   20  N   UNL     1     -11.051   8.152  72.131  1.00  0.00    -0.295 NA 
ENDBRANCH  10  11
ENDBRANCH   6  10
TORSDOF 2
ENDMDL
MODEL      139
REMARK 921   NORMALIZED FREE ENERGY PREDICTED BY IDOCK:   -4.72 KCAL/MOL
REMARK 922        TOTAL FREE ENERGY PREDICTED BY IDOCK:   -5.59 KCAL/MOL
REMARK 923 INTER-LIGAND FREE ENERGY PREDICTED BY IDOCK:   -5.14 KCAL/MOL
REMARK 924 INTRA-LIGAND FREE ENERGY PREDICTED BY IDOCK:   -0.45 KCAL/MOL
REMARK 927      BINDING AFFINITY PREDICTED BY RF-SCORE:    0.00 PKD
ROOT
HETATM    1  C   UNL     1      -9.306   6.833  68.435  1.00  0.00    -0.124 C  
HETATM    2  N   UNL     1     -10.338   7.325  69.315  1.00  0.00    -0.201 NA 
HETATM    3  C   UNL     1     -11.201   6.454  69.940  1.00  0.00    -0.420 A  
HETATM    4  N   UNL     1     -12.008   7.072  70.762  1.00  0.00    -0.356 NA 
HETATM    5  C   UNL     1     -11.645   8.403  70.684  1.00  0.00    -0.191 A  
HETATM    6  C   UNL     1     -10.611   8.602  69.762  1.00  0.00    -0.224 A  
HETATM    7  N   UNL     1     -12.298   9.342  71.578  1.00  0.00    -0.339 N  
HETATM    8  O   UNL     1     -13.087   8.884  72.414  1.00  0.00    -0.407 OA 
HETATM    9  O   UNL     1     -12.020  10.545  71.451  1.00  0.00    -0.330 OA 
ENDROOT
BRANCH   6  10
HETATM   10  S   UNL     1      -9.654  10.035  69.446  1.00  0.00    -0.230 SA 
BRANCH  10  11
HETATM   11  C   UNL     1     -10.428  10.994  68.172  1.00  0.00    -0.189 A  
HETATM   12  N   UNL     1     -11.420  11.863  68.470  1.00  0.00    -0.268 NA 
HETATM   13  C   UNL     1     -12.135  12.404  67.459  1.00  0.00    -0.008 A  
HETATM   14  N   UNL     1     -11.969  12.228  66.149  1.00  0.00    -0.618 NA 
HETATM   15  C   UNL     1     -10.992  11.354  65.863  1.00  0.00    -0.207 A  
HETATM   16  C   UNL     1     -10.237  10.705  66.827  1.00  0.00    -0.233 A  
HETATM   17  N   UNL     1      -9.467   9.826  66.105  1.00  0.00    -0.188 NA 
HETATM   18  H   UNL     1      -8.822   9.136  66.489  1.00  0.00     0.000 HD 
HETATM   19  C   UNL     1      -9.721  10.045  64.774  1.00  0.00    -0.293 A  
HETATM   20  N   UNL     1     -10.650  10.957  64.601  1.00  0.00    -0.313 NA 
ENDBRANCH  10  11
ENDBRANCH   6  10
TORSDOF 2
ENDMDL
MODEL      140
REMARK 921   NORMALIZED FREE ENERGY PREDICTED BY IDOCK:   -4.70 KCAL/MOL
REMARK 922        TOTAL FREE ENERGY PREDICTED BY IDOCK:   -5.57 KCAL/MOL
REMARK 923 INTER-LIGAND FREE ENERGY PREDICTED BY IDOCK:   -5.39 KCAL/MOL
REMARK 924 INTRA-LIGAND FREE ENERGY PREDICTED BY IDOCK:   -0.18 KCAL/MOL
REMARK 927      BINDING AFFINITY PREDICTED BY RF-SCORE:    0.00 PKD
ROOT
HETATM    1  C   UNL     1     -12.648  14.449  64.833  1.00  0.00    -0.286 C  
HETATM    2  N   UNL     1     -11.387  14.818  65.429  1.00  0.00    -0.348 NA 
HETATM    3  C   UNL     1     -10.679  15.901  64.959  1.00  0.00    -0.404 A  
HETATM    4  N   UNL     1      -9.610  16.134  65.675  1.00  0.00    -0.455 NA 
HETATM    5  C   UNL     1      -9.629  15.171  66.667  1.00  0.00    -0.253 A  
HETATM    6  C   UNL     1     -10.723  14.309  66.528  1.00  0.00    -0.297 A  
HETATM    7  N   UNL     1      -8.612  15.236  67.700  1.00  0.00    -0.163 N  
HETATM    8  O   UNL     1      -7.833  16.196  67.678  1.00  0.00    -0.137 OA 
HETATM    9  O   UNL     1      -8.592  14.327  68.545  1.00  0.00    -0.173 OA 
ENDROOT
BRANCH   6  10
HETATM   10  S   UNL     1     -11.323  13.077  67.618  1.00  0.00    -0.320 SA 
BRANCH  10  11
HETATM   11  C   UNL     1     -10.941  11.473  66.965  1.00  0.00    -0.294 A  
HETATM   12  N   UNL     1     -10.860  10.399  67.782  1.00  0.00    -0.276 NA 
HETATM   13  C   UNL     1     -10.351   9.247  67.291  1.00  0.00    -0.265 A  
HETATM   14  N   UNL     1      -9.935   8.995  66.051  1.00  0.00    -0.256 NA 
HETATM   15  C   UNL     1     -10.007  10.071  65.251  1.00  0.00    -0.298 A  
HETATM   16  C   UNL     1     -10.464  11.310  65.672  1.00  0.00    -0.261 A  
HETATM   17  N   UNL     1     -10.242  12.127  64.590  1.00  0.00    -0.281 NA 
HETATM   18  H   UNL     1     -10.405  13.133  64.552  1.00  0.00     0.000 HD 
HETATM   19  C   UNL     1      -9.761  11.346  63.569  1.00  0.00    -0.339 A  
HETATM   20  N   UNL     1      -9.598  10.098  63.948  1.00  0.00    -0.284 NA 
ENDBRANCH  10  11
ENDBRANCH   6  10
TORSDOF 2
ENDMDL
MODEL      141
REMARK 921   NORMALIZED FREE ENERGY PREDICTED BY IDOCK:   -4.69 KCAL/MOL
REMARK 922        TOTAL FREE ENERGY PREDICTED BY IDOCK:   -5.55 KCAL/MOL
REMARK 923 INTER-LIGAND FREE ENERGY PREDICTED BY IDOCK:   -5.59 KCAL/MOL
REMARK 924 INTRA-LIGAND FREE ENERGY PREDICTED BY IDOCK:    0.04 KCAL/MOL
REMARK 927      BINDING AFFINITY PREDICTED BY RF-SCORE:    0.00 PKD
ROOT
HETATM    1  C   UNL     1     -11.856  12.907  65.788  1.00  0.00    -0.419 C  
HETATM    2  N   UNL     1     -10.990  14.050  65.624  1.00  0.00    -0.295 NA 
HETATM    3  C   UNL     1     -11.387  15.127  64.866  1.00  0.00    -0.399 A  
HETATM    4  N   UNL     1     -10.513  16.099  64.903  1.00  0.00    -0.597 NA 
HETATM    5  C   UNL     1      -9.509  15.643  65.736  1.00  0.00    -0.303 A  
HETATM    6  C   UNL     1      -9.766  14.344  66.189  1.00  0.00    -0.312 A  
HETATM    7  N   UNL     1      -8.430  16.556  66.067  1.00  0.00    -0.272 N  
HETATM    8  O   UNL     1      -8.511  17.716  65.647  1.00  0.00    -0.438 OA 
HETATM    9  O   UNL     1      -7.495  16.115  66.755  1.00  0.00    -0.225 OA 
ENDROOT
BRANCH   6  10
HETATM   10  S   UNL     1      -8.938  13.401  67.412  1.00  0.00    -0.226 SA 
BRANCH  10  11
HETATM   11  C   UNL     1      -9.214  11.675  67.115  1.00  0.00    -0.176 A  
HETATM   12  N   UNL     1      -9.069  11.158  65.874  1.00  0.00    -0.200 NA 
HETATM   13  C   UNL     1      -9.502   9.900  65.640  1.00  0.00    -0.235 A  
HETATM   14  N   UNL     1     -10.039   9.041  66.506  1.00  0.00    -0.288 NA 
HETATM   15  C   UNL     1     -10.192   9.568  67.731  1.00  0.00    -0.216 A  
HETATM   16  C   UNL     1      -9.828  10.864  68.059  1.00  0.00    -0.171 A  
HETATM   17  N   UNL     1     -10.276  11.014  69.349  1.00  0.00    -0.418 NA 
HETATM   18  H   UNL     1     -10.234  11.868  69.905  1.00  0.00     0.000 HD 
HETATM   19  C   UNL     1     -10.790   9.808  69.756  1.00  0.00    -0.257 A  
HETATM   20  N   UNL     1     -10.761   8.918  68.790  1.00  0.00    -0.146 NA 
ENDBRANCH  10  11
ENDBRANCH   6  10
TORSDOF 2
ENDMDL
MODEL      142
REMARK 921   NORMALIZED FREE ENERGY PREDICTED BY IDOCK:   -4.66 KCAL/MOL
REMARK 922        TOTAL FREE ENERGY PREDICTED BY IDOCK:   -5.53 KCAL/MOL
REMARK 923 INTER-LIGAND FREE ENERGY PREDICTED BY IDOCK:   -5.16 KCAL/MOL
REMARK 924 INTRA-LIGAND FREE ENERGY PREDICTED BY IDOCK:   -0.37 KCAL/MOL
REMARK 927      BINDING AFFINITY PREDICTED BY RF-SCORE:    0.00 PKD
ROOT
HETATM    1  C   UNL     1      -6.763  15.488  67.396  1.00  0.00    -0.166 C  
HETATM    2  N   UNL     1      -6.608  16.904  67.623  1.00  0.00    -0.136 NA 
HETATM    3  C   UNL     1      -5.416  17.414  68.084  1.00  0.00    -0.133 A  
HETATM    4  N   UNL     1      -5.434  18.719  68.147  1.00  0.00    -0.178 NA 
HETATM    5  C   UNL     1      -6.688  19.080  67.692  1.00  0.00    -0.204 A  
HETATM    6  C   UNL     1      -7.464  17.959  67.376  1.00  0.00    -0.201 A  
HETATM    7  N   UNL     1      -6.978  20.494  67.540  1.00  0.00    -0.303 N  
HETATM    8  O   UNL     1      -6.059  21.294  67.752  1.00  0.00    -0.343 OA 
HETATM    9  O   UNL     1      -8.129  20.812  67.201  1.00  0.00    -0.303 OA 
ENDROOT
BRANCH   6  10
HETATM   10  S   UNL     1      -9.017  17.863  66.571  1.00  0.00    -0.237 SA 
BRANCH  10  11
HETATM   11  C   UNL     1     -10.151  16.951  67.583  1.00  0.00    -0.278 A  
HETATM   12  N   UNL     1     -10.169  17.122  68.924  1.00  0.00    -0.317 NA 
HETATM   13  C   UNL     1     -10.880  16.257  69.680  1.00  0.00    -0.345 A  
HETATM   14  N   UNL     1     -11.634  15.237  69.271  1.00  0.00    -0.311 NA 
HETATM   15  C   UNL     1     -11.599  15.066  67.941  1.00  0.00    -0.333 A  
HETATM   16  C   UNL     1     -10.859  15.866  67.084  1.00  0.00    -0.267 A  
HETATM   17  N   UNL     1     -11.009  15.262  65.860  1.00  0.00    -0.337 NA 
HETATM   18  H   UNL     1     -10.555  15.543  64.991  1.00  0.00     0.000 HD 
HETATM   19  C   UNL     1     -11.879  14.212  66.015  1.00  0.00    -0.398 A  
HETATM   20  N   UNL     1     -12.243  14.065  67.269  1.00  0.00    -0.365 NA 
ENDBRANCH  10  11
ENDBRANCH   6  10
TORSDOF 2
ENDMDL
MODEL      143
REMARK 921   NORMALIZED FREE ENERGY PREDICTED BY IDOCK:   -4.66 KCAL/MOL
REMARK 922        TOTAL FREE ENERGY PREDICTED BY IDOCK:   -5.52 KCAL/MOL
REMARK 923 INTER-LIGAND FREE ENERGY PREDICTED BY IDOCK:   -5.11 KCAL/MOL
REMARK 924 INTRA-LIGAND FREE ENERGY PREDICTED BY IDOCK:   -0.40 KCAL/MOL
REMARK 927      BINDING AFFINITY PREDICTED BY RF-SCORE:    0.00 PKD
ROOT
HETATM    1  C   UNL     1      -8.721  10.547  66.343  1.00  0.00    -0.145 C  
HETATM    2  N   UNL     1      -9.193  11.720  67.036  1.00  0.00    -0.182 NA 
HETATM    3  C   UNL     1      -8.653  12.957  66.770  1.00  0.00    -0.063 A  
HETATM    4  N   UNL     1      -9.262  13.909  67.427  1.00  0.00    -0.214 NA 
HETATM    5  C   UNL     1     -10.256  13.266  68.142  1.00  0.00    -0.243 A  
HETATM    6  C   UNL     1     -10.225  11.882  67.938  1.00  0.00    -0.193 A  
HETATM    7  N   UNL     1     -11.187  14.083  68.899  1.00  0.00    -0.259 N  
HETATM    8  O   UNL     1     -11.087  15.312  68.798  1.00  0.00    -0.244 OA 
HETATM    9  O   UNL     1     -12.031  13.496  69.597  1.00  0.00    -0.310 OA 
ENDROOT
BRANCH   6  10
HETATM   10  S   UNL     1     -11.374  10.653  68.427  1.00  0.00    -0.248 SA 
BRANCH  10  11
HETATM   11  C   UNL     1     -10.880   9.970  69.987  1.00  0.00    -0.302 A  
HETATM   12  N   UNL     1      -9.606   9.565  70.188  1.00  0.00    -0.233 NA 
HETATM   13  C   UNL     1      -9.320   8.849  71.298  1.00  0.00    -0.266 A  
HETATM   14  N   UNL     1     -10.142   8.502  72.287  1.00  0.00    -0.315 NA 
HETATM   15  C   UNL     1     -11.407   8.896  72.071  1.00  0.00    -0.357 A  
HETATM   16  C   UNL     1     -11.812   9.589  70.942  1.00  0.00    -0.309 A  
HETATM   17  N   UNL     1     -13.177   9.664  71.075  1.00  0.00    -0.554 NA 
HETATM   18  H   UNL     1     -13.827  10.061  70.396  1.00  0.00     0.000 HD 
HETATM   19  C   UNL     1     -13.510   9.111  72.286  1.00  0.00    -0.486 A  
HETATM   20  N   UNL     1     -12.457   8.627  72.904  1.00  0.00    -0.191 NA 
ENDBRANCH  10  11
ENDBRANCH   6  10
TORSDOF 2
ENDMDL
MODEL      144
REMARK 921   NORMALIZED FREE ENERGY PREDICTED BY IDOCK:   -4.64 KCAL/MOL
REMARK 922        TOTAL FREE ENERGY PREDICTED BY IDOCK:   -5.50 KCAL/MOL
REMARK 923 INTER-LIGAND FREE ENERGY PREDICTED BY IDOCK:   -4.98 KCAL/MOL
REMARK 924 INTRA-LIGAND FREE ENERGY PREDICTED BY IDOCK:   -0.52 KCAL/MOL
REMARK 927      BINDING AFFINITY PREDICTED BY RF-SCORE:    0.00 PKD
ROOT
HETATM    1  C   UNL     1     -10.665   5.929  68.693  1.00  0.00    -0.269 C  
HETATM    2  N   UNL     1     -10.136   6.084  70.026  1.00  0.00    -0.176 NA 
HETATM    3  C   UNL     1      -8.805   5.850  70.285  1.00  0.00    -0.143 A  
HETATM    4  N   UNL     1      -8.492   6.124  71.524  1.00  0.00    -0.127 NA 
HETATM    5  C   UNL     1      -9.667   6.574  72.096  1.00  0.00    -0.151 A  
HETATM    6  C   UNL     1     -10.730   6.539  71.186  1.00  0.00    -0.240 A  
HETATM    7  N   UNL     1      -9.616   7.066  73.461  1.00  0.00    -0.186 N  
HETATM    8  O   UNL     1      -8.508   7.128  74.008  1.00  0.00    -0.138 OA 
HETATM    9  O   UNL     1     -10.688   7.400  73.992  1.00  0.00    -0.254 OA 
ENDROOT
BRANCH   6  10
HETATM   10  S   UNL     1     -12.351   7.189  71.333  1.00  0.00    -0.392 SA 
BRANCH  10  11
HETATM   11  C   UNL     1     -12.286   8.959  71.260  1.00  0.00    -0.291 A  
HETATM   12  N   UNL     1     -13.058   9.710  72.077  1.00  0.00    -0.427 NA 
HETATM   13  C   UNL     1     -13.151  11.037  71.843  1.00  0.00    -0.419 A  
HETATM   14  N   UNL     1     -12.532  11.752  70.904  1.00  0.00    -0.363 NA 
HETATM   15  C   UNL     1     -11.779  10.996  70.090  1.00  0.00    -0.356 A  
HETATM   16  C   UNL     1     -11.659   9.621  70.214  1.00  0.00    -0.198 A  
HETATM   17  N   UNL     1     -10.918   9.256  69.116  1.00  0.00    -0.414 NA 
HETATM   18  H   UNL     1     -10.676   8.304  68.843  1.00  0.00     0.000 HD 
HETATM   19  C   UNL     1     -10.560  10.404  68.454  1.00  0.00    -0.208 A  
HETATM   20  N   UNL     1     -11.079  11.471  69.017  1.00  0.00    -0.229 NA 
ENDBRANCH  10  11
ENDBRANCH   6  10
TORSDOF 2
ENDMDL
MODEL      145
REMARK 921   NORMALIZED FREE ENERGY PREDICTED BY IDOCK:   -4.64 KCAL/MOL
REMARK 922        TOTAL FREE ENERGY PREDICTED BY IDOCK:   -5.50 KCAL/MOL
REMARK 923 INTER-LIGAND FREE ENERGY PREDICTED BY IDOCK:   -5.00 KCAL/MOL
REMARK 924 INTRA-LIGAND FREE ENERGY PREDICTED BY IDOCK:   -0.50 KCAL/MOL
REMARK 927      BINDING AFFINITY PREDICTED BY RF-SCORE:    0.00 PKD
ROOT
HETATM    1  C   UNL     1     -10.700   7.233  67.137  1.00  0.00    -0.343 C  
HETATM    2  N   UNL     1     -10.692   7.059  68.569  1.00  0.00    -0.200 NA 
HETATM    3  C   UNL     1     -11.126   5.882  69.134  1.00  0.00    -0.258 A  
HETATM    4  N   UNL     1     -10.965   5.874  70.431  1.00  0.00    -0.314 NA 
HETATM    5  C   UNL     1     -10.385   7.094  70.725  1.00  0.00    -0.206 A  
HETATM    6  C   UNL     1     -10.221   7.876  69.576  1.00  0.00    -0.208 A  
HETATM    7  N   UNL     1      -9.978   7.343  72.095  1.00  0.00    -0.168 N  
HETATM    8  O   UNL     1     -10.102   6.420  72.909  1.00  0.00    -0.175 OA 
HETATM    9  O   UNL     1      -9.525   8.468  72.365  1.00  0.00    -0.273 OA 
ENDROOT
BRANCH   6  10
HETATM   10  S   UNL     1      -9.357   9.386  69.364  1.00  0.00    -0.179 SA 
BRANCH  10  11
HETATM   11  C   UNL     1     -10.507  10.734  69.398  1.00  0.00    -0.200 A  
HETATM   12  N   UNL     1     -10.311  11.826  68.624  1.00  0.00    -0.220 NA 
HETATM   13  C   UNL     1     -11.075  12.919  68.839  1.00  0.00    -0.255 A  
HETATM   14  N   UNL     1     -12.066  13.070  69.717  1.00  0.00    -0.290 NA 
HETATM   15  C   UNL     1     -12.244  11.987  70.489  1.00  0.00    -0.325 A  
HETATM   16  C   UNL     1     -11.479  10.836  70.383  1.00  0.00    -0.307 A  
HETATM   17  N   UNL     1     -11.908  10.059  71.432  1.00  0.00    -0.377 NA 
HETATM   18  H   UNL     1     -11.527   9.154  71.705  1.00  0.00     0.000 HD 
HETATM   19  C   UNL     1     -12.943  10.720  72.045  1.00  0.00    -0.339 A  
HETATM   20  N   UNL     1     -13.159  11.896  71.500  1.00  0.00    -0.363 NA 
ENDBRANCH  10  11
ENDBRANCH   6  10
TORSDOF 2
ENDMDL
MODEL      146
REMARK 921   NORMALIZED FREE ENERGY PREDICTED BY IDOCK:   -4.64 KCAL/MOL
REMARK 922        TOTAL FREE ENERGY PREDICTED BY IDOCK:   -5.50 KCAL/MOL
REMARK 923 INTER-LIGAND FREE ENERGY PREDICTED BY IDOCK:   -4.85 KCAL/MOL
REMARK 924 INTRA-LIGAND FREE ENERGY PREDICTED BY IDOCK:   -0.65 KCAL/MOL
REMARK 927      BINDING AFFINITY PREDICTED BY RF-SCORE:    0.00 PKD
ROOT
HETATM    1  C   UNL     1      -9.115   5.215  72.902  1.00  0.00    -0.122 C  
HETATM    2  N   UNL     1      -9.388   5.487  71.512  1.00  0.00    -0.146 NA 
HETATM    3  C   UNL     1      -9.778   4.477  70.663  1.00  0.00    -0.212 A  
HETATM    4  N   UNL     1     -10.063   4.924  69.469  1.00  0.00    -0.230 NA 
HETATM    5  C   UNL     1      -9.867   6.291  69.545  1.00  0.00    -0.154 A  
HETATM    6  C   UNL     1      -9.417   6.677  70.813  1.00  0.00    -0.168 A  
HETATM    7  N   UNL     1     -10.213   7.095  68.388  1.00  0.00    -0.169 N  
HETATM    8  O   UNL     1     -10.736   6.521  67.425  1.00  0.00    -0.251 OA 
HETATM    9  O   UNL     1      -9.965   8.311  68.438  1.00  0.00    -0.178 OA 
ENDROOT
BRANCH   6  10
HETATM   10  S   UNL     1      -9.226   8.280  71.493  1.00  0.00    -0.196 SA 
BRANCH  10  11
HETATM   11  C   UNL     1     -10.823   8.997  71.774  1.00  0.00    -0.367 A  
HETATM   12  N   UNL     1     -11.739   8.359  72.535  1.00  0.00    -0.385 NA 
HETATM   13  C   UNL     1     -13.010   8.819  72.544  1.00  0.00    -0.321 A  
HETATM   14  N   UNL     1     -13.503   9.884  71.913  1.00  0.00    -0.392 NA 
HETATM   15  C   UNL     1     -12.589  10.503  71.149  1.00  0.00    -0.417 A  
HETATM   16  C   UNL     1     -11.275  10.079  71.032  1.00  0.00    -0.314 A  
HETATM   17  N   UNL     1     -10.749  10.906  70.069  1.00  0.00    -0.463 NA 
HETATM   18  H   UNL     1      -9.809  10.851  69.677  1.00  0.00     0.000 HD 
HETATM   19  C   UNL     1     -11.715  11.819  69.729  1.00  0.00    -0.335 A  
HETATM   20  N   UNL     1     -12.843  11.589  70.361  1.00  0.00    -0.028 NA 
ENDBRANCH  10  11
ENDBRANCH   6  10
TORSDOF 2
ENDMDL
MODEL      147
REMARK 921   NORMALIZED FREE ENERGY PREDICTED BY IDOCK:   -4.64 KCAL/MOL
REMARK 922        TOTAL FREE ENERGY PREDICTED BY IDOCK:   -5.50 KCAL/MOL
REMARK 923 INTER-LIGAND FREE ENERGY PREDICTED BY IDOCK:   -5.08 KCAL/MOL
REMARK 924 INTRA-LIGAND FREE ENERGY PREDICTED BY IDOCK:   -0.42 KCAL/MOL
REMARK 927      BINDING AFFINITY PREDICTED BY RF-SCORE:    0.00 PKD
ROOT
HETATM    1  C   UNL     1     -10.324   9.172  71.561  1.00  0.00    -0.344 C  
HETATM    2  N   UNL     1     -10.425   8.297  70.419  1.00  0.00    -0.210 NA 
HETATM    3  C   UNL     1     -11.235   7.185  70.457  1.00  0.00    -0.290 A  
HETATM    4  N   UNL     1     -11.267   6.564  69.307  1.00  0.00    -0.338 NA 
HETATM    5  C   UNL     1     -10.455   7.313  68.476  1.00  0.00    -0.188 A  
HETATM    6  C   UNL     1      -9.888   8.400  69.151  1.00  0.00    -0.183 A  
HETATM    7  N   UNL     1     -10.374   6.932  67.078  1.00  0.00    -0.250 N  
HETATM    8  O   UNL     1     -11.097   6.005  66.692  1.00  0.00    -0.263 OA 
HETATM    9  O   UNL     1      -9.587   7.564  66.354  1.00  0.00    -0.182 OA 
ENDROOT
BRANCH   6  10
HETATM   10  S   UNL     1      -8.975   9.756  68.522  1.00  0.00    -0.126 SA 
BRANCH  10  11
HETATM   11  C   UNL     1     -10.045  10.796  67.565  1.00  0.00    -0.186 A  
HETATM   12  N   UNL     1     -10.026  10.747  66.215  1.00  0.00    -0.215 NA 
HETATM   13  C   UNL     1     -10.684  11.702  65.521  1.00  0.00    -0.281 A  
HETATM   14  N   UNL     1     -11.415  12.709  65.998  1.00  0.00    -0.347 NA 
HETATM   15  C   UNL     1     -11.417  12.758  67.339  1.00  0.00    -0.340 A  
HETATM   16  C   UNL     1     -10.732  11.857  68.140  1.00  0.00    -0.215 A  
HETATM   17  N   UNL     1     -10.900  12.353  69.410  1.00  0.00    -0.454 NA 
HETATM   18  H   UNL     1     -10.484  11.979  70.262  1.00  0.00     0.000 HD 
HETATM   19  C   UNL     1     -11.729  13.444  69.326  1.00  0.00    -0.330 A  
HETATM   20  N   UNL     1     -12.047  13.717  68.081  1.00  0.00    -0.339 NA 
ENDBRANCH  10  11
ENDBRANCH   6  10
TORSDOF 2
ENDMDL
MODEL      148
REMARK 921   NORMALIZED FREE ENERGY PREDICTED BY IDOCK:   -4.63 KCAL/MOL
REMARK 922        TOTAL FREE ENERGY PREDICTED BY IDOCK:   -5.49 KCAL/MOL
REMARK 923 INTER-LIGAND FREE ENERGY PREDICTED BY IDOCK:   -5.08 KCAL/MOL
REMARK 924 INTRA-LIGAND FREE ENERGY PREDICTED BY IDOCK:   -0.41 KCAL/MOL
REMARK 927      BINDING AFFINITY PREDICTED BY RF-SCORE:    0.00 PKD
ROOT
HETATM    1  C   UNL     1      -7.290  12.092  67.805  1.00  0.00    -0.113 C  
HETATM    2  N   UNL     1      -8.584  12.652  67.505  1.00  0.00    -0.174 NA 
HETATM    3  C   UNL     1      -8.831  13.992  67.696  1.00  0.00    -0.190 A  
HETATM    4  N   UNL     1     -10.025  14.333  67.289  1.00  0.00    -0.249 NA 
HETATM    5  C   UNL     1     -10.578  13.167  66.795  1.00  0.00    -0.263 A  
HETATM    6  C   UNL     1      -9.706  12.081  66.937  1.00  0.00    -0.203 A  
HETATM    7  N   UNL     1     -11.882  13.245  66.161  1.00  0.00    -0.371 N  
HETATM    8  O   UNL     1     -12.389  14.366  66.030  1.00  0.00    -0.394 OA 
HETATM    9  O   UNL     1     -12.403  12.183  65.785  1.00  0.00    -0.564 OA 
ENDROOT
BRANCH   6  10
HETATM   10  S   UNL     1      -9.826  10.457  66.293  1.00  0.00    -0.228 SA 
BRANCH  10  11
HETATM   11  C   UNL     1     -10.300   9.342  67.587  1.00  0.00    -0.253 A  
HETATM   12  N   UNL     1     -10.348   9.759  68.872  1.00  0.00    -0.201 NA 
HETATM   13  C   UNL     1     -10.491   8.837  69.850  1.00  0.00    -0.221 A  
HETATM   14  N   UNL     1     -10.639   7.519  69.721  1.00  0.00    -0.238 NA 
HETATM   15  C   UNL     1     -10.576   7.113  68.443  1.00  0.00    -0.186 A  
HETATM   16  C   UNL     1     -10.380   7.972  67.374  1.00  0.00    -0.284 A  
HETATM   17  N   UNL     1     -10.252   7.131  66.296  1.00  0.00    -0.439 NA 
HETATM   18  H   UNL     1     -10.039   7.409  65.338  1.00  0.00     0.000 HD 
HETATM   19  C   UNL     1     -10.462   5.849  66.739  1.00  0.00    -0.281 A  
HETATM   20  N   UNL     1     -10.650   5.810  68.038  1.00  0.00    -0.233 NA 
ENDBRANCH  10  11
ENDBRANCH   6  10
TORSDOF 2
ENDMDL
MODEL      149
REMARK 921   NORMALIZED FREE ENERGY PREDICTED BY IDOCK:   -4.62 KCAL/MOL
REMARK 922        TOTAL FREE ENERGY PREDICTED BY IDOCK:   -5.48 KCAL/MOL
REMARK 923 INTER-LIGAND FREE ENERGY PREDICTED BY IDOCK:   -4.94 KCAL/MOL
REMARK 924 INTRA-LIGAND FREE ENERGY PREDICTED BY IDOCK:   -0.54 KCAL/MOL
REMARK 927      BINDING AFFINITY PREDICTED BY RF-SCORE:    0.00 PKD
ROOT
HETATM    1  C   UNL     1      -9.786  10.927  68.278  1.00  0.00    -0.165 C  
HETATM    2  N   UNL     1     -10.722  10.610  69.329  1.00  0.00    -0.223 NA 
HETATM    3  C   UNL     1     -12.025  11.046  69.262  1.00  0.00    -0.339 A  
HETATM    4  N   UNL     1     -12.744  10.592  70.255  1.00  0.00    -0.280 NA 
HETATM    5  C   UNL     1     -11.875   9.812  70.995  1.00  0.00    -0.356 A  
HETATM    6  C   UNL     1     -10.585   9.821  70.453  1.00  0.00    -0.304 A  
HETATM    7  N   UNL     1     -12.415   9.072  72.121  1.00  0.00    -0.379 N  
HETATM    8  O   UNL     1     -13.637   9.120  72.308  1.00  0.00    -0.433 OA 
HETATM    9  O   UNL     1     -11.616   8.432  72.824  1.00  0.00    -0.358 OA 
ENDROOT
BRANCH   6  10
HETATM   10  S   UNL     1      -9.189   8.848  70.870  1.00  0.00    -0.251 SA 
BRANCH  10  11
HETATM   11  C   UNL     1      -9.482   7.163  70.400  1.00  0.00    -0.162 A  
HETATM   12  N   UNL     1      -8.931   6.147  71.101  1.00  0.00    -0.143 NA 
HETATM   13  C   UNL     1      -8.988   4.898  70.589  1.00  0.00    -0.126 A  
HETATM   14  N   UNL     1      -9.571   4.500  69.459  1.00  0.00    -0.179 NA 
HETATM   15  C   UNL     1     -10.103   5.516  68.763  1.00  0.00    -0.191 A  
HETATM   16  C   UNL     1     -10.051   6.838  69.177  1.00  0.00    -0.171 A  
HETATM   17  N   UNL     1     -10.588   7.534  68.120  1.00  0.00    -0.341 NA 
HETATM   18  H   UNL     1     -10.661   8.548  68.043  1.00  0.00     0.000 HD 
HETATM   19  C   UNL     1     -11.008   6.618  67.188  1.00  0.00    -0.408 A  
HETATM   20  N   UNL     1     -10.715   5.390  67.548  1.00  0.00    -0.138 NA 
ENDBRANCH  10  11
ENDBRANCH   6  10
TORSDOF 2
ENDMDL
MODEL      150
REMARK 921   NORMALIZED FREE ENERGY PREDICTED BY IDOCK:   -4.61 KCAL/MOL
REMARK 922        TOTAL FREE ENERGY PREDICTED BY IDOCK:   -5.46 KCAL/MOL
REMARK 923 INTER-LIGAND FREE ENERGY PREDICTED BY IDOCK:   -5.13 KCAL/MOL
REMARK 924 INTRA-LIGAND FREE ENERGY PREDICTED BY IDOCK:   -0.34 KCAL/MOL
REMARK 927      BINDING AFFINITY PREDICTED BY RF-SCORE:    0.00 PKD
ROOT
HETATM    1  C   UNL     1     -10.901  11.153  67.551  1.00  0.00    -0.254 C  
HETATM    2  N   UNL     1     -11.413  11.981  68.615  1.00  0.00    -0.270 NA 
HETATM    3  C   UNL     1     -11.492  13.347  68.464  1.00  0.00    -0.310 A  
HETATM    4  N   UNL     1     -12.059  13.920  69.494  1.00  0.00    -0.338 NA 
HETATM    5  C   UNL     1     -12.379  12.881  70.347  1.00  0.00    -0.258 A  
HETATM    6  C   UNL     1     -11.964  11.646  69.835  1.00  0.00    -0.340 A  
HETATM    7  N   UNL     1     -13.130  13.193  71.550  1.00  0.00    -0.353 N  
HETATM    8  O   UNL     1     -13.509  14.360  71.704  1.00  0.00    -0.335 OA 
HETATM    9  O   UNL     1     -13.350  12.266  72.347  1.00  0.00    -0.453 OA 
ENDROOT
BRANCH   6  10
HETATM   10  S   UNL     1     -12.307  10.026  70.405  1.00  0.00    -0.072 SA 
BRANCH  10  11
HETATM   11  C   UNL     1     -10.805   9.084  70.450  1.00  0.00    -0.246 A  
HETATM   12  N   UNL     1      -9.612   9.699  70.610  1.00  0.00    -0.218 NA 
HETATM   13  C   UNL     1      -8.482   8.985  70.416  1.00  0.00    -0.182 A  
HETATM   14  N   UNL     1      -8.369   7.692  70.113  1.00  0.00    -0.128 NA 
HETATM   15  C   UNL     1      -9.558   7.094  69.942  1.00  0.00    -0.163 A  
HETATM   16  C   UNL     1     -10.772   7.751  70.067  1.00  0.00    -0.244 A  
HETATM   17  N   UNL     1     -11.696   6.809  69.684  1.00  0.00    -0.642 NA 
HETATM   18  H   UNL     1     -12.701   6.954  69.596  1.00  0.00     0.000 HD 
HETATM   19  C   UNL     1     -11.022   5.638  69.442  1.00  0.00    -0.174 A  
HETATM   20  N   UNL     1      -9.725   5.787  69.580  1.00  0.00    -0.146 NA 
ENDBRANCH  10  11
ENDBRANCH   6  10
TORSDOF 2
ENDMDL
MODEL      151
REMARK 921   NORMALIZED FREE ENERGY PREDICTED BY IDOCK:   -4.59 KCAL/MOL
REMARK 922        TOTAL FREE ENERGY PREDICTED BY IDOCK:   -5.45 KCAL/MOL
REMARK 923 INTER-LIGAND FREE ENERGY PREDICTED BY IDOCK:   -5.25 KCAL/MOL
REMARK 924 INTRA-LIGAND FREE ENERGY PREDICTED BY IDOCK:   -0.20 KCAL/MOL
REMARK 927      BINDING AFFINITY PREDICTED BY RF-SCORE:    0.00 PKD
ROOT
HETATM    1  C   UNL     1     -12.007  13.639  67.921  1.00  0.00    -0.347 C  
HETATM    2  N   UNL     1     -11.782  12.984  66.655  1.00  0.00    -0.362 NA 
HETATM    3  C   UNL     1     -12.522  13.327  65.547  1.00  0.00    -0.474 A  
HETATM    4  N   UNL     1     -12.122  12.693  64.476  1.00  0.00    -0.393 NA 
HETATM    5  C   UNL     1     -11.063  11.912  64.901  1.00  0.00    -0.307 A  
HETATM    6  C   UNL     1     -10.837  12.053  66.275  1.00  0.00    -0.279 A  
HETATM    7  N   UNL     1     -10.326  11.160  63.901  1.00  0.00    -0.352 N  
HETATM    8  O   UNL     1     -10.639  11.322  62.715  1.00  0.00    -0.034 OA 
HETATM    9  O   UNL     1      -9.424  10.406  64.299  1.00  0.00    -0.244 OA 
ENDROOT
BRANCH   6  10
HETATM   10  S   UNL     1      -9.510  11.466  67.257  1.00  0.00    -0.168 SA 
BRANCH  10  11
HETATM   11  C   UNL     1      -9.814   9.780  67.713  1.00  0.00    -0.160 A  
HETATM   12  N   UNL     1     -10.045   8.841  66.768  1.00  0.00    -0.269 NA 
HETATM   13  C   UNL     1     -10.492   7.626  67.154  1.00  0.00    -0.342 A  
HETATM   14  N   UNL     1     -10.710   7.186  68.393  1.00  0.00    -0.179 NA 
HETATM   15  C   UNL     1     -10.492   8.129  69.323  1.00  0.00    -0.214 A  
HETATM   16  C   UNL     1     -10.083   9.419  69.026  1.00  0.00    -0.194 A  
HETATM   17  N   UNL     1     -10.115  10.061  70.241  1.00  0.00    -0.392 NA 
HETATM   18  H   UNL     1      -9.928  11.050  70.403  1.00  0.00     0.000 HD 
HETATM   19  C   UNL     1     -10.442   9.131  71.196  1.00  0.00    -0.315 A  
HETATM   20  N   UNL     1     -10.687   7.955  70.665  1.00  0.00    -0.224 NA 
ENDBRANCH  10  11
ENDBRANCH   6  10
TORSDOF 2
ENDMDL
MODEL      152
REMARK 921   NORMALIZED FREE ENERGY PREDICTED BY IDOCK:   -4.59 KCAL/MOL
REMARK 922        TOTAL FREE ENERGY PREDICTED BY IDOCK:   -5.44 KCAL/MOL
REMARK 923 INTER-LIGAND FREE ENERGY PREDICTED BY IDOCK:   -4.79 KCAL/MOL
REMARK 924 INTRA-LIGAND FREE ENERGY PREDICTED BY IDOCK:   -0.65 KCAL/MOL
REMARK 927      BINDING AFFINITY PREDICTED BY RF-SCORE:    0.00 PKD
ROOT
HETATM    1  C   UNL     1     -11.582   7.255  72.192  1.00  0.00    -0.286 C  
HETATM    2  N   UNL     1     -12.160   8.548  71.919  1.00  0.00    -0.324 NA 
HETATM    3  C   UNL     1     -13.359   8.914  72.488  1.00  0.00    -0.399 A  
HETATM    4  N   UNL     1     -13.681  10.147  72.197  1.00  0.00    -0.208 NA 
HETATM    5  C   UNL     1     -12.639  10.613  71.418  1.00  0.00    -0.421 A  
HETATM    6  C   UNL     1     -11.673   9.623  71.203  1.00  0.00    -0.372 A  
HETATM    7  N   UNL     1     -12.654  12.010  71.023  1.00  0.00    -0.336 N  
HETATM    8  O   UNL     1     -13.559  12.723  71.471  1.00  0.00    -0.141 OA 
HETATM    9  O   UNL     1     -11.753  12.402  70.264  1.00  0.00    -0.262 OA 
ENDROOT
BRANCH   6  10
HETATM   10  S   UNL     1     -10.082   9.749  70.481  1.00  0.00    -0.145 SA 
BRANCH  10  11
HETATM   11  C   UNL     1     -10.191   9.399  68.746  1.00  0.00    -0.203 A  
HETATM   12  N   UNL     1     -10.110   8.127  68.294  1.00  0.00    -0.191 NA 
HETATM   13  C   UNL     1      -9.971   7.917  66.967  1.00  0.00    -0.252 A  
HETATM   14  N   UNL     1      -9.941   8.824  65.990  1.00  0.00    -0.197 NA 
HETATM   15  C   UNL     1     -10.008  10.083  66.449  1.00  0.00    -0.237 A  
HETATM   16  C   UNL     1     -10.099  10.405  67.795  1.00  0.00    -0.181 A  
HETATM   17  N   UNL     1     -10.009  11.775  67.811  1.00  0.00    -0.186 NA 
HETATM   18  H   UNL     1      -9.983  12.367  68.642  1.00  0.00     0.000 HD 
HETATM   19  C   UNL     1      -9.962  12.206  66.509  1.00  0.00    -0.213 A  
HETATM   20  N   UNL     1      -9.948  11.200  65.665  1.00  0.00    -0.236 NA 
ENDBRANCH  10  11
ENDBRANCH   6  10
TORSDOF 2
ENDMDL
MODEL      153
REMARK 921   NORMALIZED FREE ENERGY PREDICTED BY IDOCK:   -4.58 KCAL/MOL
REMARK 922        TOTAL FREE ENERGY PREDICTED BY IDOCK:   -5.43 KCAL/MOL
REMARK 923 INTER-LIGAND FREE ENERGY PREDICTED BY IDOCK:   -5.03 KCAL/MOL
REMARK 924 INTRA-LIGAND FREE ENERGY PREDICTED BY IDOCK:   -0.40 KCAL/MOL
REMARK 927      BINDING AFFINITY PREDICTED BY RF-SCORE:    0.00 PKD
ROOT
HETATM    1  C   UNL     1     -11.883   8.417  72.350  1.00  0.00    -0.384 C  
HETATM    2  N   UNL     1     -12.032   9.569  71.496  1.00  0.00    -0.374 NA 
HETATM    3  C   UNL     1     -13.084  10.440  71.670  1.00  0.00    -0.448 A  
HETATM    4  N   UNL     1     -13.007  11.467  70.864  1.00  0.00    -0.204 NA 
HETATM    5  C   UNL     1     -11.844  11.266  70.143  1.00  0.00    -0.364 A  
HETATM    6  C   UNL     1     -11.217  10.067  70.499  1.00  0.00    -0.336 A  
HETATM    7  N   UNL     1     -11.422  12.310  69.228  1.00  0.00    -0.281 N  
HETATM    8  O   UNL     1     -12.084  13.355  69.202  1.00  0.00    -0.317 OA 
HETATM    9  O   UNL     1     -10.417  12.092  68.531  1.00  0.00    -0.218 OA 
ENDROOT
BRANCH   6  10
HETATM   10  S   UNL     1      -9.638   9.455  70.053  1.00  0.00    -0.242 SA 
BRANCH  10  11
HETATM   11  C   UNL     1      -9.827   7.981  69.085  1.00  0.00    -0.178 A  
HETATM   12  N   UNL     1     -10.262   8.048  67.807  1.00  0.00    -0.208 NA 
HETATM   13  C   UNL     1     -10.607   6.904  67.178  1.00  0.00    -0.338 A  
HETATM   14  N   UNL     1     -10.539   5.657  67.644  1.00  0.00    -0.224 NA 
HETATM   15  C   UNL     1     -10.119   5.601  68.917  1.00  0.00    -0.192 A  
HETATM   16  C   UNL     1      -9.792   6.721  69.666  1.00  0.00    -0.165 A  
HETATM   17  N   UNL     1      -9.550   6.217  70.921  1.00  0.00    -0.175 NA 
HETATM   18  H   UNL     1      -9.334   6.761  71.756  1.00  0.00     0.000 HD 
HETATM   19  C   UNL     1      -9.652   4.850  70.849  1.00  0.00    -0.176 A  
HETATM   20  N   UNL     1     -10.007   4.453  69.648  1.00  0.00    -0.204 NA 
ENDBRANCH  10  11
ENDBRANCH   6  10
TORSDOF 2
ENDMDL
MODEL      154
REMARK 921   NORMALIZED FREE ENERGY PREDICTED BY IDOCK:   -4.57 KCAL/MOL
REMARK 922        TOTAL FREE ENERGY PREDICTED BY IDOCK:   -5.43 KCAL/MOL
REMARK 923 INTER-LIGAND FREE ENERGY PREDICTED BY IDOCK:   -5.17 KCAL/MOL
REMARK 924 INTRA-LIGAND FREE ENERGY PREDICTED BY IDOCK:   -0.26 KCAL/MOL
REMARK 927      BINDING AFFINITY PREDICTED BY RF-SCORE:    0.00 PKD
ROOT
HETATM    1  C   UNL     1     -12.739  12.628  64.871  1.00  0.00    -0.370 C  
HETATM    2  N   UNL     1     -11.515  12.420  65.605  1.00  0.00    -0.351 NA 
HETATM    3  C   UNL     1     -11.118  11.152  65.961  1.00  0.00    -0.048 A  
HETATM    4  N   UNL     1      -9.947  11.152  66.542  1.00  0.00    -0.207 NA 
HETATM    5  C   UNL     1      -9.554  12.477  66.550  1.00  0.00    -0.242 A  
HETATM    6  C   UNL     1     -10.530  13.308  65.989  1.00  0.00    -0.286 A  
HETATM    7  N   UNL     1      -8.224  12.791  67.041  1.00  0.00    -0.141 N  
HETATM    8  O   UNL     1      -7.489  11.846  67.351  1.00  0.00    -0.128 OA 
HETATM    9  O   UNL     1      -7.906  13.989  67.113  1.00  0.00    -0.150 OA 
ENDROOT
BRANCH   6  10
HETATM   10  S   UNL     1     -10.447  15.006  65.568  1.00  0.00    -0.399 SA 
BRANCH  10  11
HETATM   11  C   UNL     1     -10.555  15.986  67.041  1.00  0.00    -0.302 A  
HETATM   12  N   UNL     1      -9.739  17.049  67.223  1.00  0.00    -0.247 NA 
HETATM   13  C   UNL     1      -9.693  17.632  68.441  1.00  0.00    -0.321 A  
HETATM   14  N   UNL     1     -10.398  17.320  69.528  1.00  0.00    -0.178 NA 
HETATM   15  C   UNL     1     -11.194  16.256  69.342  1.00  0.00    -0.311 A  
HETATM   16  C   UNL     1     -11.274  15.558  68.148  1.00  0.00    -0.343 A  
HETATM   17  N   UNL     1     -12.089  14.492  68.445  1.00  0.00    -0.578 NA 
HETATM   18  H   UNL     1     -12.330  13.726  67.817  1.00  0.00     0.000 HD 
HETATM   19  C   UNL     1     -12.522  14.645  69.739  1.00  0.00    -0.205 A  
HETATM   20  N   UNL     1     -11.985  15.700  70.308  1.00  0.00    -0.360 NA 
ENDBRANCH  10  11
ENDBRANCH   6  10
TORSDOF 2
ENDMDL
MODEL      155
REMARK 921   NORMALIZED FREE ENERGY PREDICTED BY IDOCK:   -4.55 KCAL/MOL
REMARK 922        TOTAL FREE ENERGY PREDICTED BY IDOCK:   -5.40 KCAL/MOL
REMARK 923 INTER-LIGAND FREE ENERGY PREDICTED BY IDOCK:   -5.13 KCAL/MOL
REMARK 924 INTRA-LIGAND FREE ENERGY PREDICTED BY IDOCK:   -0.27 KCAL/MOL
REMARK 927      BINDING AFFINITY PREDICTED BY RF-SCORE:    0.00 PKD
ROOT
HETATM    1  C   UNL     1     -10.618  15.939  66.736  1.00  0.00    -0.309 C  
HETATM    2  N   UNL     1     -10.877  15.654  68.126  1.00  0.00    -0.290 NA 
HETATM    3  C   UNL     1     -10.683  16.619  69.088  1.00  0.00    -0.342 A  
HETATM    4  N   UNL     1     -11.050  16.209  70.273  1.00  0.00    -0.368 NA 
HETATM    5  C   UNL     1     -11.520  14.924  70.075  1.00  0.00    -0.278 A  
HETATM    6  C   UNL     1     -11.403  14.533  68.736  1.00  0.00    -0.274 A  
HETATM    7  N   UNL     1     -12.109  14.231  71.206  1.00  0.00    -0.346 N  
HETATM    8  O   UNL     1     -12.228  14.859  72.265  1.00  0.00    -0.339 OA 
HETATM    9  O   UNL     1     -12.462  13.052  71.038  1.00  0.00    -0.368 OA 
ENDROOT
BRANCH   6  10
HETATM   10  S   UNL     1     -12.035  13.115  67.925  1.00  0.00    -0.231 SA 
BRANCH  10  11
HETATM   11  C   UNL     1     -10.781  12.425  66.878  1.00  0.00    -0.240 A  
HETATM   12  N   UNL     1     -11.111  11.823  65.714  1.00  0.00    -0.313 NA 
HETATM   13  C   UNL     1     -10.165  11.116  65.057  1.00  0.00    -0.296 A  
HETATM   14  N   UNL     1      -8.884  10.953  65.387  1.00  0.00    -0.194 NA 
HETATM   15  C   UNL     1      -8.570  11.542  66.552  1.00  0.00    -0.172 A  
HETATM   16  C   UNL     1      -9.480  12.245  67.325  1.00  0.00    -0.186 A  
HETATM   17  N   UNL     1      -8.774  12.551  68.464  1.00  0.00    -0.349 NA 
HETATM   18  H   UNL     1      -9.142  13.021  69.291  1.00  0.00     0.000 HD 
HETATM   19  C   UNL     1      -7.486  12.112  68.288  1.00  0.00    -0.107 A  
HETATM   20  N   UNL     1      -7.339  11.487  67.142  1.00  0.00    -0.131 NA 
ENDBRANCH  10  11
ENDBRANCH   6  10
TORSDOF 2
ENDMDL
MODEL      156
REMARK 921   NORMALIZED FREE ENERGY PREDICTED BY IDOCK:   -4.53 KCAL/MOL
REMARK 922        TOTAL FREE ENERGY PREDICTED BY IDOCK:   -5.38 KCAL/MOL
REMARK 923 INTER-LIGAND FREE ENERGY PREDICTED BY IDOCK:   -4.83 KCAL/MOL
REMARK 924 INTRA-LIGAND FREE ENERGY PREDICTED BY IDOCK:   -0.55 KCAL/MOL
REMARK 927      BINDING AFFINITY PREDICTED BY RF-SCORE:    0.00 PKD
ROOT
HETATM    1  C   UNL     1      -9.000   6.703  72.491  1.00  0.00    -0.131 C  
HETATM    2  N   UNL     1      -9.429   6.493  71.129  1.00  0.00    -0.167 NA 
HETATM    3  C   UNL     1     -10.045   5.319  70.761  1.00  0.00    -0.224 A  
HETATM    4  N   UNL     1     -10.439   5.343  69.514  1.00  0.00    -0.282 NA 
HETATM    5  C   UNL     1     -10.079   6.596  69.053  1.00  0.00    -0.162 A  
HETATM    6  C   UNL     1      -9.418   7.339  70.038  1.00  0.00    -0.161 A  
HETATM    7  N   UNL     1     -10.486   6.971  67.711  1.00  0.00    -0.203 N  
HETATM    8  O   UNL     1     -11.199   6.178  67.085  1.00  0.00    -0.291 OA 
HETATM    9  O   UNL     1     -10.097   8.067  67.277  1.00  0.00    -0.190 OA 
ENDROOT
BRANCH   6  10
HETATM   10  S   UNL     1      -8.953   9.028  70.043  1.00  0.00    -0.191 SA 
BRANCH  10  11
HETATM   11  C   UNL     1     -10.407  10.041  70.089  1.00  0.00    -0.266 A  
HETATM   12  N   UNL     1     -10.456  11.207  69.406  1.00  0.00    -0.152 NA 
HETATM   13  C   UNL     1     -11.481  12.054  69.641  1.00  0.00    -0.252 A  
HETATM   14  N   UNL     1     -12.521  11.881  70.457  1.00  0.00    -0.258 NA 
HETATM   15  C   UNL     1     -12.457  10.728  71.140  1.00  0.00    -0.414 A  
HETATM   16  C   UNL     1     -11.421   9.816  71.010  1.00  0.00    -0.383 A  
HETATM   17  N   UNL     1     -11.692   8.872  71.971  1.00  0.00    -0.367 NA 
HETATM   18  H   UNL     1     -11.108   8.070  72.208  1.00  0.00     0.000 HD 
HETATM   19  C   UNL     1     -12.890   9.202  72.554  1.00  0.00    -0.317 A  
HETATM   20  N   UNL     1     -13.368  10.328  72.077  1.00  0.00    -0.423 NA 
ENDBRANCH  10  11
ENDBRANCH   6  10
TORSDOF 2
ENDMDL
MODEL      157
REMARK 921   NORMALIZED FREE ENERGY PREDICTED BY IDOCK:   -4.51 KCAL/MOL
REMARK 922        TOTAL FREE ENERGY PREDICTED BY IDOCK:   -5.36 KCAL/MOL
REMARK 923 INTER-LIGAND FREE ENERGY PREDICTED BY IDOCK:   -4.73 KCAL/MOL
REMARK 924 INTRA-LIGAND FREE ENERGY PREDICTED BY IDOCK:   -0.62 KCAL/MOL
REMARK 927      BINDING AFFINITY PREDICTED BY RF-SCORE:    0.00 PKD
ROOT
HETATM    1  C   UNL     1     -12.615  12.149  63.833  1.00  0.00    -0.438 C  
HETATM    2  N   UNL     1     -12.044  13.203  64.634  1.00  0.00    -0.386 NA 
HETATM    3  C   UNL     1     -12.002  14.497  64.166  1.00  0.00    -0.321 A  
HETATM    4  N   UNL     1     -11.531  15.326  65.060  1.00  0.00    -0.334 NA 
HETATM    5  C   UNL     1     -11.268  14.542  66.168  1.00  0.00    -0.339 A  
HETATM    6  C   UNL     1     -11.557  13.194  65.926  1.00  0.00    -0.354 A  
HETATM    7  N   UNL     1     -10.830  15.203  67.383  1.00  0.00    -0.295 N  
HETATM    8  O   UNL     1     -10.791  16.440  67.382  1.00  0.00    -0.302 OA 
HETATM    9  O   UNL     1     -10.526  14.486  68.351  1.00  0.00    -0.234 OA 
ENDROOT
BRANCH   6  10
HETATM   10  S   UNL     1     -11.607  11.842  67.040  1.00  0.00    -0.230 SA 
BRANCH  10  11
HETATM   11  C   UNL     1     -10.167  10.833  66.809  1.00  0.00    -0.230 A  
HETATM   12  N   UNL     1     -10.232   9.699  66.077  1.00  0.00    -0.235 NA 
HETATM   13  C   UNL     1      -9.185   8.845  66.108  1.00  0.00    -0.217 A  
HETATM   14  N   UNL     1      -8.028   8.986  66.755  1.00  0.00    -0.107 NA 
HETATM   15  C   UNL     1      -7.979  10.109  67.489  1.00  0.00    -0.106 A  
HETATM   16  C   UNL     1      -9.019  11.021  67.566  1.00  0.00    -0.137 A  
HETATM   17  N   UNL     1      -8.595  11.923  68.512  1.00  0.00    -0.281 NA 
HETATM   18  H   UNL     1      -9.131  12.712  68.874  1.00  0.00     0.000 HD 
HETATM   19  C   UNL     1      -7.321  11.572  68.881  1.00  0.00    -0.116 A  
HETATM   20  N   UNL     1      -6.928  10.470  68.285  1.00  0.00    -0.072 NA 
ENDBRANCH  10  11
ENDBRANCH   6  10
TORSDOF 2
ENDMDL
MODEL      158
REMARK 921   NORMALIZED FREE ENERGY PREDICTED BY IDOCK:   -4.49 KCAL/MOL
REMARK 922        TOTAL FREE ENERGY PREDICTED BY IDOCK:   -5.34 KCAL/MOL
REMARK 923 INTER-LIGAND FREE ENERGY PREDICTED BY IDOCK:   -5.68 KCAL/MOL
REMARK 924 INTRA-LIGAND FREE ENERGY PREDICTED BY IDOCK:    0.34 KCAL/MOL
REMARK 927      BINDING AFFINITY PREDICTED BY RF-SCORE:    0.00 PKD
ROOT
HETATM    1  C   UNL     1     -12.366  13.791  65.711  1.00  0.00    -0.486 C  
HETATM    2  N   UNL     1     -11.534  12.719  65.223  1.00  0.00    -0.313 NA 
HETATM    3  C   UNL     1     -11.780  12.143  63.997  1.00  0.00    -0.430 A  
HETATM    4  N   UNL     1     -10.875  11.252  63.685  1.00  0.00    -0.373 NA 
HETATM    5  C   UNL     1      -9.990  11.258  64.747  1.00  0.00    -0.277 A  
HETATM    6  C   UNL     1     -10.389  12.154  65.746  1.00  0.00    -0.258 A  
HETATM    7  N   UNL     1      -8.797  10.437  64.645  1.00  0.00    -0.188 N  
HETATM    8  O   UNL     1      -8.601   9.839  63.580  1.00  0.00    -0.167 OA 
HETATM    9  O   UNL     1      -8.045  10.391  65.632  1.00  0.00    -0.147 OA 
ENDROOT
BRANCH   6  10
HETATM   10  S   UNL     1      -9.529  12.693  67.174  1.00  0.00    -0.221 SA 
BRANCH  10  11
HETATM   11  C   UNL     1     -10.280  14.175  67.791  1.00  0.00    -0.242 A  
HETATM   12  N   UNL     1      -9.871  15.388  67.356  1.00  0.00    -0.216 NA 
HETATM   13  C   UNL     1     -10.303  16.491  68.006  1.00  0.00    -0.294 A  
HETATM   14  N   UNL     1     -11.144  16.561  69.037  1.00  0.00    -0.311 NA 
HETATM   15  C   UNL     1     -11.534  15.352  69.471  1.00  0.00    -0.319 A  
HETATM   16  C   UNL     1     -11.107  14.161  68.906  1.00  0.00    -0.263 A  
HETATM   17  N   UNL     1     -11.637  13.199  69.731  1.00  0.00    -0.463 NA 
HETATM   18  H   UNL     1     -11.485  12.193  69.658  1.00  0.00     0.000 HD 
HETATM   19  C   UNL     1     -12.410  13.833  70.670  1.00  0.00    -0.375 A  
HETATM   20  N   UNL     1     -12.356  15.139  70.542  1.00  0.00    -0.332 NA 
ENDBRANCH  10  11
ENDBRANCH   6  10
TORSDOF 2
ENDMDL
MODEL      159
REMARK 921   NORMALIZED FREE ENERGY PREDICTED BY IDOCK:   -4.47 KCAL/MOL
REMARK 922        TOTAL FREE ENERGY PREDICTED BY IDOCK:   -5.31 KCAL/MOL
REMARK 923 INTER-LIGAND FREE ENERGY PREDICTED BY IDOCK:   -5.17 KCAL/MOL
REMARK 924 INTRA-LIGAND FREE ENERGY PREDICTED BY IDOCK:   -0.14 KCAL/MOL
REMARK 927      BINDING AFFINITY PREDICTED BY RF-SCORE:    0.00 PKD
ROOT
HETATM    1  C   UNL     1     -12.218  11.580  70.300  1.00  0.00    -0.332 C  
HETATM    2  N   UNL     1     -11.895  12.241  69.059  1.00  0.00    -0.315 NA 
HETATM    3  C   UNL     1     -12.035  13.604  68.933  1.00  0.00    -0.356 A  
HETATM    4  N   UNL     1     -11.616  14.034  67.772  1.00  0.00    -0.325 NA 
HETATM    5  C   UNL     1     -11.166  12.904  67.116  1.00  0.00    -0.289 A  
HETATM    6  C   UNL     1     -11.350  11.752  67.889  1.00  0.00    -0.292 A  
HETATM    7  N   UNL     1     -10.529  13.074  65.823  1.00  0.00    -0.276 N  
HETATM    8  O   UNL     1     -10.355  14.229  65.416  1.00  0.00    -0.327 OA 
HETATM    9  O   UNL     1     -10.194  12.049  65.208  1.00  0.00    -0.257 OA 
ENDROOT
BRANCH   6  10
HETATM   10  S   UNL     1     -10.769  10.121  67.623  1.00  0.00    -0.290 SA 
BRANCH  10  11
HETATM   11  C   UNL     1      -9.992   9.521  69.100  1.00  0.00    -0.183 A  
HETATM   12  N   UNL     1      -8.838  10.069  69.542  1.00  0.00    -0.188 NA 
HETATM   13  C   UNL     1      -8.162   9.447  70.533  1.00  0.00    -0.189 A  
HETATM   14  N   UNL     1      -8.505   8.343  71.194  1.00  0.00    -0.135 NA 
HETATM   15  C   UNL     1      -9.645   7.799  70.740  1.00  0.00    -0.165 A  
HETATM   16  C   UNL     1     -10.384   8.330  69.695  1.00  0.00    -0.218 A  
HETATM   17  N   UNL     1     -11.372   7.399  69.485  1.00  0.00    -0.466 NA 
HETATM   18  H   UNL     1     -12.077   7.425  68.749  1.00  0.00     0.000 HD 
HETATM   19  C   UNL     1     -11.239   6.426  70.444  1.00  0.00    -0.372 A  
HETATM   20  N   UNL     1     -10.193   6.639  71.210  1.00  0.00    -0.199 NA 
ENDBRANCH  10  11
ENDBRANCH   6  10
TORSDOF 2
ENDMDL
MODEL      160
REMARK 921   NORMALIZED FREE ENERGY PREDICTED BY IDOCK:   -4.46 KCAL/MOL
REMARK 922        TOTAL FREE ENERGY PREDICTED BY IDOCK:   -5.30 KCAL/MOL
REMARK 923 INTER-LIGAND FREE ENERGY PREDICTED BY IDOCK:   -4.85 KCAL/MOL
REMARK 924 INTRA-LIGAND FREE ENERGY PREDICTED BY IDOCK:   -0.46 KCAL/MOL
REMARK 927      BINDING AFFINITY PREDICTED BY RF-SCORE:    0.00 PKD
ROOT
HETATM    1  C   UNL     1     -10.549  14.649  67.793  1.00  0.00    -0.251 C  
HETATM    2  N   UNL     1     -11.110  14.487  69.112  1.00  0.00    -0.253 NA 
HETATM    3  C   UNL     1     -11.159  15.547  69.988  1.00  0.00    -0.315 A  
HETATM    4  N   UNL     1     -11.776  15.236  71.098  1.00  0.00    -0.326 NA 
HETATM    5  C   UNL     1     -12.161  13.919  70.933  1.00  0.00    -0.361 A  
HETATM    6  C   UNL     1     -11.736  13.407  69.702  1.00  0.00    -0.310 A  
HETATM    7  N   UNL     1     -12.976  13.312  71.970  1.00  0.00    -0.323 N  
HETATM    8  O   UNL     1     -13.344  14.032  72.906  1.00  0.00    -0.601 OA 
HETATM    9  O   UNL     1     -13.256  12.108  71.850  1.00  0.00    -0.478 OA 
ENDROOT
BRANCH   6  10
HETATM   10  S   UNL     1     -12.138  11.892  68.920  1.00  0.00    -0.019 SA 
BRANCH  10  11
HETATM   11  C   UNL     1     -10.752  10.790  69.021  1.00  0.00    -0.228 A  
HETATM   12  N   UNL     1     -10.440  10.180  70.186  1.00  0.00    -0.275 NA 
HETATM   13  C   UNL     1      -9.259   9.532  70.285  1.00  0.00    -0.258 A  
HETATM   14  N   UNL     1      -8.333   9.365  69.342  1.00  0.00    -0.116 NA 
HETATM   15  C   UNL     1      -8.644   9.985  68.193  1.00  0.00    -0.118 A  
HETATM   16  C   UNL     1      -9.806  10.719  68.008  1.00  0.00    -0.165 A  
HETATM   17  N   UNL     1      -9.649  11.271  66.761  1.00  0.00    -0.190 NA 
HETATM   18  H   UNL     1     -10.288  11.925  66.308  1.00  0.00     0.000 HD 
HETATM   19  C   UNL     1      -8.480  10.786  66.232  1.00  0.00    -0.161 A  
HETATM   20  N   UNL     1      -7.846  10.013  67.084  1.00  0.00    -0.099 NA 
ENDBRANCH  10  11
ENDBRANCH   6  10
TORSDOF 2
ENDMDL
MODEL      161
REMARK 921   NORMALIZED FREE ENERGY PREDICTED BY IDOCK:   -4.45 KCAL/MOL
REMARK 922        TOTAL FREE ENERGY PREDICTED BY IDOCK:   -5.29 KCAL/MOL
REMARK 923 INTER-LIGAND FREE ENERGY PREDICTED BY IDOCK:   -4.51 KCAL/MOL
REMARK 924 INTRA-LIGAND FREE ENERGY PREDICTED BY IDOCK:   -0.77 KCAL/MOL
REMARK 927      BINDING AFFINITY PREDICTED BY RF-SCORE:    0.00 PKD
ROOT
HETATM    1  C   UNL     1      -6.858  10.546  69.134  1.00  0.00    -0.074 C  
HETATM    2  N   UNL     1      -8.282  10.406  69.315  1.00  0.00    -0.156 NA 
HETATM    3  C   UNL     1      -8.787   9.702  70.384  1.00  0.00    -0.178 A  
HETATM    4  N   UNL     1     -10.093   9.755  70.431  1.00  0.00    -0.270 NA 
HETATM    5  C   UNL     1     -10.455  10.542  69.354  1.00  0.00    -0.240 A  
HETATM    6  C   UNL     1      -9.340  10.949  68.614  1.00  0.00    -0.187 A  
HETATM    7  N   UNL     1     -11.858  10.880  69.199  1.00  0.00    -0.323 N  
HETATM    8  O   UNL     1     -12.640  10.509  70.083  1.00  0.00    -0.293 OA 
HETATM    9  O   UNL     1     -12.186  11.525  68.189  1.00  0.00    -0.576 OA 
ENDROOT
BRANCH   6  10
HETATM   10  S   UNL     1      -9.227  12.110  67.307  1.00  0.00    -0.192 SA 
BRANCH  10  11
HETATM   11  C   UNL     1      -8.880  13.717  67.972  1.00  0.00    -0.187 A  
HETATM   12  N   UNL     1      -7.607  14.157  68.083  1.00  0.00    -0.122 NA 
HETATM   13  C   UNL     1      -7.367  15.280  68.794  1.00  0.00    -0.131 A  
HETATM   14  N   UNL     1      -8.250  16.075  69.397  1.00  0.00    -0.204 NA 
HETATM   15  C   UNL     1      -9.510  15.623  69.294  1.00  0.00    -0.264 A  
HETATM   16  C   UNL     1      -9.853  14.456  68.631  1.00  0.00    -0.231 A  
HETATM   17  N   UNL     1     -11.196  14.317  68.887  1.00  0.00    -0.251 NA 
HETATM   18  H   UNL     1     -11.785  13.534  68.602  1.00  0.00     0.000 HD 
HETATM   19  C   UNL     1     -11.603  15.421  69.592  1.00  0.00    -0.331 A  
HETATM   20  N   UNL     1     -10.598  16.222  69.862  1.00  0.00    -0.303 NA 
ENDBRANCH  10  11
ENDBRANCH   6  10
TORSDOF 2
ENDMDL
MODEL      162
REMARK 921   NORMALIZED FREE ENERGY PREDICTED BY IDOCK:   -4.44 KCAL/MOL
REMARK 922        TOTAL FREE ENERGY PREDICTED BY IDOCK:   -5.27 KCAL/MOL
REMARK 923 INTER-LIGAND FREE ENERGY PREDICTED BY IDOCK:   -4.53 KCAL/MOL
REMARK 924 INTRA-LIGAND FREE ENERGY PREDICTED BY IDOCK:   -0.74 KCAL/MOL
REMARK 927      BINDING AFFINITY PREDICTED BY RF-SCORE:    0.00 PKD
ROOT
HETATM    1  C   UNL     1     -12.380  11.365  70.617  1.00  0.00    -0.373 C  
HETATM    2  N   UNL     1     -12.214  12.724  70.162  1.00  0.00    -0.289 NA 
HETATM    3  C   UNL     1     -12.468  13.781  71.005  1.00  0.00    -0.380 A  
HETATM    4  N   UNL     1     -12.180  14.929  70.450  1.00  0.00    -0.313 NA 
HETATM    5  C   UNL     1     -11.701  14.606  69.194  1.00  0.00    -0.309 A  
HETATM    6  C   UNL     1     -11.731  13.225  68.970  1.00  0.00    -0.322 A  
HETATM    7  N   UNL     1     -11.188  15.680  68.363  1.00  0.00    -0.334 N  
HETATM    8  O   UNL     1     -11.138  16.813  68.856  1.00  0.00    -0.288 OA 
HETATM    9  O   UNL     1     -10.828  15.393  67.210  1.00  0.00    -0.306 OA 
ENDROOT
BRANCH   6  10
HETATM   10  S   UNL     1     -11.050  12.289  67.655  1.00  0.00    -0.287 SA 
BRANCH  10  11
HETATM   11  C   UNL     1      -9.413  11.765  68.088  1.00  0.00    -0.193 A  
HETATM   12  N   UNL     1      -9.219  10.630  68.796  1.00  0.00    -0.173 NA 
HETATM   13  C   UNL     1      -7.989  10.381  69.299  1.00  0.00    -0.157 A  
HETATM   14  N   UNL     1      -6.881  11.106  69.156  1.00  0.00    -0.091 NA 
HETATM   15  C   UNL     1      -7.087  12.237  68.463  1.00  0.00    -0.099 A  
HETATM   16  C   UNL     1      -8.320  12.609  67.952  1.00  0.00    -0.172 A  
HETATM   17  N   UNL     1      -8.100  13.868  67.447  1.00  0.00    -0.191 NA 
HETATM   18  H   UNL     1      -8.803  14.483  67.038  1.00  0.00     0.000 HD 
HETATM   19  C   UNL     1      -6.764  14.148  67.592  1.00  0.00    -0.171 A  
HETATM   20  N   UNL     1      -6.130  13.181  68.215  1.00  0.00    -0.079 NA 
ENDBRANCH  10  11
ENDBRANCH   6  10
TORSDOF 2
ENDMDL
MODEL      163
REMARK 921   NORMALIZED FREE ENERGY PREDICTED BY IDOCK:   -4.43 KCAL/MOL
REMARK 922        TOTAL FREE ENERGY PREDICTED BY IDOCK:   -5.27 KCAL/MOL
REMARK 923 INTER-LIGAND FREE ENERGY PREDICTED BY IDOCK:   -4.88 KCAL/MOL
REMARK 924 INTRA-LIGAND FREE ENERGY PREDICTED BY IDOCK:   -0.39 KCAL/MOL
REMARK 927      BINDING AFFINITY PREDICTED BY RF-SCORE:    0.00 PKD
ROOT
HETATM    1  C   UNL     1     -10.197  17.057  66.236  1.00  0.00    -0.329 C  
HETATM    2  N   UNL     1     -10.962  15.917  65.793  1.00  0.00    -0.234 NA 
HETATM    3  C   UNL     1     -11.460  15.862  64.512  1.00  0.00    -0.283 A  
HETATM    4  N   UNL     1     -12.049  14.721  64.265  1.00  0.00    -0.478 NA 
HETATM    5  C   UNL     1     -11.916  13.993  65.432  1.00  0.00    -0.380 A  
HETATM    6  C   UNL     1     -11.256  14.726  66.425  1.00  0.00    -0.342 A  
HETATM    7  N   UNL     1     -12.382  12.618  65.435  1.00  0.00    -0.475 N  
HETATM    8  O   UNL     1     -12.802  12.152  64.369  1.00  0.00    -0.581 OA 
HETATM    9  O   UNL     1     -12.326  11.994  66.507  1.00  0.00    -0.377 OA 
ENDROOT
BRANCH   6  10
HETATM   10  S   UNL     1     -10.652  14.206  67.985  1.00  0.00    -0.243 SA 
BRANCH  10  11
HETATM   11  C   UNL     1      -9.158  13.278  67.761  1.00  0.00    -0.202 A  
HETATM   12  N   UNL     1      -9.197  12.018  67.273  1.00  0.00    -0.177 NA 
HETATM   13  C   UNL     1      -8.076  11.266  67.326  1.00  0.00    -0.140 A  
HETATM   14  N   UNL     1      -6.871  11.617  67.775  1.00  0.00    -0.074 NA 
HETATM   15  C   UNL     1      -6.845  12.864  68.270  1.00  0.00    -0.093 A  
HETATM   16  C   UNL     1      -7.953  13.696  68.309  1.00  0.00    -0.150 A  
HETATM   17  N   UNL     1      -7.512  14.797  69.002  1.00  0.00    -0.134 NA 
HETATM   18  H   UNL     1      -8.076  15.602  69.275  1.00  0.00     0.000 HD 
HETATM   19  C   UNL     1      -6.175  14.621  69.259  1.00  0.00    -0.111 A  
HETATM   20  N   UNL     1      -5.750  13.452  68.836  1.00  0.00    -0.072 NA 
ENDBRANCH  10  11
ENDBRANCH   6  10
TORSDOF 2
ENDMDL
MODEL      164
REMARK 921   NORMALIZED FREE ENERGY PREDICTED BY IDOCK:   -4.43 KCAL/MOL
REMARK 922        TOTAL FREE ENERGY PREDICTED BY IDOCK:   -5.26 KCAL/MOL
REMARK 923 INTER-LIGAND FREE ENERGY PREDICTED BY IDOCK:   -4.99 KCAL/MOL
REMARK 924 INTRA-LIGAND FREE ENERGY PREDICTED BY IDOCK:   -0.27 KCAL/MOL
REMARK 927      BINDING AFFINITY PREDICTED BY RF-SCORE:    0.00 PKD
ROOT
HETATM    1  C   UNL     1     -12.206  12.846  64.193  1.00  0.00    -0.414 C  
HETATM    2  N   UNL     1     -11.087  12.560  65.058  1.00  0.00    -0.290 NA 
HETATM    3  C   UNL     1     -10.668  11.265  65.258  1.00  0.00    -0.237 A  
HETATM    4  N   UNL     1      -9.593  11.207  65.999  1.00  0.00    -0.209 NA 
HETATM    5  C   UNL     1      -9.286  12.525  66.283  1.00  0.00    -0.177 A  
HETATM    6  C   UNL     1     -10.222  13.404  65.725  1.00  0.00    -0.295 A  
HETATM    7  N   UNL     1      -8.061  12.798  67.011  1.00  0.00    -0.119 N  
HETATM    8  O   UNL     1      -7.320  11.841  67.269  1.00  0.00    -0.123 OA 
HETATM    9  O   UNL     1      -7.830  13.977  67.326  1.00  0.00    -0.179 OA 
ENDROOT
BRANCH   6  10
HETATM   10  S   UNL     1     -10.184  15.151  65.606  1.00  0.00    -0.387 SA 
BRANCH  10  11
HETATM   11  C   UNL     1     -10.354  15.858  67.223  1.00  0.00    -0.293 A  
HETATM   12  N   UNL     1     -10.940  15.160  68.221  1.00  0.00    -0.265 NA 
HETATM   13  C   UNL     1     -11.254  15.805  69.366  1.00  0.00    -0.324 A  
HETATM   14  N   UNL     1     -11.021  17.078  69.683  1.00  0.00    -0.041 NA 
HETATM   15  C   UNL     1     -10.452  17.766  68.682  1.00  0.00    -0.292 A  
HETATM   16  C   UNL     1     -10.139  17.210  67.451  1.00  0.00    -0.301 A  
HETATM   17  N   UNL     1      -9.708  18.282  66.707  1.00  0.00    -0.307 NA 
HETATM   18  H   UNL     1      -9.445  18.264  65.722  1.00  0.00     0.000 HD 
HETATM   19  C   UNL     1      -9.696  19.382  67.528  1.00  0.00    -0.335 A  
HETATM   20  N   UNL     1     -10.153  19.098  68.726  1.00  0.00    -0.406 NA 
ENDBRANCH  10  11
ENDBRANCH   6  10
TORSDOF 2
ENDMDL
MODEL      165
REMARK 921   NORMALIZED FREE ENERGY PREDICTED BY IDOCK:   -4.42 KCAL/MOL
REMARK 922        TOTAL FREE ENERGY PREDICTED BY IDOCK:   -5.26 KCAL/MOL
REMARK 923 INTER-LIGAND FREE ENERGY PREDICTED BY IDOCK:   -4.79 KCAL/MOL
REMARK 924 INTRA-LIGAND FREE ENERGY PREDICTED BY IDOCK:   -0.47 KCAL/MOL
REMARK 927      BINDING AFFINITY PREDICTED BY RF-SCORE:    0.00 PKD
ROOT
HETATM    1  C   UNL     1      -9.052  11.891  67.862  1.00  0.00    -0.183 C  
HETATM    2  N   UNL     1      -9.427  10.535  67.544  1.00  0.00    -0.149 NA 
HETATM    3  C   UNL     1      -9.813  10.194  66.268  1.00  0.00    -0.229 A  
HETATM    4  N   UNL     1     -10.032   8.911  66.149  1.00  0.00    -0.278 NA 
HETATM    5  C   UNL     1      -9.761   8.387  67.399  1.00  0.00    -0.170 A  
HETATM    6  C   UNL     1      -9.401   9.387  68.310  1.00  0.00    -0.133 A  
HETATM    7  N   UNL     1      -9.809   6.945  67.560  1.00  0.00    -0.132 N  
HETATM    8  O   UNL     1     -10.014   6.262  66.549  1.00  0.00    -0.166 OA 
HETATM    9  O   UNL     1      -9.637   6.488  68.701  1.00  0.00    -0.126 OA 
ENDROOT
BRANCH   6  10
HETATM   10  S   UNL     1      -8.763   9.243  69.936  1.00  0.00    -0.198 SA 
BRANCH  10  11
HETATM   11  C   UNL     1     -10.101   9.022  71.078  1.00  0.00    -0.282 A  
HETATM   12  N   UNL     1     -10.260   7.851  71.734  1.00  0.00    -0.190 NA 
HETATM   13  C   UNL     1     -11.406   7.641  72.418  1.00  0.00    -0.329 A  
HETATM   14  N   UNL     1     -12.432   8.475  72.579  1.00  0.00    -0.356 NA 
HETATM   15  C   UNL     1     -12.272   9.629  71.912  1.00  0.00    -0.336 A  
HETATM   16  C   UNL     1     -11.158   9.920  71.141  1.00  0.00    -0.289 A  
HETATM   17  N   UNL     1     -11.472  11.120  70.551  1.00  0.00    -0.448 NA 
HETATM   18  H   UNL     1     -10.906  11.620  69.865  1.00  0.00     0.000 HD 
HETATM   19  C   UNL     1     -12.684  11.527  71.051  1.00  0.00    -0.328 A  
HETATM   20  N   UNL     1     -13.195  10.636  71.869  1.00  0.00    -0.462 NA 
ENDBRANCH  10  11
ENDBRANCH   6  10
TORSDOF 2
ENDMDL
MODEL      166
REMARK 921   NORMALIZED FREE ENERGY PREDICTED BY IDOCK:   -4.41 KCAL/MOL
REMARK 922        TOTAL FREE ENERGY PREDICTED BY IDOCK:   -5.25 KCAL/MOL
REMARK 923 INTER-LIGAND FREE ENERGY PREDICTED BY IDOCK:   -4.64 KCAL/MOL
REMARK 924 INTRA-LIGAND FREE ENERGY PREDICTED BY IDOCK:   -0.61 KCAL/MOL
REMARK 927      BINDING AFFINITY PREDICTED BY RF-SCORE:    0.00 PKD
ROOT
HETATM    1  C   UNL     1      -9.822  11.743  65.739  1.00  0.00    -0.240 C  
HETATM    2  N   UNL     1     -10.467  11.722  67.029  1.00  0.00    -0.214 NA 
HETATM    3  C   UNL     1     -11.652  12.392  67.231  1.00  0.00    -0.365 A  
HETATM    4  N   UNL     1     -12.130  12.189  68.431  1.00  0.00    -0.356 NA 
HETATM    5  C   UNL     1     -11.225  11.335  69.034  1.00  0.00    -0.258 A  
HETATM    6  C   UNL     1     -10.152  11.039  68.186  1.00  0.00    -0.179 A  
HETATM    7  N   UNL     1     -11.541  10.832  70.358  1.00  0.00    -0.325 N  
HETATM    8  O   UNL     1     -12.640  11.134  70.840  1.00  0.00    -0.360 OA 
HETATM    9  O   UNL     1     -10.691  10.124  70.922  1.00  0.00    -0.249 OA 
ENDROOT
BRANCH   6  10
HETATM   10  S   UNL     1      -8.868   9.862  68.375  1.00  0.00    -0.122 SA 
BRANCH  10  11
HETATM   11  C   UNL     1      -9.534   8.228  68.201  1.00  0.00    -0.137 A  
HETATM   12  N   UNL     1     -10.041   7.814  67.018  1.00  0.00    -0.245 NA 
HETATM   13  C   UNL     1     -10.738   6.657  66.980  1.00  0.00    -0.366 A  
HETATM   14  N   UNL     1     -10.975   5.807  67.979  1.00  0.00    -0.169 NA 
HETATM   15  C   UNL     1     -10.479   6.233  69.151  1.00  0.00    -0.239 A  
HETATM   16  C   UNL     1      -9.796   7.429  69.305  1.00  0.00    -0.168 A  
HETATM   17  N   UNL     1      -9.596   7.520  70.661  1.00  0.00    -0.171 NA 
HETATM   18  H   UNL     1      -9.169   8.304  71.155  1.00  0.00     0.000 HD 
HETATM   19  C   UNL     1     -10.073   6.367  71.232  1.00  0.00    -0.187 A  
HETATM   20  N   UNL     1     -10.624   5.575  70.340  1.00  0.00    -0.287 NA 
ENDBRANCH  10  11
ENDBRANCH   6  10
TORSDOF 2
ENDMDL
MODEL      167
REMARK 921   NORMALIZED FREE ENERGY PREDICTED BY IDOCK:   -4.41 KCAL/MOL
REMARK 922        TOTAL FREE ENERGY PREDICTED BY IDOCK:   -5.24 KCAL/MOL
REMARK 923 INTER-LIGAND FREE ENERGY PREDICTED BY IDOCK:   -4.55 KCAL/MOL
REMARK 924 INTRA-LIGAND FREE ENERGY PREDICTED BY IDOCK:   -0.69 KCAL/MOL
REMARK 927      BINDING AFFINITY PREDICTED BY RF-SCORE:    0.00 PKD
ROOT
HETATM    1  C   UNL     1     -11.140  16.288  70.331  1.00  0.00    -0.311 C  
HETATM    2  N   UNL     1     -11.289  14.904  69.950  1.00  0.00    -0.265 NA 
HETATM    3  C   UNL     1     -12.060  14.049  70.704  1.00  0.00    -0.354 A  
HETATM    4  N   UNL     1     -12.148  12.863  70.160  1.00  0.00    -0.337 NA 
HETATM    5  C   UNL     1     -11.416  12.953  68.991  1.00  0.00    -0.308 A  
HETATM    6  C   UNL     1     -10.840  14.219  68.839  1.00  0.00    -0.257 A  
HETATM    7  N   UNL     1     -11.414  11.809  68.097  1.00  0.00    -0.291 N  
HETATM    8  O   UNL     1     -12.132  10.847  68.396  1.00  0.00    -0.559 OA 
HETATM    9  O   UNL     1     -10.696  11.870  67.086  1.00  0.00    -0.223 OA 
ENDROOT
BRANCH   6  10
HETATM   10  S   UNL     1     -10.012  14.915  67.461  1.00  0.00    -0.218 SA 
BRANCH  10  11
HETATM   11  C   UNL     1      -8.260  14.799  67.704  1.00  0.00    -0.175 A  
HETATM   12  N   UNL     1      -7.479  15.899  67.620  1.00  0.00    -0.139 NA 
HETATM   13  C   UNL     1      -6.137  15.743  67.586  1.00  0.00    -0.154 A  
HETATM   14  N   UNL     1      -5.440  14.610  67.668  1.00  0.00    -0.337 NA 
HETATM   15  C   UNL     1      -6.223  13.523  67.737  1.00  0.00    -0.154 A  
HETATM   16  C   UNL     1      -7.608  13.574  67.725  1.00  0.00    -0.162 A  
HETATM   17  N   UNL     1      -7.985  12.253  67.678  1.00  0.00    -0.149 NA 
HETATM   18  H   UNL     1      -8.939  11.902  67.601  1.00  0.00     0.000 HD 
HETATM   19  C   UNL     1      -6.846  11.491  67.755  1.00  0.00    -0.077 A  
HETATM   20  N   UNL     1      -5.764  12.236  67.779  1.00  0.00    -0.084 NA 
ENDBRANCH  10  11
ENDBRANCH   6  10
TORSDOF 2
ENDMDL
MODEL      168
REMARK 921   NORMALIZED FREE ENERGY PREDICTED BY IDOCK:   -4.40 KCAL/MOL
REMARK 922        TOTAL FREE ENERGY PREDICTED BY IDOCK:   -5.24 KCAL/MOL
REMARK 923 INTER-LIGAND FREE ENERGY PREDICTED BY IDOCK:   -4.76 KCAL/MOL
REMARK 924 INTRA-LIGAND FREE ENERGY PREDICTED BY IDOCK:   -0.48 KCAL/MOL
REMARK 927      BINDING AFFINITY PREDICTED BY RF-SCORE:    0.00 PKD
ROOT
HETATM    1  C   UNL     1     -12.541  12.287  63.757  1.00  0.00    -0.470 C  
HETATM    2  N   UNL     1     -11.994  13.316  64.607  1.00  0.00    -0.375 NA 
HETATM    3  C   UNL     1     -11.984  14.631  64.200  1.00  0.00    -0.292 A  
HETATM    4  N   UNL     1     -11.532  15.428  65.132  1.00  0.00    -0.261 NA 
HETATM    5  C   UNL     1     -11.248  14.599  66.202  1.00  0.00    -0.341 A  
HETATM    6  C   UNL     1     -11.505  13.258  65.897  1.00  0.00    -0.332 A  
HETATM    7  N   UNL     1     -10.824  15.213  67.446  1.00  0.00    -0.295 N  
HETATM    8  O   UNL     1     -10.814  16.449  67.503  1.00  0.00    -0.315 OA 
HETATM    9  O   UNL     1     -10.501  14.459  68.379  1.00  0.00    -0.233 OA 
ENDROOT
BRANCH   6  10
HETATM   10  S   UNL     1     -11.520  11.854  66.945  1.00  0.00    -0.281 SA 
BRANCH  10  11
HETATM   11  C   UNL     1      -9.913  11.106  66.954  1.00  0.00    -0.198 A  
HETATM   12  N   UNL     1      -9.046  11.347  67.963  1.00  0.00    -0.164 NA 
HETATM   13  C   UNL     1      -7.763  10.947  67.827  1.00  0.00    -0.107 A  
HETATM   14  N   UNL     1      -7.213  10.282  66.812  1.00  0.00    -0.102 NA 
HETATM   15  C   UNL     1      -8.077  10.060  65.809  1.00  0.00    -0.128 A  
HETATM   16  C   UNL     1      -9.399  10.476  65.829  1.00  0.00    -0.188 A  
HETATM   17  N   UNL     1      -9.861  10.161  64.575  1.00  0.00    -0.351 NA 
HETATM   18  H   UNL     1     -10.787  10.374  64.203  1.00  0.00     0.000 HD 
HETATM   19  C   UNL     1      -8.853   9.507  63.910  1.00  0.00    -0.210 A  
HETATM   20  N   UNL     1      -7.758   9.443  64.632  1.00  0.00    -0.112 NA 
ENDBRANCH  10  11
ENDBRANCH   6  10
TORSDOF 2
ENDMDL
MODEL      169
REMARK 921   NORMALIZED FREE ENERGY PREDICTED BY IDOCK:   -4.40 KCAL/MOL
REMARK 922        TOTAL FREE ENERGY PREDICTED BY IDOCK:   -5.23 KCAL/MOL
REMARK 923 INTER-LIGAND FREE ENERGY PREDICTED BY IDOCK:   -4.76 KCAL/MOL
REMARK 924 INTRA-LIGAND FREE ENERGY PREDICTED BY IDOCK:   -0.47 KCAL/MOL
REMARK 927      BINDING AFFINITY PREDICTED BY RF-SCORE:    0.00 PKD
ROOT
HETATM    1  C   UNL     1      -8.180   8.214  68.468  1.00  0.00    -0.125 C  
HETATM    2  N   UNL     1      -7.978   8.238  69.896  1.00  0.00    -0.105 NA 
HETATM    3  C   UNL     1      -6.804   8.718  70.430  1.00  0.00    -0.045 A  
HETATM    4  N   UNL     1      -6.836   8.743  71.737  1.00  0.00    -0.154 NA 
HETATM    5  C   UNL     1      -8.093   8.275  72.071  1.00  0.00    -0.141 A  
HETATM    6  C   UNL     1      -8.831   7.924  70.935  1.00  0.00    -0.138 A  
HETATM    7  N   UNL     1      -8.476   8.288  73.471  1.00  0.00    -0.230 N  
HETATM    8  O   UNL     1      -7.684   8.790  74.278  1.00  0.00    -0.417 OA 
HETATM    9  O   UNL     1      -9.577   7.799  73.770  1.00  0.00    -0.288 OA 
ENDROOT
BRANCH   6  10
HETATM   10  S   UNL     1     -10.522   7.490  70.789  1.00  0.00    -0.215 SA 
BRANCH  10  11
HETATM   11  C   UNL     1     -11.530   8.864  71.279  1.00  0.00    -0.299 A  
HETATM   12  N   UNL     1     -12.557   8.692  72.141  1.00  0.00    -0.368 NA 
HETATM   13  C   UNL     1     -13.434   9.704  72.316  1.00  0.00    -0.400 A  
HETATM   14  N   UNL     1     -13.409  10.917  71.766  1.00  0.00    -0.362 NA 
HETATM   15  C   UNL     1     -12.395  11.075  70.902  1.00  0.00    -0.402 A  
HETATM   16  C   UNL     1     -11.473  10.081  70.613  1.00  0.00    -0.345 A  
HETATM   17  N   UNL     1     -10.715  10.620  69.603  1.00  0.00    -0.304 NA 
HETATM   18  H   UNL     1      -9.967  10.149  69.095  1.00  0.00     0.000 HD 
HETATM   19  C   UNL     1     -11.144  11.908  69.400  1.00  0.00    -0.153 A  
HETATM   20  N   UNL     1     -12.169  12.204  70.166  1.00  0.00    -0.270 NA 
ENDBRANCH  10  11
ENDBRANCH   6  10
TORSDOF 2
ENDMDL
MODEL      170
REMARK 921   NORMALIZED FREE ENERGY PREDICTED BY IDOCK:   -4.38 KCAL/MOL
REMARK 922        TOTAL FREE ENERGY PREDICTED BY IDOCK:   -5.21 KCAL/MOL
REMARK 923 INTER-LIGAND FREE ENERGY PREDICTED BY IDOCK:   -4.78 KCAL/MOL
REMARK 924 INTRA-LIGAND FREE ENERGY PREDICTED BY IDOCK:   -0.43 KCAL/MOL
REMARK 927      BINDING AFFINITY PREDICTED BY RF-SCORE:    0.00 PKD
ROOT
HETATM    1  C   UNL     1     -12.989  13.393  65.052  1.00  0.00    -0.152 C  
HETATM    2  N   UNL     1     -11.849  13.183  65.910  1.00  0.00    -0.384 NA 
HETATM    3  C   UNL     1     -11.796  12.096  66.753  1.00  0.00    -0.228 A  
HETATM    4  N   UNL     1     -10.655  12.023  67.386  1.00  0.00    -0.218 NA 
HETATM    5  C   UNL     1      -9.923  13.101  66.925  1.00  0.00    -0.245 A  
HETATM    6  C   UNL     1     -10.655  13.868  66.011  1.00  0.00    -0.293 A  
HETATM    7  N   UNL     1      -8.548  13.232  67.369  1.00  0.00    -0.194 N  
HETATM    8  O   UNL     1      -8.084  12.328  68.075  1.00  0.00    -0.137 OA 
HETATM    9  O   UNL     1      -7.920  14.241  67.009  1.00  0.00    -0.142 OA 
ENDROOT
BRANCH   6  10
HETATM   10  S   UNL     1     -10.132  15.189  64.987  1.00  0.00    -0.103 SA 
BRANCH  10  11
HETATM   11  C   UNL     1     -10.547  16.732  65.755  1.00  0.00    -0.250 A  
HETATM   12  N   UNL     1     -10.869  17.810  65.005  1.00  0.00    -0.698 NA 
HETATM   13  C   UNL     1     -10.959  19.017  65.606  1.00  0.00     0.081 A  
HETATM   14  N   UNL     1     -10.808  19.304  66.899  1.00  0.00    -0.434 NA 
HETATM   15  C   UNL     1     -10.475  18.231  67.633  1.00  0.00    -0.411 A  
HETATM   16  C   UNL     1     -10.307  16.961  67.102  1.00  0.00    -0.304 A  
HETATM   17  N   UNL     1      -9.849  16.220  68.165  1.00  0.00    -0.226 NA 
HETATM   18  H   UNL     1      -9.561  15.242  68.136  1.00  0.00     0.000 HD 
HETATM   19  C   UNL     1      -9.851  17.031  69.272  1.00  0.00    -0.126 A  
HETATM   20  N   UNL     1     -10.214  18.258  68.974  1.00  0.00    -0.312 NA 
ENDBRANCH  10  11
ENDBRANCH   6  10
TORSDOF 2
ENDMDL
MODEL      171
REMARK 921   NORMALIZED FREE ENERGY PREDICTED BY IDOCK:   -4.38 KCAL/MOL
REMARK 922        TOTAL FREE ENERGY PREDICTED BY IDOCK:   -5.21 KCAL/MOL
REMARK 923 INTER-LIGAND FREE ENERGY PREDICTED BY IDOCK:   -4.80 KCAL/MOL
REMARK 924 INTRA-LIGAND FREE ENERGY PREDICTED BY IDOCK:   -0.40 KCAL/MOL
REMARK 927      BINDING AFFINITY PREDICTED BY RF-SCORE:    0.00 PKD
ROOT
HETATM    1  C   UNL     1      -9.178   6.872  67.646  1.00  0.00    -0.119 C  
HETATM    2  N   UNL     1     -10.104   7.240  68.689  1.00  0.00    -0.171 NA 
HETATM    3  C   UNL     1     -10.961   6.307  69.228  1.00  0.00    -0.369 A  
HETATM    4  N   UNL     1     -11.661   6.800  70.215  1.00  0.00    -0.362 NA 
HETATM    5  C   UNL     1     -11.231   8.108  70.338  1.00  0.00    -0.221 A  
HETATM    6  C   UNL     1     -10.267   8.426  69.376  1.00  0.00    -0.208 A  
HETATM    7  N   UNL     1     -11.755   8.897  71.439  1.00  0.00    -0.294 N  
HETATM    8  O   UNL     1     -12.497   8.330  72.250  1.00  0.00    -0.341 OA 
HETATM    9  O   UNL     1     -11.420  10.091  71.500  1.00  0.00    -0.332 OA 
ENDROOT
BRANCH   6  10
HETATM   10  S   UNL     1      -9.259   9.852  69.230  1.00  0.00    -0.212 SA 
BRANCH  10  11
HETATM   11  C   UNL     1     -10.071  11.046  68.201  1.00  0.00    -0.179 A  
HETATM   12  N   UNL     1     -10.970  10.655  67.270  1.00  0.00    -0.300 NA 
HETATM   13  C   UNL     1     -11.398  11.558  66.361  1.00  0.00    -0.176 A  
HETATM   14  N   UNL     1     -11.076  12.848  66.269  1.00  0.00    -0.281 NA 
HETATM   15  C   UNL     1     -10.173  13.224  67.189  1.00  0.00    -0.246 A  
HETATM   16  C   UNL     1      -9.634  12.362  68.131  1.00  0.00    -0.218 A  
HETATM   17  N   UNL     1      -8.679  13.121  68.761  1.00  0.00    -0.374 NA 
HETATM   18  H   UNL     1      -8.033  12.798  69.482  1.00  0.00     0.000 HD 
HETATM   19  C   UNL     1      -8.748  14.391  68.247  1.00  0.00    -0.180 A  
HETATM   20  N   UNL     1      -9.637  14.477  67.284  1.00  0.00    -0.221 NA 
ENDBRANCH  10  11
ENDBRANCH   6  10
TORSDOF 2
ENDMDL
MODEL      172
REMARK 921   NORMALIZED FREE ENERGY PREDICTED BY IDOCK:   -4.35 KCAL/MOL
REMARK 922        TOTAL FREE ENERGY PREDICTED BY IDOCK:   -5.17 KCAL/MOL
REMARK 923 INTER-LIGAND FREE ENERGY PREDICTED BY IDOCK:   -4.43 KCAL/MOL
REMARK 924 INTRA-LIGAND FREE ENERGY PREDICTED BY IDOCK:   -0.75 KCAL/MOL
REMARK 927      BINDING AFFINITY PREDICTED BY RF-SCORE:    0.00 PKD
ROOT
HETATM    1  C   UNL     1      -8.147  10.451  64.986  1.00  0.00    -0.136 C  
HETATM    2  N   UNL     1      -8.051  10.148  66.393  1.00  0.00    -0.120 NA 
HETATM    3  C   UNL     1      -6.835  10.179  67.036  1.00  0.00    -0.083 A  
HETATM    4  N   UNL     1      -6.955   9.964  68.320  1.00  0.00    -0.071 NA 
HETATM    5  C   UNL     1      -8.312   9.801  68.528  1.00  0.00    -0.110 A  
HETATM    6  C   UNL     1      -9.031   9.888  67.330  1.00  0.00    -0.135 A  
HETATM    7  N   UNL     1      -8.779   9.652  69.894  1.00  0.00    -0.203 N  
HETATM    8  O   UNL     1      -7.945   9.757  70.801  1.00  0.00    -0.288 OA 
HETATM    9  O   UNL     1      -9.989   9.434  70.067  1.00  0.00    -0.192 OA 
ENDROOT
BRANCH   6  10
HETATM   10  S   UNL     1     -10.761   9.966  67.067  1.00  0.00    -0.111 SA 
BRANCH  10  11
HETATM   11  C   UNL     1     -11.293  11.656  67.137  1.00  0.00    -0.306 A  
HETATM   12  N   UNL     1     -11.107  12.481  66.083  1.00  0.00    -0.286 NA 
HETATM   13  C   UNL     1     -11.316  13.806  66.250  1.00  0.00    -0.321 A  
HETATM   14  N   UNL     1     -11.737  14.440  67.343  1.00  0.00    -0.381 NA 
HETATM   15  C   UNL     1     -11.906  13.615  68.388  1.00  0.00    -0.372 A  
HETATM   16  C   UNL     1     -11.668  12.251  68.334  1.00  0.00    -0.337 A  
HETATM   17  N   UNL     1     -11.837  11.837  69.633  1.00  0.00    -0.324 NA 
HETATM   18  H   UNL     1     -11.686  10.892  69.988  1.00  0.00     0.000 HD 
HETATM   19  C   UNL     1     -12.246  12.921  70.368  1.00  0.00    -0.304 A  
HETATM   20  N   UNL     1     -12.284  14.014  69.639  1.00  0.00    -0.346 NA 
ENDBRANCH  10  11
ENDBRANCH   6  10
TORSDOF 2
ENDMDL
MODEL      173
REMARK 921   NORMALIZED FREE ENERGY PREDICTED BY IDOCK:   -4.34 KCAL/MOL
REMARK 922        TOTAL FREE ENERGY PREDICTED BY IDOCK:   -5.17 KCAL/MOL
REMARK 923 INTER-LIGAND FREE ENERGY PREDICTED BY IDOCK:   -4.70 KCAL/MOL
REMARK 924 INTRA-LIGAND FREE ENERGY PREDICTED BY IDOCK:   -0.47 KCAL/MOL
REMARK 927      BINDING AFFINITY PREDICTED BY RF-SCORE:    0.00 PKD
ROOT
HETATM    1  C   UNL     1      -9.783   9.663  65.434  1.00  0.00    -0.295 C  
HETATM    2  N   UNL     1     -10.222  10.947  65.925  1.00  0.00    -0.250 NA 
HETATM    3  C   UNL     1     -11.063  11.735  65.173  1.00  0.00    -0.282 A  
HETATM    4  N   UNL     1     -11.421  12.817  65.813  1.00  0.00    -0.330 NA 
HETATM    5  C   UNL     1     -10.798  12.724  67.044  1.00  0.00    -0.257 A  
HETATM    6  C   UNL     1     -10.014  11.569  67.139  1.00  0.00    -0.199 A  
HETATM    7  N   UNL     1     -11.094  13.742  68.036  1.00  0.00    -0.253 N  
HETATM    8  O   UNL     1     -11.946  14.592  67.751  1.00  0.00    -0.363 OA 
HETATM    9  O   UNL     1     -10.476  13.693  69.112  1.00  0.00    -0.134 OA 
ENDROOT
BRANCH   6  10
HETATM   10  S   UNL     1      -9.205  10.877  68.531  1.00  0.00    -0.187 SA 
BRANCH  10  11
HETATM   11  C   UNL     1     -10.302   9.752  69.352  1.00  0.00    -0.217 A  
HETATM   12  N   UNL     1     -11.105  10.180  70.352  1.00  0.00    -0.306 NA 
HETATM   13  C   UNL     1     -11.756   9.262  71.100  1.00  0.00    -0.325 A  
HETATM   14  N   UNL     1     -11.751   7.937  70.963  1.00  0.00    -0.284 NA 
HETATM   15  C   UNL     1     -10.940   7.520  69.978  1.00  0.00    -0.240 A  
HETATM   16  C   UNL     1     -10.190   8.378  69.189  1.00  0.00    -0.211 A  
HETATM   17  N   UNL     1      -9.426   7.533  68.421  1.00  0.00    -0.148 NA 
HETATM   18  H   UNL     1      -8.705   7.812  67.755  1.00  0.00     0.000 HD 
HETATM   19  C   UNL     1      -9.806   6.247  68.710  1.00  0.00    -0.137 A  
HETATM   20  N   UNL     1     -10.714   6.211  69.659  1.00  0.00    -0.283 NA 
ENDBRANCH  10  11
ENDBRANCH   6  10
TORSDOF 2
ENDMDL
MODEL      174
REMARK 921   NORMALIZED FREE ENERGY PREDICTED BY IDOCK:   -4.33 KCAL/MOL
REMARK 922        TOTAL FREE ENERGY PREDICTED BY IDOCK:   -5.16 KCAL/MOL
REMARK 923 INTER-LIGAND FREE ENERGY PREDICTED BY IDOCK:   -4.66 KCAL/MOL
REMARK 924 INTRA-LIGAND FREE ENERGY PREDICTED BY IDOCK:   -0.49 KCAL/MOL
REMARK 927      BINDING AFFINITY PREDICTED BY RF-SCORE:    0.00 PKD
ROOT
HETATM    1  C   UNL     1      -8.756  10.058  69.753  1.00  0.00    -0.179 C  
HETATM    2  N   UNL     1      -8.562   9.913  68.331  1.00  0.00    -0.114 NA 
HETATM    3  C   UNL     1      -7.497   9.194  67.838  1.00  0.00    -0.084 A  
HETATM    4  N   UNL     1      -7.533   9.098  66.535  1.00  0.00    -0.092 NA 
HETATM    5  C   UNL     1      -8.680   9.772  66.160  1.00  0.00    -0.136 A  
HETATM    6  C   UNL     1      -9.341  10.319  67.266  1.00  0.00    -0.149 A  
HETATM    7  N   UNL     1      -9.058   9.749  64.759  1.00  0.00    -0.226 N  
HETATM    8  O   UNL     1      -8.374   9.062  63.991  1.00  0.00    -0.167 OA 
HETATM    9  O   UNL     1     -10.049  10.416  64.420  1.00  0.00    -0.343 OA 
ENDROOT
BRANCH   6  10
HETATM   10  S   UNL     1     -10.921  11.069  67.368  1.00  0.00    -0.297 SA 
BRANCH  10  11
HETATM   11  C   UNL     1     -10.814  12.751  66.818  1.00  0.00    -0.264 A  
HETATM   12  N   UNL     1     -10.447  13.732  67.673  1.00  0.00    -0.240 NA 
HETATM   13  C   UNL     1     -10.593  15.019  67.286  1.00  0.00    -0.279 A  
HETATM   14  N   UNL     1     -11.028  15.480  66.114  1.00  0.00    -0.290 NA 
HETATM   15  C   UNL     1     -11.403  14.499  65.277  1.00  0.00    -0.353 A  
HETATM   16  C   UNL     1     -11.342  13.152  65.599  1.00  0.00    -0.303 A  
HETATM   17  N   UNL     1     -11.935  12.532  64.527  1.00  0.00    -0.381 NA 
HETATM   18  H   UNL     1     -12.120  11.533  64.436  1.00  0.00     0.000 HD 
HETATM   19  C   UNL     1     -12.233  13.497  63.598  1.00  0.00    -0.375 A  
HETATM   20  N   UNL     1     -11.931  14.699  64.033  1.00  0.00    -0.391 NA 
ENDBRANCH  10  11
ENDBRANCH   6  10
TORSDOF 2
ENDMDL
MODEL      175
REMARK 921   NORMALIZED FREE ENERGY PREDICTED BY IDOCK:   -4.33 KCAL/MOL
REMARK 922        TOTAL FREE ENERGY PREDICTED BY IDOCK:   -5.16 KCAL/MOL
REMARK 923 INTER-LIGAND FREE ENERGY PREDICTED BY IDOCK:   -4.44 KCAL/MOL
REMARK 924 INTRA-LIGAND FREE ENERGY PREDICTED BY IDOCK:   -0.71 KCAL/MOL
REMARK 927      BINDING AFFINITY PREDICTED BY RF-SCORE:    0.00 PKD
ROOT
HETATM    1  C   UNL     1     -10.311   7.239  73.532  1.00  0.00    -0.366 C  
HETATM    2  N   UNL     1     -10.123   6.645  72.231  1.00  0.00    -0.174 NA 
HETATM    3  C   UNL     1     -10.665   5.415  71.936  1.00  0.00    -0.211 A  
HETATM    4  N   UNL     1     -10.465   5.079  70.689  1.00  0.00    -0.205 NA 
HETATM    5  C   UNL     1      -9.777   6.144  70.139  1.00  0.00    -0.163 A  
HETATM    6  C   UNL     1      -9.523   7.139  71.090  1.00  0.00    -0.157 A  
HETATM    7  N   UNL     1      -9.501   6.116  68.715  1.00  0.00    -0.122 N  
HETATM    8  O   UNL     1      -9.966   5.176  68.058  1.00  0.00    -0.150 OA 
HETATM    9  O   UNL     1      -8.820   7.041  68.243  1.00  0.00    -0.127 OA 
ENDROOT
BRANCH   6  10
HETATM   10  S   UNL     1      -8.887   8.758  70.874  1.00  0.00    -0.219 SA 
BRANCH  10  11
HETATM   11  C   UNL     1     -10.164   9.814  70.244  1.00  0.00    -0.289 A  
HETATM   12  N   UNL     1     -11.280  10.054  70.968  1.00  0.00    -0.346 NA 
HETATM   13  C   UNL     1     -12.321  10.674  70.370  1.00  0.00    -0.343 A  
HETATM   14  N   UNL     1     -12.395  11.140  69.124  1.00  0.00    -0.424 NA 
HETATM   15  C   UNL     1     -11.288  10.886  68.409  1.00  0.00    -0.304 A  
HETATM   16  C   UNL     1     -10.188  10.211  68.914  1.00  0.00    -0.199 A  
HETATM   17  N   UNL     1      -9.366  10.062  67.823  1.00  0.00    -0.140 NA 
HETATM   18  H   UNL     1      -8.480   9.557  67.802  1.00  0.00     0.000 HD 
HETATM   19  C   UNL     1      -9.951  10.714  66.767  1.00  0.00    -0.209 A  
HETATM   20  N   UNL     1     -11.122  11.212  67.093  1.00  0.00    -0.295 NA 
ENDBRANCH  10  11
ENDBRANCH   6  10
TORSDOF 2
ENDMDL
MODEL      176
REMARK 921   NORMALIZED FREE ENERGY PREDICTED BY IDOCK:   -4.33 KCAL/MOL
REMARK 922        TOTAL FREE ENERGY PREDICTED BY IDOCK:   -5.15 KCAL/MOL
REMARK 923 INTER-LIGAND FREE ENERGY PREDICTED BY IDOCK:   -4.99 KCAL/MOL
REMARK 924 INTRA-LIGAND FREE ENERGY PREDICTED BY IDOCK:   -0.16 KCAL/MOL
REMARK 927      BINDING AFFINITY PREDICTED BY RF-SCORE:    0.00 PKD
ROOT
HETATM    1  C   UNL     1     -11.596  14.709  68.335  1.00  0.00    -0.323 C  
HETATM    2  N   UNL     1     -10.708  15.732  67.837  1.00  0.00    -0.293 NA 
HETATM    3  C   UNL     1     -11.083  17.055  67.855  1.00  0.00    -0.125 A  
HETATM    4  N   UNL     1     -10.122  17.842  67.447  1.00  0.00    -0.324 NA 
HETATM    5  C   UNL     1      -9.066  16.995  67.166  1.00  0.00    -0.223 A  
HETATM    6  C   UNL     1      -9.409  15.655  67.378  1.00  0.00    -0.210 A  
HETATM    7  N   UNL     1      -7.797  17.590  66.789  1.00  0.00    -0.214 N  
HETATM    8  O   UNL     1      -7.710  18.824  66.816  1.00  0.00    -0.228 OA 
HETATM    9  O   UNL     1      -6.875  16.823  66.467  1.00  0.00    -0.220 OA 
ENDROOT
BRANCH   6  10
HETATM   10  S   UNL     1      -8.394  14.227  67.378  1.00  0.00    -0.202 SA 
BRANCH  10  11
HETATM   11  C   UNL     1      -9.376  12.805  66.981  1.00  0.00    -0.229 A  
HETATM   12  N   UNL     1      -9.407  11.736  67.808  1.00  0.00    -0.176 NA 
HETATM   13  C   UNL     1      -9.979  10.593  67.372  1.00  0.00    -0.181 A  
HETATM   14  N   UNL     1     -10.580  10.368  66.204  1.00  0.00    -0.144 NA 
HETATM   15  C   UNL     1     -10.532  11.430  65.384  1.00  0.00    -0.280 A  
HETATM   16  C   UNL     1      -9.923  12.629  65.717  1.00  0.00    -0.256 A  
HETATM   17  N   UNL     1      -9.994  13.366  64.560  1.00  0.00    -0.635 NA 
HETATM   18  H   UNL     1      -9.593  14.292  64.411  1.00  0.00     0.000 HD 
HETATM   19  C   UNL     1     -10.701  12.632  63.641  1.00  0.00    -0.372 A  
HETATM   20  N   UNL     1     -11.029  11.451  64.111  1.00  0.00    -0.359 NA 
ENDBRANCH  10  11
ENDBRANCH   6  10
TORSDOF 2
ENDMDL
MODEL      177
REMARK 921   NORMALIZED FREE ENERGY PREDICTED BY IDOCK:   -4.33 KCAL/MOL
REMARK 922        TOTAL FREE ENERGY PREDICTED BY IDOCK:   -5.15 KCAL/MOL
REMARK 923 INTER-LIGAND FREE ENERGY PREDICTED BY IDOCK:   -4.66 KCAL/MOL
REMARK 924 INTRA-LIGAND FREE ENERGY PREDICTED BY IDOCK:   -0.49 KCAL/MOL
REMARK 927      BINDING AFFINITY PREDICTED BY RF-SCORE:    0.00 PKD
ROOT
HETATM    1  C   UNL     1     -11.483   6.554  69.642  1.00  0.00    -0.352 C  
HETATM    2  N   UNL     1     -10.242   7.270  69.809  1.00  0.00    -0.205 NA 
HETATM    3  C   UNL     1      -9.214   6.728  70.546  1.00  0.00    -0.156 A  
HETATM    4  N   UNL     1      -8.142   7.477  70.515  1.00  0.00    -0.105 NA 
HETATM    5  C   UNL     1      -8.480   8.547  69.707  1.00  0.00    -0.129 A  
HETATM    6  C   UNL     1      -9.805   8.461  69.264  1.00  0.00    -0.186 A  
HETATM    7  N   UNL     1      -7.445   9.513  69.386  1.00  0.00    -0.082 N  
HETATM    8  O   UNL     1      -6.299   9.282  69.791  1.00  0.00    -0.038 OA 
HETATM    9  O   UNL     1      -7.774  10.509  68.722  1.00  0.00    -0.093 OA 
ENDROOT
BRANCH   6  10
HETATM   10  S   UNL     1     -10.651   9.423  68.069  1.00  0.00    -0.198 SA 
BRANCH  10  11
HETATM   11  C   UNL     1     -11.390  10.828  68.858  1.00  0.00    -0.284 A  
HETATM   12  N   UNL     1     -11.068  12.083  68.471  1.00  0.00    -0.226 NA 
HETATM   13  C   UNL     1     -11.472  13.122  69.234  1.00  0.00    -0.291 A  
HETATM   14  N   UNL     1     -12.210  13.089  70.343  1.00  0.00    -0.347 NA 
HETATM   15  C   UNL     1     -12.513  11.839  70.727  1.00  0.00    -0.312 A  
HETATM   16  C   UNL     1     -12.102  10.706  70.043  1.00  0.00    -0.316 A  
HETATM   17  N   UNL     1     -12.515   9.670  70.845  1.00  0.00    -0.439 NA 
HETATM   18  H   UNL     1     -12.335   8.679  70.688  1.00  0.00     0.000 HD 
HETATM   19  C   UNL     1     -13.213  10.209  71.896  1.00  0.00    -0.452 A  
HETATM   20  N   UNL     1     -13.217  11.522  71.854  1.00  0.00    -0.456 NA 
ENDBRANCH  10  11
ENDBRANCH   6  10
TORSDOF 2
ENDMDL
MODEL      178
REMARK 921   NORMALIZED FREE ENERGY PREDICTED BY IDOCK:   -4.31 KCAL/MOL
REMARK 922        TOTAL FREE ENERGY PREDICTED BY IDOCK:   -5.13 KCAL/MOL
REMARK 923 INTER-LIGAND FREE ENERGY PREDICTED BY IDOCK:   -5.01 KCAL/MOL
REMARK 924 INTRA-LIGAND FREE ENERGY PREDICTED BY IDOCK:   -0.12 KCAL/MOL
REMARK 927      BINDING AFFINITY PREDICTED BY RF-SCORE:    0.00 PKD
ROOT
HETATM    1  C   UNL     1      -9.488   8.060  68.574  1.00  0.00    -0.142 C  
HETATM    2  N   UNL     1     -10.272   8.868  69.477  1.00  0.00    -0.199 NA 
HETATM    3  C   UNL     1     -10.220  10.241  69.413  1.00  0.00    -0.235 A  
HETATM    4  N   UNL     1     -11.058  10.801  70.245  1.00  0.00    -0.241 NA 
HETATM    5  C   UNL     1     -11.698   9.746  70.869  1.00  0.00    -0.347 A  
HETATM    6  C   UNL     1     -11.209   8.512  70.426  1.00  0.00    -0.211 A  
HETATM    7  N   UNL     1     -12.781  10.051  71.786  1.00  0.00    -0.412 N  
HETATM    8  O   UNL     1     -13.122  11.235  71.898  1.00  0.00    -0.493 OA 
HETATM    9  O   UNL     1     -13.301   9.104  72.398  1.00  0.00    -0.434 OA 
ENDROOT
BRANCH   6  10
HETATM   10  S   UNL     1     -11.811   6.895  70.730  1.00  0.00    -0.363 SA 
BRANCH  10  11
HETATM   11  C   UNL     1     -10.950   6.195  72.113  1.00  0.00    -0.262 A  
HETATM   12  N   UNL     1     -11.405   5.070  72.709  1.00  0.00    -0.229 NA 
HETATM   13  C   UNL     1     -10.861   4.694  73.887  1.00  0.00    -0.291 A  
HETATM   14  N   UNL     1      -9.868   5.277  74.557  1.00  0.00    -0.184 NA 
HETATM   15  C   UNL     1      -9.432   6.400  73.966  1.00  0.00    -0.182 A  
HETATM   16  C   UNL     1      -9.959   6.898  72.784  1.00  0.00    -0.171 A  
HETATM   17  N   UNL     1      -9.321   8.103  72.623  1.00  0.00    -0.244 NA 
HETATM   18  H   UNL     1      -9.498   8.784  71.884  1.00  0.00     0.000 HD 
HETATM   19  C   UNL     1      -8.401   8.227  73.634  1.00  0.00    -0.192 A  
HETATM   20  N   UNL     1      -8.457   7.214  74.468  1.00  0.00    -0.181 NA 
ENDBRANCH  10  11
ENDBRANCH   6  10
TORSDOF 2
ENDMDL
MODEL      179
REMARK 921   NORMALIZED FREE ENERGY PREDICTED BY IDOCK:   -4.30 KCAL/MOL
REMARK 922        TOTAL FREE ENERGY PREDICTED BY IDOCK:   -5.12 KCAL/MOL
REMARK 923 INTER-LIGAND FREE ENERGY PREDICTED BY IDOCK:   -4.73 KCAL/MOL
REMARK 924 INTRA-LIGAND FREE ENERGY PREDICTED BY IDOCK:   -0.39 KCAL/MOL
REMARK 927      BINDING AFFINITY PREDICTED BY RF-SCORE:    0.00 PKD
ROOT
HETATM    1  C   UNL     1     -12.930  14.068  65.184  1.00  0.00    -0.223 C  
HETATM    2  N   UNL     1     -12.140  12.955  64.716  1.00  0.00    -0.396 NA 
HETATM    3  C   UNL     1     -11.925  12.766  63.370  1.00  0.00    -0.535 A  
HETATM    4  N   UNL     1     -11.118  11.763  63.140  1.00  0.00    -0.251 NA 
HETATM    5  C   UNL     1     -10.778  11.287  64.392  1.00  0.00    -0.339 A  
HETATM    6  C   UNL     1     -11.423  12.001  65.408  1.00  0.00    -0.305 A  
HETATM    7  N   UNL     1      -9.791  10.225  64.473  1.00  0.00    -0.329 N  
HETATM    8  O   UNL     1      -9.254   9.859  63.420  1.00  0.00    -0.260 OA 
HETATM    9  O   UNL     1      -9.545   9.753  65.595  1.00  0.00    -0.223 OA 
ENDROOT
BRANCH   6  10
HETATM   10  S   UNL     1     -11.180  11.946  67.142  1.00  0.00    -0.331 SA 
BRANCH  10  11
HETATM   11  C   UNL     1     -10.005  13.188  67.613  1.00  0.00    -0.219 A  
HETATM   12  N   UNL     1     -10.115  14.452  67.146  1.00  0.00    -0.251 NA 
HETATM   13  C   UNL     1      -9.088  15.308  67.341  1.00  0.00    -0.192 A  
HETATM   14  N   UNL     1      -7.946  15.087  67.992  1.00  0.00    -0.124 NA 
HETATM   15  C   UNL     1      -7.841  13.826  68.441  1.00  0.00    -0.143 A  
HETATM   16  C   UNL     1      -8.815  12.860  68.247  1.00  0.00    -0.168 A  
HETATM   17  N   UNL     1      -8.242  11.713  68.742  1.00  0.00    -0.312 NA 
HETATM   18  H   UNL     1      -8.649  10.778  68.716  1.00  0.00     0.000 HD 
HETATM   19  C   UNL     1      -7.025  12.052  69.277  1.00  0.00    -0.028 A  
HETATM   20  N   UNL     1      -6.753  13.324  69.097  1.00  0.00    -0.105 NA 
ENDBRANCH  10  11
ENDBRANCH   6  10
TORSDOF 2
ENDMDL
MODEL      180
REMARK 921   NORMALIZED FREE ENERGY PREDICTED BY IDOCK:   -4.29 KCAL/MOL
REMARK 922        TOTAL FREE ENERGY PREDICTED BY IDOCK:   -5.11 KCAL/MOL
REMARK 923 INTER-LIGAND FREE ENERGY PREDICTED BY IDOCK:   -4.37 KCAL/MOL
REMARK 924 INTRA-LIGAND FREE ENERGY PREDICTED BY IDOCK:   -0.74 KCAL/MOL
REMARK 927      BINDING AFFINITY PREDICTED BY RF-SCORE:    0.00 PKD
ROOT
HETATM    1  C   UNL     1      -6.719   9.233  70.597  1.00  0.00    -0.085 C  
HETATM    2  N   UNL     1      -7.568   8.473  71.481  1.00  0.00    -0.101 NA 
HETATM    3  C   UNL     1      -7.291   8.398  72.827  1.00  0.00    -0.068 A  
HETATM    4  N   UNL     1      -8.213   7.741  73.481  1.00  0.00    -0.163 NA 
HETATM    5  C   UNL     1      -9.143   7.386  72.521  1.00  0.00    -0.140 A  
HETATM    6  C   UNL     1      -8.756   7.810  71.245  1.00  0.00    -0.132 A  
HETATM    7  N   UNL     1     -10.360   6.729  72.962  1.00  0.00    -0.209 N  
HETATM    8  O   UNL     1     -10.531   6.595  74.180  1.00  0.00    -0.353 OA 
HETATM    9  O   UNL     1     -11.156   6.348  72.089  1.00  0.00    -0.238 OA 
ENDROOT
BRANCH   6  10
HETATM   10  S   UNL     1      -9.657   7.806  69.743  1.00  0.00    -0.167 SA 
BRANCH  10  11
HETATM   11  C   UNL     1     -10.493   9.358  69.551  1.00  0.00    -0.218 A  
HETATM   12  N   UNL     1     -10.002  10.307  68.723  1.00  0.00    -0.171 NA 
HETATM   13  C   UNL     1     -10.532  11.549  68.772  1.00  0.00    -0.204 A  
HETATM   14  N   UNL     1     -11.543  11.982  69.524  1.00  0.00    -0.313 NA 
HETATM   15  C   UNL     1     -12.015  11.037  70.352  1.00  0.00    -0.368 A  
HETATM   16  C   UNL     1     -11.505   9.750  70.416  1.00  0.00    -0.280 A  
HETATM   17  N   UNL     1     -12.182   9.181  71.468  1.00  0.00    -0.328 NA 
HETATM   18  H   UNL     1     -12.028   8.247  71.848  1.00  0.00     0.000 HD 
HETATM   19  C   UNL     1     -13.104  10.094  71.914  1.00  0.00    -0.466 A  
HETATM   20  N   UNL     1     -13.015  11.231  71.263  1.00  0.00    -0.370 NA 
ENDBRANCH  10  11
ENDBRANCH   6  10
TORSDOF 2
ENDMDL
MODEL      181
REMARK 921   NORMALIZED FREE ENERGY PREDICTED BY IDOCK:   -4.29 KCAL/MOL
REMARK 922        TOTAL FREE ENERGY PREDICTED BY IDOCK:   -5.11 KCAL/MOL
REMARK 923 INTER-LIGAND FREE ENERGY PREDICTED BY IDOCK:   -4.46 KCAL/MOL
REMARK 924 INTRA-LIGAND FREE ENERGY PREDICTED BY IDOCK:   -0.65 KCAL/MOL
REMARK 927      BINDING AFFINITY PREDICTED BY RF-SCORE:    0.00 PKD
ROOT
HETATM    1  C   UNL     1      -6.859   7.308  68.386  1.00  0.00    -0.073 C  
HETATM    2  N   UNL     1      -7.840   7.446  69.435  1.00  0.00    -0.119 NA 
HETATM    3  C   UNL     1      -7.463   7.820  70.704  1.00  0.00    -0.070 A  
HETATM    4  N   UNL     1      -8.493   7.977  71.494  1.00  0.00    -0.113 NA 
HETATM    5  C   UNL     1      -9.593   7.709  70.701  1.00  0.00    -0.163 A  
HETATM    6  C   UNL     1      -9.217   7.347  69.402  1.00  0.00    -0.145 A  
HETATM    7  N   UNL     1     -10.911   7.909  71.274  1.00  0.00    -0.235 N  
HETATM    8  O   UNL     1     -10.975   8.381  72.416  1.00  0.00    -0.339 OA 
HETATM    9  O   UNL     1     -11.893   7.597  70.581  1.00  0.00    -0.251 OA 
ENDROOT
BRANCH   6  10
HETATM   10  S   UNL     1     -10.204   7.122  67.973  1.00  0.00    -0.195 SA 
BRANCH  10  11
HETATM   11  C   UNL     1     -10.376   8.669  67.124  1.00  0.00    -0.299 A  
HETATM   12  N   UNL     1      -9.702   8.903  65.976  1.00  0.00    -0.261 NA 
HETATM   13  C   UNL     1      -9.679  10.159  65.480  1.00  0.00    -0.281 A  
HETATM   14  N   UNL     1     -10.287  11.243  65.961  1.00  0.00    -0.245 NA 
HETATM   15  C   UNL     1     -10.942  11.005  67.108  1.00  0.00    -0.283 A  
HETATM   16  C   UNL     1     -10.982   9.764  67.724  1.00  0.00    -0.180 A  
HETATM   17  N   UNL     1     -11.633  10.007  68.909  1.00  0.00    -0.498 NA 
HETATM   18  H   UNL     1     -11.798   9.331  69.654  1.00  0.00     0.000 HD 
HETATM   19  C   UNL     1     -12.024  11.322  68.908  1.00  0.00    -0.310 A  
HETATM   20  N   UNL     1     -11.608  11.952  67.834  1.00  0.00    -0.399 NA 
ENDBRANCH  10  11
ENDBRANCH   6  10
TORSDOF 2
ENDMDL
MODEL      182
REMARK 921   NORMALIZED FREE ENERGY PREDICTED BY IDOCK:   -4.29 KCAL/MOL
REMARK 922        TOTAL FREE ENERGY PREDICTED BY IDOCK:   -5.11 KCAL/MOL
REMARK 923 INTER-LIGAND FREE ENERGY PREDICTED BY IDOCK:   -4.46 KCAL/MOL
REMARK 924 INTRA-LIGAND FREE ENERGY PREDICTED BY IDOCK:   -0.65 KCAL/MOL
REMARK 927      BINDING AFFINITY PREDICTED BY RF-SCORE:    0.00 PKD
ROOT
HETATM    1  C   UNL     1      -7.772   6.718  71.473  1.00  0.00    -0.096 C  
HETATM    2  N   UNL     1      -8.024   7.162  70.123  1.00  0.00    -0.112 NA 
HETATM    3  C   UNL     1      -6.980   7.441  69.271  1.00  0.00    -0.065 A  
HETATM    4  N   UNL     1      -7.398   7.745  68.070  1.00  0.00    -0.099 NA 
HETATM    5  C   UNL     1      -8.775   7.644  68.136  1.00  0.00    -0.122 A  
HETATM    6  C   UNL     1      -9.205   7.302  69.423  1.00  0.00    -0.148 A  
HETATM    7  N   UNL     1      -9.531   7.819  66.910  1.00  0.00    -0.175 N  
HETATM    8  O   UNL     1      -8.895   7.971  65.860  1.00  0.00    -0.160 OA 
HETATM    9  O   UNL     1     -10.770   7.799  66.991  1.00  0.00    -0.347 OA 
ENDROOT
BRANCH   6  10
HETATM   10  S   UNL     1     -10.801   6.846  69.986  1.00  0.00    -0.278 SA 
BRANCH  10  11
HETATM   11  C   UNL     1     -11.523   8.200  70.874  1.00  0.00    -0.271 A  
HETATM   12  N   UNL     1     -12.184   7.988  72.034  1.00  0.00    -0.316 NA 
HETATM   13  C   UNL     1     -12.908   8.998  72.563  1.00  0.00    -0.338 A  
HETATM   14  N   UNL     1     -13.038  10.243  72.106  1.00  0.00    -0.410 NA 
HETATM   15  C   UNL     1     -12.390  10.440  70.948  1.00  0.00    -0.381 A  
HETATM   16  C   UNL     1     -11.664   9.455  70.298  1.00  0.00    -0.083 A  
HETATM   17  N   UNL     1     -11.294  10.046  69.115  1.00  0.00    -0.428 NA 
HETATM   18  H   UNL     1     -10.790   9.598  68.350  1.00  0.00     0.000 HD 
HETATM   19  C   UNL     1     -11.724  11.349  69.147  1.00  0.00    -0.342 A  
HETATM   20  N   UNL     1     -12.401  11.610  70.241  1.00  0.00    -0.285 NA 
ENDBRANCH  10  11
ENDBRANCH   6  10
TORSDOF 2
ENDMDL
MODEL      183
REMARK 921   NORMALIZED FREE ENERGY PREDICTED BY IDOCK:   -4.28 KCAL/MOL
REMARK 922        TOTAL FREE ENERGY PREDICTED BY IDOCK:   -5.10 KCAL/MOL
REMARK 923 INTER-LIGAND FREE ENERGY PREDICTED BY IDOCK:   -4.70 KCAL/MOL
REMARK 924 INTRA-LIGAND FREE ENERGY PREDICTED BY IDOCK:   -0.41 KCAL/MOL
REMARK 927      BINDING AFFINITY PREDICTED BY RF-SCORE:    0.00 PKD
ROOT
HETATM    1  C   UNL     1     -11.383  14.769  67.661  1.00  0.00    -0.339 C  
HETATM    2  N   UNL     1     -11.711  13.942  68.797  1.00  0.00    -0.334 NA 
HETATM    3  C   UNL     1     -12.179  14.504  69.962  1.00  0.00    -0.342 A  
HETATM    4  N   UNL     1     -12.503  13.597  70.847  1.00  0.00    -0.364 NA 
HETATM    5  C   UNL     1     -12.251  12.389  70.225  1.00  0.00    -0.267 A  
HETATM    6  C   UNL     1     -11.727  12.569  68.940  1.00  0.00    -0.322 A  
HETATM    7  N   UNL     1     -12.619  11.172  70.926  1.00  0.00    -0.381 N  
HETATM    8  O   UNL     1     -13.210  11.288  72.007  1.00  0.00    -0.506 OA 
HETATM    9  O   UNL     1     -12.323  10.090  70.394  1.00  0.00    -0.229 OA 
ENDROOT
BRANCH   6  10
HETATM   10  S   UNL     1     -11.441  11.393  67.673  1.00  0.00    -0.239 SA 
BRANCH  10  11
HETATM   11  C   UNL     1      -9.702  11.074  67.545  1.00  0.00    -0.172 A  
HETATM   12  N   UNL     1      -8.802  11.959  68.027  1.00  0.00    -0.170 NA 
HETATM   13  C   UNL     1      -7.498  11.795  67.715  1.00  0.00    -0.117 A  
HETATM   14  N   UNL     1      -6.941  10.818  67.000  1.00  0.00    -0.093 NA 
HETATM   15  C   UNL     1      -7.843   9.951  66.514  1.00  0.00    -0.110 A  
HETATM   16  C   UNL     1      -9.207  10.062  66.733  1.00  0.00    -0.148 A  
HETATM   17  N   UNL     1      -9.746   9.064  65.958  1.00  0.00    -0.334 NA 
HETATM   18  H   UNL     1     -10.739   8.877  65.823  1.00  0.00     0.000 HD 
HETATM   19  C   UNL     1      -8.707   8.363  65.399  1.00  0.00    -0.141 A  
HETATM   20  N   UNL     1      -7.544   8.888  65.711  1.00  0.00    -0.089 NA 
ENDBRANCH  10  11
ENDBRANCH   6  10
TORSDOF 2
ENDMDL
MODEL      184
REMARK 921   NORMALIZED FREE ENERGY PREDICTED BY IDOCK:   -4.28 KCAL/MOL
REMARK 922        TOTAL FREE ENERGY PREDICTED BY IDOCK:   -5.10 KCAL/MOL
REMARK 923 INTER-LIGAND FREE ENERGY PREDICTED BY IDOCK:   -4.64 KCAL/MOL
REMARK 924 INTRA-LIGAND FREE ENERGY PREDICTED BY IDOCK:   -0.46 KCAL/MOL
REMARK 927      BINDING AFFINITY PREDICTED BY RF-SCORE:    0.00 PKD
ROOT
HETATM    1  C   UNL     1      -8.046   8.300  68.372  1.00  0.00    -0.127 C  
HETATM    2  N   UNL     1      -8.619   7.117  68.967  1.00  0.00    -0.129 NA 
HETATM    3  C   UNL     1      -8.658   5.930  68.271  1.00  0.00    -0.113 A  
HETATM    4  N   UNL     1      -9.131   4.952  68.998  1.00  0.00    -0.106 NA 
HETATM    5  C   UNL     1      -9.399   5.522  70.228  1.00  0.00    -0.154 A  
HETATM    6  C   UNL     1      -9.111   6.891  70.237  1.00  0.00    -0.153 A  
HETATM    7  N   UNL     1      -9.842   4.650  71.301  1.00  0.00    -0.181 N  
HETATM    8  O   UNL     1      -9.879   3.435  71.075  1.00  0.00    -0.169 OA 
HETATM    9  O   UNL     1     -10.150   5.179  72.382  1.00  0.00    -0.173 OA 
ENDROOT
BRANCH   6  10
HETATM   10  S   UNL     1      -9.067   8.018  71.578  1.00  0.00    -0.154 SA 
BRANCH  10  11
HETATM   11  C   UNL     1     -10.601   8.902  71.657  1.00  0.00    -0.352 A  
HETATM   12  N   UNL     1     -11.633   8.425  72.389  1.00  0.00    -0.384 NA 
HETATM   13  C   UNL     1     -12.848   8.999  72.249  1.00  0.00    -0.406 A  
HETATM   14  N   UNL     1     -13.183  10.040  71.487  1.00  0.00    -0.395 NA 
HETATM   15  C   UNL     1     -12.156  10.498  70.754  1.00  0.00    -0.370 A  
HETATM   16  C   UNL     1     -10.885   9.946  70.787  1.00  0.00    -0.317 A  
HETATM   17  N   UNL     1     -10.206  10.626  69.805  1.00  0.00    -0.436 NA 
HETATM   18  H   UNL     1      -9.249  10.448  69.502  1.00  0.00     0.000 HD 
HETATM   19  C   UNL     1     -11.048  11.588  69.306  1.00  0.00    -0.246 A  
HETATM   20  N   UNL     1     -12.239  11.524  69.856  1.00  0.00    -0.279 NA 
ENDBRANCH  10  11
ENDBRANCH   6  10
TORSDOF 2
ENDMDL
MODEL      185
REMARK 921   NORMALIZED FREE ENERGY PREDICTED BY IDOCK:   -4.28 KCAL/MOL
REMARK 922        TOTAL FREE ENERGY PREDICTED BY IDOCK:   -5.10 KCAL/MOL
REMARK 923 INTER-LIGAND FREE ENERGY PREDICTED BY IDOCK:   -4.75 KCAL/MOL
REMARK 924 INTRA-LIGAND FREE ENERGY PREDICTED BY IDOCK:   -0.35 KCAL/MOL
REMARK 927      BINDING AFFINITY PREDICTED BY RF-SCORE:    0.00 PKD
ROOT
HETATM    1  C   UNL     1      -7.465  10.541  68.355  1.00  0.00    -0.092 C  
HETATM    2  N   UNL     1      -8.643  10.159  69.095  1.00  0.00    -0.154 NA 
HETATM    3  C   UNL     1      -8.533   9.490  70.293  1.00  0.00    -0.207 A  
HETATM    4  N   UNL     1      -9.696   9.305  70.859  1.00  0.00    -0.275 NA 
HETATM    5  C   UNL     1     -10.606   9.893  70.000  1.00  0.00    -0.288 A  
HETATM    6  C   UNL     1      -9.979  10.420  68.866  1.00  0.00    -0.199 A  
HETATM    7  N   UNL     1     -11.997   9.948  70.413  1.00  0.00    -0.232 N  
HETATM    8  O   UNL     1     -12.276   9.534  71.545  1.00  0.00    -0.336 OA 
HETATM    9  O   UNL     1     -12.819  10.412  69.606  1.00  0.00    -0.078 OA 
ENDROOT
BRANCH   6  10
HETATM   10  S   UNL     1     -10.630  11.439  67.598  1.00  0.00    -0.214 SA 
BRANCH  10  11
HETATM   11  C   UNL     1     -10.835  13.089  68.212  1.00  0.00    -0.246 A  
HETATM   12  N   UNL     1     -11.607  13.330  69.294  1.00  0.00    -0.297 NA 
HETATM   13  C   UNL     1     -11.921  14.609  69.597  1.00  0.00    -0.323 A  
HETATM   14  N   UNL     1     -11.527  15.720  68.977  1.00  0.00    -0.367 NA 
HETATM   15  C   UNL     1     -10.772  15.471  67.895  1.00  0.00    -0.294 A  
HETATM   16  C   UNL     1     -10.438  14.194  67.472  1.00  0.00    -0.249 A  
HETATM   17  N   UNL     1      -9.785  14.404  66.282  1.00  0.00    -0.299 NA 
HETATM   18  H   UNL     1      -9.440  13.682  65.649  1.00  0.00     0.000 HD 
HETATM   19  C   UNL     1      -9.679  15.760  66.097  1.00  0.00    -0.322 A  
HETATM   20  N   UNL     1     -10.279  16.429  67.055  1.00  0.00    -0.278 NA 
ENDBRANCH  10  11
ENDBRANCH   6  10
TORSDOF 2
ENDMDL
MODEL      186
REMARK 921   NORMALIZED FREE ENERGY PREDICTED BY IDOCK:   -4.28 KCAL/MOL
REMARK 922        TOTAL FREE ENERGY PREDICTED BY IDOCK:   -5.10 KCAL/MOL
REMARK 923 INTER-LIGAND FREE ENERGY PREDICTED BY IDOCK:   -4.70 KCAL/MOL
REMARK 924 INTRA-LIGAND FREE ENERGY PREDICTED BY IDOCK:   -0.41 KCAL/MOL
REMARK 927      BINDING AFFINITY PREDICTED BY RF-SCORE:    0.00 PKD
ROOT
HETATM    1  C   UNL     1      -8.899   7.670  66.039  1.00  0.00    -0.155 C  
HETATM    2  N   UNL     1      -9.571   8.930  66.243  1.00  0.00    -0.240 NA 
HETATM    3  C   UNL     1      -9.572   9.892  65.259  1.00  0.00    -0.295 A  
HETATM    4  N   UNL     1     -10.300  10.927  65.588  1.00  0.00    -0.254 NA 
HETATM    5  C   UNL     1     -10.811  10.620  66.836  1.00  0.00    -0.205 A  
HETATM    6  C   UNL     1     -10.351   9.379  67.290  1.00  0.00    -0.260 A  
HETATM    7  N   UNL     1     -11.761  11.543  67.429  1.00  0.00    -0.226 N  
HETATM    8  O   UNL     1     -12.120  12.513  66.750  1.00  0.00    -0.546 OA 
HETATM    9  O   UNL     1     -12.158  11.298  68.580  1.00  0.00    -0.573 OA 
ENDROOT
BRANCH   6  10
HETATM   10  S   UNL     1     -10.852   8.441  68.682  1.00  0.00     0.174 SA 
BRANCH  10  11
HETATM   11  C   UNL     1      -9.758   8.766  70.038  1.00  0.00    -0.173 A  
HETATM   12  N   UNL     1      -8.519   9.261  69.820  1.00  0.00    -0.134 NA 
HETATM   13  C   UNL     1      -7.638   9.284  70.844  1.00  0.00    -0.104 A  
HETATM   14  N   UNL     1      -7.837   8.908  72.107  1.00  0.00    -0.358 NA 
HETATM   15  C   UNL     1      -9.064   8.404  72.311  1.00  0.00    -0.243 A  
HETATM   16  C   UNL     1     -10.021   8.290  71.315  1.00  0.00    -0.192 A  
HETATM   17  N   UNL     1     -11.051   7.616  71.926  1.00  0.00    -0.241 NA 
HETATM   18  H   UNL     1     -11.912   7.301  71.479  1.00  0.00     0.000 HD 
HETATM   19  C   UNL     1     -10.713   7.443  73.245  1.00  0.00    -0.391 A  
HETATM   20  N   UNL     1      -9.510   7.902  73.501  1.00  0.00    -0.280 NA 
ENDBRANCH  10  11
ENDBRANCH   6  10
TORSDOF 2
ENDMDL
MODEL      187
REMARK 921   NORMALIZED FREE ENERGY PREDICTED BY IDOCK:   -4.27 KCAL/MOL
REMARK 922        TOTAL FREE ENERGY PREDICTED BY IDOCK:   -5.09 KCAL/MOL
REMARK 923 INTER-LIGAND FREE ENERGY PREDICTED BY IDOCK:   -4.75 KCAL/MOL
REMARK 924 INTRA-LIGAND FREE ENERGY PREDICTED BY IDOCK:   -0.34 KCAL/MOL
REMARK 927      BINDING AFFINITY PREDICTED BY RF-SCORE:    0.00 PKD
ROOT
HETATM    1  C   UNL     1     -12.784  12.144  71.347  1.00  0.00    -0.263 C  
HETATM    2  N   UNL     1     -12.119  11.271  70.410  1.00  0.00    -0.360 NA 
HETATM    3  C   UNL     1     -11.403  11.789  69.356  1.00  0.00    -0.272 A  
HETATM    4  N   UNL     1     -10.801  10.855  68.667  1.00  0.00    -0.200 NA 
HETATM    5  C   UNL     1     -11.125   9.675  69.311  1.00  0.00    -0.118 A  
HETATM    6  C   UNL     1     -11.975   9.898  70.400  1.00  0.00    -0.195 A  
HETATM    7  N   UNL     1     -10.507   8.449  68.839  1.00  0.00    -0.213 N  
HETATM    8  O   UNL     1      -9.666   8.540  67.937  1.00  0.00    -0.152 OA 
HETATM    9  O   UNL     1     -10.859   7.385  69.375  1.00  0.00    -0.232 OA 
ENDROOT
BRANCH   6  10
HETATM   10  S   UNL     1     -12.500   8.794  71.655  1.00  0.00    -0.358 SA 
BRANCH  10  11
HETATM   11  C   UNL     1     -11.083   8.110  72.471  1.00  0.00    -0.377 A  
HETATM   12  N   UNL     1      -9.919   8.797  72.523  1.00  0.00    -0.183 NA 
HETATM   13  C   UNL     1      -8.807   8.160  72.950  1.00  0.00    -0.240 A  
HETATM   14  N   UNL     1      -8.695   6.905  73.385  1.00  0.00    -0.124 NA 
HETATM   15  C   UNL     1      -9.851   6.227  73.317  1.00  0.00    -0.168 A  
HETATM   16  C   UNL     1     -11.034   6.774  72.846  1.00  0.00    -0.263 A  
HETATM   17  N   UNL     1     -11.904   5.711  72.830  1.00  0.00    -0.544 NA 
HETATM   18  H   UNL     1     -12.863   5.724  72.485  1.00  0.00     0.000 HD 
HETATM   19  C   UNL     1     -11.250   4.629  73.363  1.00  0.00    -0.338 A  
HETATM   20  N   UNL     1     -10.001   4.912  73.655  1.00  0.00    -0.151 NA 
ENDBRANCH  10  11
ENDBRANCH   6  10
TORSDOF 2
ENDMDL
MODEL      188
REMARK 921   NORMALIZED FREE ENERGY PREDICTED BY IDOCK:   -4.23 KCAL/MOL
REMARK 922        TOTAL FREE ENERGY PREDICTED BY IDOCK:   -5.04 KCAL/MOL
REMARK 923 INTER-LIGAND FREE ENERGY PREDICTED BY IDOCK:   -4.73 KCAL/MOL
REMARK 924 INTRA-LIGAND FREE ENERGY PREDICTED BY IDOCK:   -0.32 KCAL/MOL
REMARK 927      BINDING AFFINITY PREDICTED BY RF-SCORE:    0.00 PKD
ROOT
HETATM    1  C   UNL     1      -8.430   8.167  70.692  1.00  0.00    -0.128 C  
HETATM    2  N   UNL     1      -9.827   8.393  70.972  1.00  0.00    -0.179 NA 
HETATM    3  C   UNL     1     -10.411   9.608  70.696  1.00  0.00    -0.312 A  
HETATM    4  N   UNL     1     -11.697   9.598  70.934  1.00  0.00    -0.310 NA 
HETATM    5  C   UNL     1     -11.968   8.315  71.370  1.00  0.00    -0.299 A  
HETATM    6  C   UNL     1     -10.807   7.535  71.430  1.00  0.00    -0.229 A  
HETATM    7  N   UNL     1     -13.353   7.956  71.614  1.00  0.00    -0.342 N  
HETATM    8  O   UNL     1     -14.220   8.796  71.344  1.00  0.00    -0.368 OA 
HETATM    9  O   UNL     1     -13.581   6.826  72.075  1.00  0.00    -0.188 OA 
ENDROOT
BRANCH   6  10
HETATM   10  S   UNL     1     -10.628   5.814  71.705  1.00  0.00    -0.252 SA 
BRANCH  10  11
HETATM   11  C   UNL     1     -10.138   5.022  70.196  1.00  0.00    -0.268 A  
HETATM   12  N   UNL     1      -9.224   4.026  70.207  1.00  0.00    -0.124 NA 
HETATM   13  C   UNL     1      -8.711   3.602  69.031  1.00  0.00    -0.092 A  
HETATM   14  N   UNL     1      -9.019   4.017  67.803  1.00  0.00    -0.116 NA 
HETATM   15  C   UNL     1      -9.916   5.016  67.803  1.00  0.00    -0.147 A  
HETATM   16  C   UNL     1     -10.463   5.555  68.957  1.00  0.00    -0.226 A  
HETATM   17  N   UNL     1     -11.210   6.614  68.501  1.00  0.00    -0.554 NA 
HETATM   18  H   UNL     1     -11.717   7.285  69.079  1.00  0.00     0.000 HD 
HETATM   19  C   UNL     1     -11.154   6.606  67.130  1.00  0.00    -0.357 A  
HETATM   20  N   UNL     1     -10.367   5.654  66.682  1.00  0.00    -0.237 NA 
ENDBRANCH  10  11
ENDBRANCH   6  10
TORSDOF 2
ENDMDL
MODEL      189
REMARK 921   NORMALIZED FREE ENERGY PREDICTED BY IDOCK:   -4.23 KCAL/MOL
REMARK 922        TOTAL FREE ENERGY PREDICTED BY IDOCK:   -5.04 KCAL/MOL
REMARK 923 INTER-LIGAND FREE ENERGY PREDICTED BY IDOCK:   -5.30 KCAL/MOL
REMARK 924 INTRA-LIGAND FREE ENERGY PREDICTED BY IDOCK:    0.26 KCAL/MOL
REMARK 927      BINDING AFFINITY PREDICTED BY RF-SCORE:    0.00 PKD
ROOT
HETATM    1  C   UNL     1     -10.188  10.439  64.909  1.00  0.00    -0.260 C  
HETATM    2  N   UNL     1     -10.751  11.715  64.540  1.00  0.00    -0.304 NA 
HETATM    3  C   UNL     1     -11.755  11.793  63.603  1.00  0.00    -0.415 A  
HETATM    4  N   UNL     1     -12.198  13.015  63.462  1.00  0.00    -0.681 NA 
HETATM    5  C   UNL     1     -11.461  13.766  64.359  1.00  0.00    -0.372 A  
HETATM    6  C   UNL     1     -10.522  12.982  65.039  1.00  0.00    -0.328 A  
HETATM    7  N   UNL     1     -11.803  15.168  64.516  1.00  0.00    -0.388 N  
HETATM    8  O   UNL     1     -12.784  15.593  63.896  1.00  0.00    -0.697 OA 
HETATM    9  O   UNL     1     -11.090  15.852  65.269  1.00  0.00    -0.320 OA 
ENDROOT
BRANCH   6  10
HETATM   10  S   UNL     1      -9.506  13.387  66.407  1.00  0.00    -0.172 SA 
BRANCH  10  11
HETATM   11  C   UNL     1      -9.088  11.908  67.291  1.00  0.00    -0.178 A  
HETATM   12  N   UNL     1      -9.899  11.435  68.264  1.00  0.00    -0.194 NA 
HETATM   13  C   UNL     1      -9.445  10.445  69.063  1.00  0.00    -0.197 A  
HETATM   14  N   UNL     1      -8.275   9.810  69.002  1.00  0.00    -0.114 NA 
HETATM   15  C   UNL     1      -7.472  10.296  68.042  1.00  0.00    -0.087 A  
HETATM   16  C   UNL     1      -7.823  11.343  67.206  1.00  0.00    -0.149 A  
HETATM   17  N   UNL     1      -6.678  11.588  66.488  1.00  0.00    -0.337 NA 
HETATM   18  H   UNL     1      -6.543  12.336  65.807  1.00  0.00     0.000 HD 
HETATM   19  C   UNL     1      -5.749  10.646  66.850  1.00  0.00    -0.057 A  
HETATM   20  N   UNL     1      -6.201   9.858  67.798  1.00  0.00    -0.055 NA 
ENDBRANCH  10  11
ENDBRANCH   6  10
TORSDOF 2
ENDMDL
MODEL      190
REMARK 921   NORMALIZED FREE ENERGY PREDICTED BY IDOCK:   -4.23 KCAL/MOL
REMARK 922        TOTAL FREE ENERGY PREDICTED BY IDOCK:   -5.04 KCAL/MOL
REMARK 923 INTER-LIGAND FREE ENERGY PREDICTED BY IDOCK:   -4.34 KCAL/MOL
REMARK 924 INTRA-LIGAND FREE ENERGY PREDICTED BY IDOCK:   -0.70 KCAL/MOL
REMARK 927      BINDING AFFINITY PREDICTED BY RF-SCORE:    0.00 PKD
ROOT
HETATM    1  C   UNL     1     -11.148   7.276  72.921  1.00  0.00    -0.325 C  
HETATM    2  N   UNL     1     -11.592   8.404  72.140  1.00  0.00    -0.347 NA 
HETATM    3  C   UNL     1     -12.849   8.934  72.324  1.00  0.00    -0.411 A  
HETATM    4  N   UNL     1     -13.042  10.001  71.593  1.00  0.00    -0.414 NA 
HETATM    5  C   UNL     1     -11.852  10.185  70.913  1.00  0.00    -0.374 A  
HETATM    6  C   UNL     1     -10.924   9.183  71.216  1.00  0.00    -0.330 A  
HETATM    7  N   UNL     1     -11.715  11.372  70.089  1.00  0.00    -0.331 N  
HETATM    8  O   UNL     1     -12.642  12.191  70.103  1.00  0.00    -0.067 OA 
HETATM    9  O   UNL     1     -10.673  11.494  69.425  1.00  0.00    -0.179 OA 
ENDROOT
BRANCH   6  10
HETATM   10  S   UNL     1      -9.225   9.068  70.802  1.00  0.00    -0.262 SA 
BRANCH  10  11
HETATM   11  C   UNL     1      -9.025   7.959  69.433  1.00  0.00    -0.145 A  
HETATM   12  N   UNL     1      -8.357   6.793  69.584  1.00  0.00    -0.131 NA 
HETATM   13  C   UNL     1      -8.030   6.085  68.480  1.00  0.00    -0.107 A  
HETATM   14  N   UNL     1      -8.319   6.364  67.210  1.00  0.00    -0.112 NA 
HETATM   15  C   UNL     1      -8.969   7.530  67.069  1.00  0.00    -0.130 A  
HETATM   16  C   UNL     1      -9.304   8.353  68.132  1.00  0.00    -0.133 A  
HETATM   17  N   UNL     1      -9.825   9.472  67.529  1.00  0.00    -0.159 NA 
HETATM   18  H   UNL     1     -10.130  10.323  68.000  1.00  0.00     0.000 HD 
HETATM   19  C   UNL     1      -9.863   9.238  66.177  1.00  0.00    -0.293 A  
HETATM   20  N   UNL     1      -9.339   8.073  65.871  1.00  0.00    -0.088 NA 
ENDBRANCH  10  11
ENDBRANCH   6  10
TORSDOF 2
ENDMDL
MODEL      191
REMARK 921   NORMALIZED FREE ENERGY PREDICTED BY IDOCK:   -4.23 KCAL/MOL
REMARK 922        TOTAL FREE ENERGY PREDICTED BY IDOCK:   -5.04 KCAL/MOL
REMARK 923 INTER-LIGAND FREE ENERGY PREDICTED BY IDOCK:   -4.66 KCAL/MOL
REMARK 924 INTRA-LIGAND FREE ENERGY PREDICTED BY IDOCK:   -0.38 KCAL/MOL
REMARK 927      BINDING AFFINITY PREDICTED BY RF-SCORE:    0.00 PKD
ROOT
HETATM    1  C   UNL     1     -11.907  11.935  68.667  1.00  0.00    -0.308 C  
HETATM    2  N   UNL     1     -11.733  13.283  68.184  1.00  0.00    -0.342 NA 
HETATM    3  C   UNL     1     -11.959  14.359  69.011  1.00  0.00    -0.307 A  
HETATM    4  N   UNL     1     -11.669  15.493  68.430  1.00  0.00    -0.356 NA 
HETATM    5  C   UNL     1     -11.217  15.141  67.172  1.00  0.00    -0.320 A  
HETATM    6  C   UNL     1     -11.267  13.757  66.974  1.00  0.00    -0.311 A  
HETATM    7  N   UNL     1     -10.707  16.194  66.311  1.00  0.00    -0.261 N  
HETATM    8  O   UNL     1     -10.635  17.335  66.782  1.00  0.00    -0.286 OA 
HETATM    9  O   UNL     1     -10.372  15.881  65.157  1.00  0.00    -0.473 OA 
ENDROOT
BRANCH   6  10
HETATM   10  S   UNL     1     -10.621  12.789  65.664  1.00  0.00    -0.280 SA 
BRANCH  10  11
HETATM   11  C   UNL     1      -9.176  11.927  66.222  1.00  0.00    -0.214 A  
HETATM   12  N   UNL     1      -8.215  12.574  66.919  1.00  0.00    -0.121 NA 
HETATM   13  C   UNL     1      -7.036  11.951  67.132  1.00  0.00    -0.142 A  
HETATM   14  N   UNL     1      -6.681  10.718  66.771  1.00  0.00    -0.101 NA 
HETATM   15  C   UNL     1      -7.636  10.089  66.068  1.00  0.00    -0.111 A  
HETATM   16  C   UNL     1      -8.858  10.661  65.752  1.00  0.00    -0.184 A  
HETATM   17  N   UNL     1      -9.452   9.734  64.930  1.00  0.00    -0.323 NA 
HETATM   18  H   UNL     1     -10.347   9.838  64.454  1.00  0.00     0.000 HD 
HETATM   19  C   UNL     1      -8.623   8.641  64.866  1.00  0.00    -0.135 A  
HETATM   20  N   UNL     1      -7.511   8.836  65.537  1.00  0.00    -0.085 NA 
ENDBRANCH  10  11
ENDBRANCH   6  10
TORSDOF 2
ENDMDL
MODEL      192
REMARK 921   NORMALIZED FREE ENERGY PREDICTED BY IDOCK:   -4.21 KCAL/MOL
REMARK 922        TOTAL FREE ENERGY PREDICTED BY IDOCK:   -5.03 KCAL/MOL
REMARK 923 INTER-LIGAND FREE ENERGY PREDICTED BY IDOCK:   -4.63 KCAL/MOL
REMARK 924 INTRA-LIGAND FREE ENERGY PREDICTED BY IDOCK:   -0.40 KCAL/MOL
REMARK 927      BINDING AFFINITY PREDICTED BY RF-SCORE:    0.00 PKD
ROOT
HETATM    1  C   UNL     1     -11.079   6.759  67.726  1.00  0.00    -0.201 C  
HETATM    2  N   UNL     1      -9.817   7.275  68.197  1.00  0.00    -0.145 NA 
HETATM    3  C   UNL     1      -8.687   6.490  68.179  1.00  0.00    -0.117 A  
HETATM    4  N   UNL     1      -7.626   7.151  68.561  1.00  0.00    -0.112 NA 
HETATM    5  C   UNL     1      -8.079   8.430  68.824  1.00  0.00    -0.121 A  
HETATM    6  C   UNL     1      -9.461   8.537  68.628  1.00  0.00    -0.143 A  
HETATM    7  N   UNL     1      -7.099   9.443  69.169  1.00  0.00    -0.061 N  
HETATM    8  O   UNL     1      -5.905   9.123  69.132  1.00  0.00    -0.036 OA 
HETATM    9  O   UNL     1      -7.521  10.570  69.475  1.00  0.00    -0.127 OA 
ENDROOT
BRANCH   6  10
HETATM   10  S   UNL     1     -10.482   9.961  68.615  1.00  0.00    -0.215 SA 
BRANCH  10  11
HETATM   11  C   UNL     1     -11.453  10.005  70.097  1.00  0.00    -0.277 A  
HETATM   12  N   UNL     1     -11.896   8.861  70.665  1.00  0.00    -0.192 NA 
HETATM   13  C   UNL     1     -12.813   8.940  71.655  1.00  0.00    -0.349 A  
HETATM   14  N   UNL     1     -13.337  10.035  72.204  1.00  0.00    -0.431 NA 
HETATM   15  C   UNL     1     -12.902  11.165  71.625  1.00  0.00    -0.419 A  
HETATM   16  C   UNL     1     -12.004  11.189  70.570  1.00  0.00    -0.380 A  
HETATM   17  N   UNL     1     -11.948  12.515  70.217  1.00  0.00    -0.495 NA 
HETATM   18  H   UNL     1     -11.425  12.908  69.434  1.00  0.00     0.000 HD 
HETATM   19  C   UNL     1     -12.720  13.217  71.108  1.00  0.00    -0.320 A  
HETATM   20  N   UNL     1     -13.318  12.421  71.964  1.00  0.00    -0.486 NA 
ENDBRANCH  10  11
ENDBRANCH   6  10
TORSDOF 2
ENDMDL
MODEL      193
REMARK 921   NORMALIZED FREE ENERGY PREDICTED BY IDOCK:   -4.21 KCAL/MOL
REMARK 922        TOTAL FREE ENERGY PREDICTED BY IDOCK:   -5.02 KCAL/MOL
REMARK 923 INTER-LIGAND FREE ENERGY PREDICTED BY IDOCK:   -4.29 KCAL/MOL
REMARK 924 INTRA-LIGAND FREE ENERGY PREDICTED BY IDOCK:   -0.74 KCAL/MOL
REMARK 927      BINDING AFFINITY PREDICTED BY RF-SCORE:    0.00 PKD
ROOT
HETATM    1  C   UNL     1      -7.292  10.795  68.673  1.00  0.00    -0.097 C  
HETATM    2  N   UNL     1      -7.969   9.824  69.497  1.00  0.00    -0.121 NA 
HETATM    3  C   UNL     1      -7.342   9.275  70.593  1.00  0.00    -0.123 A  
HETATM    4  N   UNL     1      -8.137   8.483  71.264  1.00  0.00    -0.123 NA 
HETATM    5  C   UNL     1      -9.341   8.530  70.587  1.00  0.00    -0.174 A  
HETATM    6  C   UNL     1      -9.263   9.347  69.453  1.00  0.00    -0.165 A  
HETATM    7  N   UNL     1     -10.474   7.827  71.161  1.00  0.00    -0.208 N  
HETATM    8  O   UNL     1     -10.317   7.290  72.264  1.00  0.00    -0.201 OA 
HETATM    9  O   UNL     1     -11.531   7.813  70.510  1.00  0.00    -0.271 OA 
ENDROOT
BRANCH   6  10
HETATM   10  S   UNL     1     -10.537   9.909  68.389  1.00  0.00    -0.227 SA 
BRANCH  10  11
HETATM   11  C   UNL     1     -11.248  11.392  69.051  1.00  0.00    -0.256 A  
HETATM   12  N   UNL     1     -10.783  12.605  68.677  1.00  0.00    -0.245 NA 
HETATM   13  C   UNL     1     -11.189  13.696  69.363  1.00  0.00    -0.196 A  
HETATM   14  N   UNL     1     -12.054  13.755  70.375  1.00  0.00    -0.342 NA 
HETATM   15  C   UNL     1     -12.500  12.546  70.748  1.00  0.00    -0.268 A  
HETATM   16  C   UNL     1     -12.103  11.363  70.144  1.00  0.00    -0.357 A  
HETATM   17  N   UNL     1     -12.690  10.389  70.914  1.00  0.00    -0.361 NA 
HETATM   18  H   UNL     1     -12.573   9.382  70.803  1.00  0.00     0.000 HD 
HETATM   19  C   UNL     1     -13.462  11.013  71.861  1.00  0.00    -0.195 A  
HETATM   20  N   UNL     1     -13.355  12.321  71.789  1.00  0.00    -0.356 NA 
ENDBRANCH  10  11
ENDBRANCH   6  10
TORSDOF 2
ENDMDL
MODEL      194
REMARK 921   NORMALIZED FREE ENERGY PREDICTED BY IDOCK:   -4.21 KCAL/MOL
REMARK 922        TOTAL FREE ENERGY PREDICTED BY IDOCK:   -5.02 KCAL/MOL
REMARK 923 INTER-LIGAND FREE ENERGY PREDICTED BY IDOCK:   -4.69 KCAL/MOL
REMARK 924 INTRA-LIGAND FREE ENERGY PREDICTED BY IDOCK:   -0.33 KCAL/MOL
REMARK 927      BINDING AFFINITY PREDICTED BY RF-SCORE:    0.00 PKD
ROOT
HETATM    1  C   UNL     1     -11.544  11.225  67.568  1.00  0.00    -0.175 C  
HETATM    2  N   UNL     1     -11.333  12.381  66.731  1.00  0.00    -0.314 NA 
HETATM    3  C   UNL     1     -12.281  12.760  65.808  1.00  0.00    -0.408 A  
HETATM    4  N   UNL     1     -11.958  13.874  65.205  1.00  0.00    -0.365 NA 
HETATM    5  C   UNL     1     -10.753  14.248  65.771  1.00  0.00    -0.305 A  
HETATM    6  C   UNL     1     -10.318  13.316  66.720  1.00  0.00    -0.257 A  
HETATM    7  N   UNL     1     -10.182  15.523  65.379  1.00  0.00    -0.374 N  
HETATM    8  O   UNL     1     -10.845  16.240  64.619  1.00  0.00    -0.687 OA 
HETATM    9  O   UNL     1      -9.065  15.818  65.835  1.00  0.00    -0.337 OA 
ENDROOT
BRANCH   6  10
HETATM   10  S   UNL     1      -8.991  13.414  67.859  1.00  0.00    -0.211 SA 
BRANCH  10  11
HETATM   11  C   UNL     1      -8.006  11.945  67.748  1.00  0.00    -0.144 A  
HETATM   12  N   UNL     1      -7.286  11.681  66.634  1.00  0.00    -0.078 NA 
HETATM   13  C   UNL     1      -6.732  10.457  66.493  1.00  0.00    -0.099 A  
HETATM   14  N   UNL     1      -6.760   9.438  67.352  1.00  0.00    -0.068 NA 
HETATM   15  C   UNL     1      -7.488   9.704  68.448  1.00  0.00    -0.080 A  
HETATM   16  C   UNL     1      -8.139  10.909  68.662  1.00  0.00    -0.143 A  
HETATM   17  N   UNL     1      -8.852  10.696  69.817  1.00  0.00    -0.347 NA 
HETATM   18  H   UNL     1      -9.501  11.351  70.253  1.00  0.00     0.000 HD 
HETATM   19  C   UNL     1      -8.535   9.443  70.278  1.00  0.00    -0.212 A  
HETATM   20  N   UNL     1      -7.719   8.817  69.461  1.00  0.00    -0.087 NA 
ENDBRANCH  10  11
ENDBRANCH   6  10
TORSDOF 2
ENDMDL
MODEL      195
REMARK 921   NORMALIZED FREE ENERGY PREDICTED BY IDOCK:   -4.20 KCAL/MOL
REMARK 922        TOTAL FREE ENERGY PREDICTED BY IDOCK:   -5.01 KCAL/MOL
REMARK 923 INTER-LIGAND FREE ENERGY PREDICTED BY IDOCK:   -4.94 KCAL/MOL
REMARK 924 INTRA-LIGAND FREE ENERGY PREDICTED BY IDOCK:   -0.07 KCAL/MOL
REMARK 927      BINDING AFFINITY PREDICTED BY RF-SCORE:    0.00 PKD
ROOT
HETATM    1  C   UNL     1      -6.959  15.232  67.094  1.00  0.00    -0.002 C  
HETATM    2  N   UNL     1      -8.145  15.274  67.914  1.00  0.00    -0.133 NA 
HETATM    3  C   UNL     1      -8.547  16.449  68.507  1.00  0.00    -0.223 A  
HETATM    4  N   UNL     1      -9.684  16.315  69.137  1.00  0.00    -0.261 NA 
HETATM    5  C   UNL     1     -10.051  14.998  68.932  1.00  0.00    -0.234 A  
HETATM    6  C   UNL     1      -9.091  14.306  68.185  1.00  0.00    -0.193 A  
HETATM    7  N   UNL     1     -11.346  14.566  69.426  1.00  0.00    -0.266 N  
HETATM    8  O   UNL     1     -12.081  15.422  69.934  1.00  0.00    -0.330 OA 
HETATM    9  O   UNL     1     -11.637  13.365  69.303  1.00  0.00    -0.274 OA 
ENDROOT
BRANCH   6  10
HETATM   10  S   UNL     1      -9.165  12.705  67.477  1.00  0.00    -0.199 SA 
BRANCH  10  11
HETATM   11  C   UNL     1     -10.325  12.705  66.137  1.00  0.00    -0.256 A  
HETATM   12  N   UNL     1     -10.572  11.573  65.440  1.00  0.00    -0.275 NA 
HETATM   13  C   UNL     1     -11.282  11.657  64.294  1.00  0.00    -0.319 A  
HETATM   14  N   UNL     1     -11.834  12.740  63.747  1.00  0.00    -0.458 NA 
HETATM   15  C   UNL     1     -11.572  13.860  64.438  1.00  0.00    -0.382 A  
HETATM   16  C   UNL     1     -10.810  13.887  65.595  1.00  0.00    -0.292 A  
HETATM   17  N   UNL     1     -10.693  15.226  65.880  1.00  0.00    -0.322 NA 
HETATM   18  H   UNL     1     -10.147  15.634  66.638  1.00  0.00     0.000 HD 
HETATM   19  C   UNL     1     -11.443  15.915  64.961  1.00  0.00    -0.079 A  
HETATM   20  N   UNL     1     -11.977  15.112  64.069  1.00  0.00    -0.441 NA 
ENDBRANCH  10  11
ENDBRANCH   6  10
TORSDOF 2
ENDMDL
MODEL      196
REMARK 921   NORMALIZED FREE ENERGY PREDICTED BY IDOCK:   -4.19 KCAL/MOL
REMARK 922        TOTAL FREE ENERGY PREDICTED BY IDOCK:   -5.00 KCAL/MOL
REMARK 923 INTER-LIGAND FREE ENERGY PREDICTED BY IDOCK:   -4.58 KCAL/MOL
REMARK 924 INTRA-LIGAND FREE ENERGY PREDICTED BY IDOCK:   -0.42 KCAL/MOL
REMARK 927      BINDING AFFINITY PREDICTED BY RF-SCORE:    0.00 PKD
ROOT
HETATM    1  C   UNL     1     -13.354   9.326  72.397  1.00  0.00    -0.449 C  
HETATM    2  N   UNL     1     -12.461   9.742  71.344  1.00  0.00    -0.359 NA 
HETATM    3  C   UNL     1     -12.874  10.641  70.388  1.00  0.00    -0.207 A  
HETATM    4  N   UNL     1     -11.907  10.965  69.570  1.00  0.00    -0.312 NA 
HETATM    5  C   UNL     1     -10.808  10.258  70.022  1.00  0.00    -0.307 A  
HETATM    6  C   UNL     1     -11.128   9.458  71.125  1.00  0.00    -0.362 A  
HETATM    7  N   UNL     1      -9.532  10.495  69.373  1.00  0.00    -0.179 N  
HETATM    8  O   UNL     1      -9.484  11.373  68.503  1.00  0.00    -0.182 OA 
HETATM    9  O   UNL     1      -8.566   9.803  69.735  1.00  0.00    -0.169 OA 
ENDROOT
BRANCH   6  10
HETATM   10  S   UNL     1     -10.075   8.548  72.190  1.00  0.00    -0.319 SA 
BRANCH  10  11
HETATM   11  C   UNL     1      -9.946   6.878  71.608  1.00  0.00    -0.171 A  
HETATM   12  N   UNL     1      -9.822   6.617  70.288  1.00  0.00    -0.174 NA 
HETATM   13  C   UNL     1      -9.953   5.341  69.863  1.00  0.00    -0.239 A  
HETATM   14  N   UNL     1     -10.155   4.247  70.597  1.00  0.00    -0.148 NA 
HETATM   15  C   UNL     1     -10.291   4.518  71.905  1.00  0.00    -0.128 A  
HETATM   16  C   UNL     1     -10.226   5.798  72.433  1.00  0.00    -0.190 A  
HETATM   17  N   UNL     1     -10.544   5.622  73.758  1.00  0.00    -0.270 NA 
HETATM   18  H   UNL     1     -10.652   6.360  74.454  1.00  0.00     0.000 HD 
HETATM   19  C   UNL     1     -10.691   4.275  73.977  1.00  0.00    -0.254 A  
HETATM   20  N   UNL     1     -10.554   3.585  72.868  1.00  0.00    -0.156 NA 
ENDBRANCH  10  11
ENDBRANCH   6  10
TORSDOF 2
ENDMDL
MODEL      197
REMARK 921   NORMALIZED FREE ENERGY PREDICTED BY IDOCK:   -4.19 KCAL/MOL
REMARK 922        TOTAL FREE ENERGY PREDICTED BY IDOCK:   -4.99 KCAL/MOL
REMARK 923 INTER-LIGAND FREE ENERGY PREDICTED BY IDOCK:   -4.33 KCAL/MOL
REMARK 924 INTRA-LIGAND FREE ENERGY PREDICTED BY IDOCK:   -0.66 KCAL/MOL
REMARK 927      BINDING AFFINITY PREDICTED BY RF-SCORE:    0.00 PKD
ROOT
HETATM    1  C   UNL     1      -7.374  10.113  70.101  1.00  0.00    -0.147 C  
HETATM    2  N   UNL     1      -7.700   9.208  69.026  1.00  0.00    -0.077 NA 
HETATM    3  C   UNL     1      -8.038   7.900  69.289  1.00  0.00    -0.126 A  
HETATM    4  N   UNL     1      -8.383   7.257  68.205  1.00  0.00    -0.124 NA 
HETATM    5  C   UNL     1      -8.283   8.191  67.191  1.00  0.00    -0.120 A  
HETATM    6  C   UNL     1      -7.831   9.426  67.669  1.00  0.00    -0.095 A  
HETATM    7  N   UNL     1      -8.713   7.801  65.860  1.00  0.00    -0.155 N  
HETATM    8  O   UNL     1      -9.218   6.680  65.725  1.00  0.00    -0.049 OA 
HETATM    9  O   UNL     1      -8.551   8.620  64.941  1.00  0.00    -0.179 OA 
ENDROOT
BRANCH   6  10
HETATM   10  S   UNL     1      -7.737  10.975  66.857  1.00  0.00    -0.146 SA 
BRANCH  10  11
HETATM   11  C   UNL     1      -9.372  11.613  66.611  1.00  0.00    -0.194 A  
HETATM   12  N   UNL     1     -10.209  11.786  67.658  1.00  0.00    -0.197 NA 
HETATM   13  C   UNL     1     -11.510  12.057  67.413  1.00  0.00    -0.336 A  
HETATM   14  N   UNL     1     -12.106  12.225  66.233  1.00  0.00    -0.620 NA 
HETATM   15  C   UNL     1     -11.271  12.038  65.199  1.00  0.00    -0.315 A  
HETATM   16  C   UNL     1      -9.933  11.706  65.344  1.00  0.00    -0.250 A  
HETATM   17  N   UNL     1      -9.508  11.487  64.057  1.00  0.00    -0.425 NA 
HETATM   18  H   UNL     1      -8.581  11.166  63.775  1.00  0.00     0.000 HD 
HETATM   19  C   UNL     1     -10.553  11.778  63.216  1.00  0.00    -0.368 A  
HETATM   20  N   UNL     1     -11.636  12.103  63.884  1.00  0.00    -0.411 NA 
ENDBRANCH  10  11
ENDBRANCH   6  10
TORSDOF 2
ENDMDL
MODEL      198
REMARK 921   NORMALIZED FREE ENERGY PREDICTED BY IDOCK:   -4.18 KCAL/MOL
REMARK 922        TOTAL FREE ENERGY PREDICTED BY IDOCK:   -4.99 KCAL/MOL
REMARK 923 INTER-LIGAND FREE ENERGY PREDICTED BY IDOCK:   -4.31 KCAL/MOL
REMARK 924 INTRA-LIGAND FREE ENERGY PREDICTED BY IDOCK:   -0.68 KCAL/MOL
REMARK 927      BINDING AFFINITY PREDICTED BY RF-SCORE:    0.00 PKD
ROOT
HETATM    1  C   UNL     1      -8.004   7.683  68.190  1.00  0.00    -0.123 C  
HETATM    2  N   UNL     1      -8.656   6.773  69.100  1.00  0.00    -0.131 NA 
HETATM    3  C   UNL     1      -8.693   5.423  68.835  1.00  0.00    -0.097 A  
HETATM    4  N   UNL     1      -9.247   4.749  69.809  1.00  0.00    -0.112 NA 
HETATM    5  C   UNL     1      -9.572   5.700  70.759  1.00  0.00    -0.169 A  
HETATM    6  C   UNL     1      -9.235   6.990  70.334  1.00  0.00    -0.156 A  
HETATM    7  N   UNL     1     -10.113   5.241  72.025  1.00  0.00    -0.187 N  
HETATM    8  O   UNL     1     -10.180   4.020  72.212  1.00  0.00    -0.180 OA 
HETATM    9  O   UNL     1     -10.470   6.103  72.844  1.00  0.00    -0.197 OA 
ENDROOT
BRANCH   6  10
HETATM   10  S   UNL     1      -9.236   8.498  71.225  1.00  0.00    -0.222 SA 
BRANCH  10  11
HETATM   11  C   UNL     1     -10.673   9.440  70.791  1.00  0.00    -0.305 A  
HETATM   12  N   UNL     1     -10.574  10.508  69.968  1.00  0.00    -0.228 NA 
HETATM   13  C   UNL     1     -11.638  11.331  69.839  1.00  0.00    -0.334 A  
HETATM   14  N   UNL     1     -12.840  11.213  70.402  1.00  0.00    -0.165 NA 
HETATM   15  C   UNL     1     -12.926  10.158  71.227  1.00  0.00    -0.413 A  
HETATM   16  C   UNL     1     -11.875   9.286  71.468  1.00  0.00    -0.374 A  
HETATM   17  N   UNL     1     -12.355   8.459  72.454  1.00  0.00    -0.468 NA 
HETATM   18  H   UNL     1     -11.834   7.720  72.926  1.00  0.00     0.000 HD 
HETATM   19  C   UNL     1     -13.663   8.803  72.688  1.00  0.00    -0.293 A  
HETATM   20  N   UNL     1     -14.029   9.837  71.966  1.00  0.00    -0.160 NA 
ENDBRANCH  10  11
ENDBRANCH   6  10
TORSDOF 2
ENDMDL
MODEL      199
REMARK 921   NORMALIZED FREE ENERGY PREDICTED BY IDOCK:   -4.18 KCAL/MOL
REMARK 922        TOTAL FREE ENERGY PREDICTED BY IDOCK:   -4.99 KCAL/MOL
REMARK 923 INTER-LIGAND FREE ENERGY PREDICTED BY IDOCK:   -4.40 KCAL/MOL
REMARK 924 INTRA-LIGAND FREE ENERGY PREDICTED BY IDOCK:   -0.59 KCAL/MOL
REMARK 927      BINDING AFFINITY PREDICTED BY RF-SCORE:    0.00 PKD
ROOT
HETATM    1  C   UNL     1     -10.750  17.210  67.717  1.00  0.00    -0.329 C  
HETATM    2  N   UNL     1      -9.577  16.405  67.952  1.00  0.00    -0.227 NA 
HETATM    3  C   UNL     1      -8.679  16.745  68.938  1.00  0.00    -0.224 A  
HETATM    4  N   UNL     1      -7.729  15.856  69.062  1.00  0.00    -0.195 NA 
HETATM    5  C   UNL     1      -8.028  14.883  68.127  1.00  0.00    -0.130 A  
HETATM    6  C   UNL     1      -9.174  15.209  67.392  1.00  0.00    -0.193 A  
HETATM    7  N   UNL     1      -7.203  13.689  68.096  1.00  0.00    -0.102 N  
HETATM    8  O   UNL     1      -6.325  13.576  68.961  1.00  0.00    -0.088 OA 
HETATM    9  O   UNL     1      -7.432  12.854  67.206  1.00  0.00    -0.147 OA 
ENDROOT
BRANCH   6  10
HETATM   10  S   UNL     1     -10.089  14.239  66.257  1.00  0.00    -0.309 SA 
BRANCH  10  11
HETATM   11  C   UNL     1     -10.857  12.891  67.115  1.00  0.00    -0.256 A  
HETATM   12  N   UNL     1     -11.619  13.117  68.209  1.00  0.00    -0.312 NA 
HETATM   13  C   UNL     1     -12.000  12.063  68.964  1.00  0.00    -0.264 A  
HETATM   14  N   UNL     1     -11.755  10.770  68.753  1.00  0.00    -0.351 NA 
HETATM   15  C   UNL     1     -10.986  10.557  67.674  1.00  0.00    -0.314 A  
HETATM   16  C   UNL     1     -10.502  11.573  66.865  1.00  0.00    -0.235 A  
HETATM   17  N   UNL     1      -9.674  10.923  65.983  1.00  0.00    -0.214 NA 
HETATM   18  H   UNL     1      -9.094  11.362  65.268  1.00  0.00     0.000 HD 
HETATM   19  C   UNL     1      -9.768   9.577  66.235  1.00  0.00    -0.245 A  
HETATM   20  N   UNL     1     -10.548   9.330  67.263  1.00  0.00    -0.261 NA 
ENDBRANCH  10  11
ENDBRANCH   6  10
TORSDOF 2
ENDMDL
MODEL      200
REMARK 921   NORMALIZED FREE ENERGY PREDICTED BY IDOCK:   -4.17 KCAL/MOL
REMARK 922        TOTAL FREE ENERGY PREDICTED BY IDOCK:   -4.98 KCAL/MOL
REMARK 923 INTER-LIGAND FREE ENERGY PREDICTED BY IDOCK:   -4.44 KCAL/MOL
REMARK 924 INTRA-LIGAND FREE ENERGY PREDICTED BY IDOCK:   -0.54 KCAL/MOL
REMARK 927      BINDING AFFINITY PREDICTED BY RF-SCORE:    0.00 PKD
ROOT
HETATM    1  C   UNL     1     -12.195  13.697  66.586  1.00  0.00    -0.389 C  
HETATM    2  N   UNL     1     -10.981  14.150  67.220  1.00  0.00    -0.292 NA 
HETATM    3  C   UNL     1     -10.922  15.389  67.817  1.00  0.00    -0.311 A  
HETATM    4  N   UNL     1      -9.776  15.591  68.413  1.00  0.00    -0.200 NA 
HETATM    5  C   UNL     1      -9.060  14.425  68.210  1.00  0.00    -0.193 A  
HETATM    6  C   UNL     1      -9.781  13.505  67.441  1.00  0.00    -0.229 A  
HETATM    7  N   UNL     1      -7.766  14.299  68.855  1.00  0.00    -0.133 N  
HETATM    8  O   UNL     1      -7.412  15.209  69.614  1.00  0.00    -0.203 OA 
HETATM    9  O   UNL     1      -7.099  13.281  68.610  1.00  0.00    -0.095 OA 
ENDROOT
BRANCH   6  10
HETATM   10  S   UNL     1      -9.429  11.826  67.084  1.00  0.00    -0.178 SA 
BRANCH  10  11
HETATM   11  C   UNL     1      -9.511  10.874  68.577  1.00  0.00    -0.185 A  
HETATM   12  N   UNL     1      -8.599   9.909  68.829  1.00  0.00    -0.125 NA 
HETATM   13  C   UNL     1      -8.820   9.059  69.856  1.00  0.00    -0.158 A  
HETATM   14  N   UNL     1      -9.833   9.061  70.721  1.00  0.00    -0.221 NA 
HETATM   15  C   UNL     1     -10.741  10.014  70.455  1.00  0.00    -0.307 A  
HETATM   16  C   UNL     1     -10.633  10.900  69.394  1.00  0.00    -0.197 A  
HETATM   17  N   UNL     1     -11.819  11.592  69.423  1.00  0.00    -0.328 NA 
HETATM   18  H   UNL     1     -12.122  12.296  68.750  1.00  0.00     0.000 HD 
HETATM   19  C   UNL     1     -12.524  11.166  70.521  1.00  0.00    -0.327 A  
HETATM   20  N   UNL     1     -11.898  10.202  71.156  1.00  0.00    -0.371 NA 
ENDBRANCH  10  11
ENDBRANCH   6  10
TORSDOF 2
ENDMDL
MODEL      201
REMARK 921   NORMALIZED FREE ENERGY PREDICTED BY IDOCK:   -4.15 KCAL/MOL
REMARK 922        TOTAL FREE ENERGY PREDICTED BY IDOCK:   -4.96 KCAL/MOL
REMARK 923 INTER-LIGAND FREE ENERGY PREDICTED BY IDOCK:   -4.46 KCAL/MOL
REMARK 924 INTRA-LIGAND FREE ENERGY PREDICTED BY IDOCK:   -0.50 KCAL/MOL
REMARK 927      BINDING AFFINITY PREDICTED BY RF-SCORE:    0.00 PKD
ROOT
HETATM    1  C   UNL     1      -9.519  14.051  67.078  1.00  0.00    -0.250 C  
HETATM    2  N   UNL     1      -8.876  13.008  67.840  1.00  0.00    -0.183 NA 
HETATM    3  C   UNL     1      -7.565  13.137  68.238  1.00  0.00    -0.139 A  
HETATM    4  N   UNL     1      -7.181  12.138  68.988  1.00  0.00    -0.078 NA 
HETATM    5  C   UNL     1      -8.296  11.328  69.099  1.00  0.00     0.077 A  
HETATM    6  C   UNL     1      -9.376  11.834  68.367  1.00  0.00    -0.185 A  
HETATM    7  N   UNL     1      -8.216  10.174  69.976  1.00  0.00    -0.117 N  
HETATM    8  O   UNL     1      -7.179  10.024  70.634  1.00  0.00    -0.298 OA 
HETATM    9  O   UNL     1      -9.195   9.412  70.014  1.00  0.00    -0.184 OA 
ENDROOT
BRANCH   6  10
HETATM   10  S   UNL     1     -11.051  11.321  68.343  1.00  0.00    -0.267 SA 
BRANCH  10  11
HETATM   11  C   UNL     1     -11.836  11.795  69.861  1.00  0.00    -0.348 A  
HETATM   12  N   UNL     1     -12.642  10.931  70.518  1.00  0.00    -0.333 NA 
HETATM   13  C   UNL     1     -13.395  11.394  71.540  1.00  0.00    -0.083 A  
HETATM   14  N   UNL     1     -13.429  12.628  72.042  1.00  0.00    -0.484 NA 
HETATM   15  C   UNL     1     -12.636  13.481  71.375  1.00  0.00    -0.308 A  
HETATM   16  C   UNL     1     -11.865  13.117  70.282  1.00  0.00    -0.224 A  
HETATM   17  N   UNL     1     -11.333  14.305  69.845  1.00  0.00    -0.395 NA 
HETATM   18  H   UNL     1     -10.752  14.436  69.017  1.00  0.00     0.000 HD 
HETATM   19  C   UNL     1     -11.723  15.286  70.723  1.00  0.00    -0.337 A  
HETATM   20  N   UNL     1     -12.523  14.814  71.652  1.00  0.00    -0.319 NA 
ENDBRANCH  10  11
ENDBRANCH   6  10
TORSDOF 2
ENDMDL
MODEL      202
REMARK 921   NORMALIZED FREE ENERGY PREDICTED BY IDOCK:   -4.15 KCAL/MOL
REMARK 922        TOTAL FREE ENERGY PREDICTED BY IDOCK:   -4.96 KCAL/MOL
REMARK 923 INTER-LIGAND FREE ENERGY PREDICTED BY IDOCK:   -4.43 KCAL/MOL
REMARK 924 INTRA-LIGAND FREE ENERGY PREDICTED BY IDOCK:   -0.53 KCAL/MOL
REMARK 927      BINDING AFFINITY PREDICTED BY RF-SCORE:    0.00 PKD
ROOT
HETATM    1  C   UNL     1      -7.398   9.649  64.739  1.00  0.00    -0.119 C  
HETATM    2  N   UNL     1      -8.652  10.362  64.712  1.00  0.00    -0.179 NA 
HETATM    3  C   UNL     1      -9.373  10.470  63.545  1.00  0.00    -0.293 A  
HETATM    4  N   UNL     1     -10.518  11.072  63.731  1.00  0.00    -0.369 NA 
HETATM    5  C   UNL     1     -10.554  11.356  65.083  1.00  0.00    -0.293 A  
HETATM    6  C   UNL     1      -9.383  10.944  65.728  1.00  0.00    -0.203 A  
HETATM    7  N   UNL     1     -11.768  11.938  65.625  1.00  0.00    -0.243 N  
HETATM    8  O   UNL     1     -12.731  12.075  64.860  1.00  0.00    -0.413 OA 
HETATM    9  O   UNL     1     -11.767  12.257  66.825  1.00  0.00    -0.450 OA 
ENDROOT
BRANCH   6  10
HETATM   10  S   UNL     1      -9.013  10.873  67.439  1.00  0.00    -0.136 SA 
BRANCH  10  11
HETATM   11  C   UNL     1      -9.958   9.577  68.195  1.00  0.00    -0.165 A  
HETATM   12  N   UNL     1     -10.439   9.717  69.450  1.00  0.00    -0.209 NA 
HETATM   13  C   UNL     1     -10.955   8.635  70.073  1.00  0.00    -0.203 A  
HETATM   14  N   UNL     1     -11.102   7.401  69.591  1.00  0.00    -0.168 NA 
HETATM   15  C   UNL     1     -10.610   7.268  68.349  1.00  0.00    -0.170 A  
HETATM   16  C   UNL     1     -10.014   8.303  67.646  1.00  0.00    -0.190 A  
HETATM   17  N   UNL     1      -9.548   7.698  66.504  1.00  0.00    -0.282 NA 
HETATM   18  H   UNL     1      -9.000   8.143  65.768  1.00  0.00     0.000 HD 
HETATM   19  C   UNL     1      -9.954   6.387  66.530  1.00  0.00    -0.103 A  
HETATM   20  N   UNL     1     -10.589   6.098  67.643  1.00  0.00    -0.237 NA 
ENDBRANCH  10  11
ENDBRANCH   6  10
TORSDOF 2
ENDMDL
MODEL      203
REMARK 921   NORMALIZED FREE ENERGY PREDICTED BY IDOCK:   -4.15 KCAL/MOL
REMARK 922        TOTAL FREE ENERGY PREDICTED BY IDOCK:   -4.95 KCAL/MOL
REMARK 923 INTER-LIGAND FREE ENERGY PREDICTED BY IDOCK:   -4.41 KCAL/MOL
REMARK 924 INTRA-LIGAND FREE ENERGY PREDICTED BY IDOCK:   -0.54 KCAL/MOL
REMARK 927      BINDING AFFINITY PREDICTED BY RF-SCORE:    0.00 PKD
ROOT
HETATM    1  C   UNL     1      -7.844   9.083  70.486  1.00  0.00    -0.130 C  
HETATM    2  N   UNL     1      -9.255   9.286  70.704  1.00  0.00    -0.253 NA 
HETATM    3  C   UNL     1     -10.041   9.856  69.729  1.00  0.00    -0.242 A  
HETATM    4  N   UNL     1     -11.303   9.880  70.070  1.00  0.00    -0.254 NA 
HETATM    5  C   UNL     1     -11.345   9.284  71.317  1.00  0.00    -0.353 A  
HETATM    6  C   UNL     1     -10.068   8.919  71.758  1.00  0.00    -0.337 A  
HETATM    7  N   UNL     1     -12.646   9.062  71.922  1.00  0.00    -0.354 N  
HETATM    8  O   UNL     1     -13.647   9.349  71.254  1.00  0.00    -0.355 OA 
HETATM    9  O   UNL     1     -12.672   8.594  73.072  1.00  0.00    -0.242 OA 
ENDROOT
BRANCH   6  10
HETATM   10  S   UNL     1      -9.595   7.957  73.143  1.00  0.00    -0.279 SA 
BRANCH  10  11
HETATM   11  C   UNL     1     -10.071   6.269  72.880  1.00  0.00    -0.183 A  
HETATM   12  N   UNL     1     -10.506   5.508  73.909  1.00  0.00    -0.263 NA 
HETATM   13  C   UNL     1     -10.644   4.177  73.720  1.00  0.00    -0.223 A  
HETATM   14  N   UNL     1     -10.442   3.481  72.602  1.00  0.00    -0.142 NA 
HETATM   15  C   UNL     1      -9.997   4.242  71.590  1.00  0.00    -0.180 A  
HETATM   16  C   UNL     1      -9.774   5.606  71.698  1.00  0.00    -0.159 A  
HETATM   17  N   UNL     1      -9.209   5.942  70.491  1.00  0.00    -0.150 NA 
HETATM   18  H   UNL     1      -8.857   6.862  70.227  1.00  0.00     0.000 HD 
HETATM   19  C   UNL     1      -9.205   4.817  69.705  1.00  0.00    -0.122 A  
HETATM   20  N   UNL     1      -9.666   3.771  70.351  1.00  0.00    -0.189 NA 
ENDBRANCH  10  11
ENDBRANCH   6  10
TORSDOF 2
ENDMDL
MODEL      204
REMARK 921   NORMALIZED FREE ENERGY PREDICTED BY IDOCK:   -4.14 KCAL/MOL
REMARK 922        TOTAL FREE ENERGY PREDICTED BY IDOCK:   -4.95 KCAL/MOL
REMARK 923 INTER-LIGAND FREE ENERGY PREDICTED BY IDOCK:   -4.28 KCAL/MOL
REMARK 924 INTRA-LIGAND FREE ENERGY PREDICTED BY IDOCK:   -0.67 KCAL/MOL
REMARK 927      BINDING AFFINITY PREDICTED BY RF-SCORE:    0.00 PKD
ROOT
HETATM    1  C   UNL     1      -9.384   3.692  69.276  1.00  0.00    -0.175 C  
HETATM    2  N   UNL     1      -9.965   4.588  70.246  1.00  0.00    -0.233 NA 
HETATM    3  C   UNL     1      -9.710   4.430  71.588  1.00  0.00    -0.171 A  
HETATM    4  N   UNL     1     -10.249   5.382  72.304  1.00  0.00    -0.189 NA 
HETATM    5  C   UNL     1     -10.870   6.209  71.387  1.00  0.00    -0.265 A  
HETATM    6  C   UNL     1     -10.731   5.725  70.081  1.00  0.00    -0.320 A  
HETATM    7  N   UNL     1     -11.475   7.435  71.873  1.00  0.00    -0.258 N  
HETATM    8  O   UNL     1     -11.333   7.709  73.071  1.00  0.00    -0.372 OA 
HETATM    9  O   UNL     1     -12.093   8.135  71.055  1.00  0.00    -0.286 OA 
ENDROOT
BRANCH   6  10
HETATM   10  S   UNL     1     -11.135   6.487  68.556  1.00  0.00    -0.205 SA 
BRANCH  10  11
HETATM   11  C   UNL     1      -9.968   7.778  68.213  1.00  0.00    -0.178 A  
HETATM   12  N   UNL     1      -8.643   7.514  68.173  1.00  0.00    -0.124 NA 
HETATM   13  C   UNL     1      -7.776   8.550  68.134  1.00  0.00    -0.102 A  
HETATM   14  N   UNL     1      -8.053   9.853  68.088  1.00  0.00    -0.104 NA 
HETATM   15  C   UNL     1      -9.370  10.105  68.143  1.00  0.00    -0.135 A  
HETATM   16  C   UNL     1     -10.337   9.116  68.236  1.00  0.00    -0.214 A  
HETATM   17  N   UNL     1     -11.508   9.816  68.397  1.00  0.00    -0.487 NA 
HETATM   18  H   UNL     1     -12.432   9.414  68.557  1.00  0.00     0.000 HD 
HETATM   19  C   UNL     1     -11.212  11.152  68.303  1.00  0.00    -0.279 A  
HETATM   20  N   UNL     1      -9.922  11.355  68.161  1.00  0.00    -0.182 NA 
ENDBRANCH  10  11
ENDBRANCH   6  10
TORSDOF 2
ENDMDL
MODEL      205
REMARK 921   NORMALIZED FREE ENERGY PREDICTED BY IDOCK:   -4.13 KCAL/MOL
REMARK 922        TOTAL FREE ENERGY PREDICTED BY IDOCK:   -4.93 KCAL/MOL
REMARK 923 INTER-LIGAND FREE ENERGY PREDICTED BY IDOCK:   -4.48 KCAL/MOL
REMARK 924 INTRA-LIGAND FREE ENERGY PREDICTED BY IDOCK:   -0.46 KCAL/MOL
REMARK 927      BINDING AFFINITY PREDICTED BY RF-SCORE:    0.00 PKD
ROOT
HETATM    1  C   UNL     1     -11.711   6.099  72.282  1.00  0.00    -0.302 C  
HETATM    2  N   UNL     1     -10.322   6.474  72.177  1.00  0.00    -0.196 NA 
HETATM    3  C   UNL     1      -9.332   5.520  72.225  1.00  0.00    -0.145 A  
HETATM    4  N   UNL     1      -8.147   6.034  72.028  1.00  0.00    -0.107 NA 
HETATM    5  C   UNL     1      -8.374   7.383  71.826  1.00  0.00    -0.107 A  
HETATM    6  C   UNL     1      -9.732   7.699  71.937  1.00  0.00    -0.164 A  
HETATM    7  N   UNL     1      -7.242   8.219  71.468  1.00  0.00    -0.077 N  
HETATM    8  O   UNL     1      -6.152   7.663  71.288  1.00  0.00    -0.035 OA 
HETATM    9  O   UNL     1      -7.441   9.440  71.360  1.00  0.00    -0.335 OA 
ENDROOT
BRANCH   6  10
HETATM   10  S   UNL     1     -10.568   9.194  71.567  1.00  0.00    -0.337 SA 
BRANCH  10  11
HETATM   11  C   UNL     1     -10.807   9.318  69.815  1.00  0.00    -0.224 A  
HETATM   12  N   UNL     1     -10.406   8.323  68.993  1.00  0.00    -0.221 NA 
HETATM   13  C   UNL     1     -10.398   8.545  67.660  1.00  0.00    -0.253 A  
HETATM   14  N   UNL     1     -10.784   9.641  67.007  1.00  0.00    -0.200 NA 
HETATM   15  C   UNL     1     -11.168  10.628  67.831  1.00  0.00    -0.308 A  
HETATM   16  C   UNL     1     -11.163  10.518  69.213  1.00  0.00    -0.262 A  
HETATM   17  N   UNL     1     -11.495  11.779  69.644  1.00  0.00    -0.387 NA 
HETATM   18  H   UNL     1     -11.534  12.093  70.613  1.00  0.00     0.000 HD 
HETATM   19  C   UNL     1     -11.765  12.541  68.535  1.00  0.00    -0.324 A  
HETATM   20  N   UNL     1     -11.563  11.870  67.424  1.00  0.00    -0.490 NA 
ENDBRANCH  10  11
ENDBRANCH   6  10
TORSDOF 2
ENDMDL
MODEL      206
REMARK 921   NORMALIZED FREE ENERGY PREDICTED BY IDOCK:   -4.12 KCAL/MOL
REMARK 922        TOTAL FREE ENERGY PREDICTED BY IDOCK:   -4.92 KCAL/MOL
REMARK 923 INTER-LIGAND FREE ENERGY PREDICTED BY IDOCK:   -4.76 KCAL/MOL
REMARK 924 INTRA-LIGAND FREE ENERGY PREDICTED BY IDOCK:   -0.17 KCAL/MOL
REMARK 927      BINDING AFFINITY PREDICTED BY RF-SCORE:    0.00 PKD
ROOT
HETATM    1  C   UNL     1     -11.422  11.355  66.954  1.00  0.00    -0.119 C  
HETATM    2  N   UNL     1     -10.772  12.510  67.524  1.00  0.00    -0.222 NA 
HETATM    3  C   UNL     1      -9.858  13.233  66.793  1.00  0.00    -0.264 A  
HETATM    4  N   UNL     1      -9.441  14.290  67.439  1.00  0.00    -0.206 NA 
HETATM    5  C   UNL     1     -10.126  14.266  68.640  1.00  0.00    -0.238 A  
HETATM    6  C   UNL     1     -10.956  13.143  68.737  1.00  0.00    -0.262 A  
HETATM    7  N   UNL     1      -9.955  15.388  69.545  1.00  0.00    -0.255 N  
HETATM    8  O   UNL     1      -9.267  16.339  69.156  1.00  0.00    -0.251 OA 
HETATM    9  O   UNL     1     -10.515  15.324  70.651  1.00  0.00    -0.210 OA 
ENDROOT
BRANCH   6  10
HETATM   10  S   UNL     1     -12.175  12.753  69.933  1.00  0.00    -0.108 SA 
BRANCH  10  11
HETATM   11  C   UNL     1     -12.093  11.025  70.319  1.00  0.00    -0.362 A  
HETATM   12  N   UNL     1     -13.144  10.397  70.893  1.00  0.00    -0.379 NA 
HETATM   13  C   UNL     1     -12.969   9.147  71.375  1.00  0.00    -0.307 A  
HETATM   14  N   UNL     1     -11.870   8.395  71.328  1.00  0.00    -0.286 NA 
HETATM   15  C   UNL     1     -10.829   9.031  70.769  1.00  0.00    -0.251 A  
HETATM   16  C   UNL     1     -10.892  10.331  70.292  1.00  0.00    -0.286 A  
HETATM   17  N   UNL     1      -9.595  10.613  69.939  1.00  0.00    -0.349 NA 
HETATM   18  H   UNL     1      -9.246  11.508  69.596  1.00  0.00     0.000 HD 
HETATM   19  C   UNL     1      -8.853   9.474  70.128  1.00  0.00    -0.235 A  
HETATM   20  N   UNL     1      -9.575   8.505  70.642  1.00  0.00    -0.167 NA 
ENDBRANCH  10  11
ENDBRANCH   6  10
TORSDOF 2
ENDMDL
MODEL      207
REMARK 921   NORMALIZED FREE ENERGY PREDICTED BY IDOCK:   -4.12 KCAL/MOL
REMARK 922        TOTAL FREE ENERGY PREDICTED BY IDOCK:   -4.92 KCAL/MOL
REMARK 923 INTER-LIGAND FREE ENERGY PREDICTED BY IDOCK:   -4.52 KCAL/MOL
REMARK 924 INTRA-LIGAND FREE ENERGY PREDICTED BY IDOCK:   -0.40 KCAL/MOL
REMARK 927      BINDING AFFINITY PREDICTED BY RF-SCORE:    0.00 PKD
ROOT
HETATM    1  C   UNL     1      -6.082  13.835  70.136  1.00  0.00    -0.139 C  
HETATM    2  N   UNL     1      -6.169  15.209  69.705  1.00  0.00    -0.125 NA 
HETATM    3  C   UNL     1      -5.569  16.211  70.433  1.00  0.00    -0.141 A  
HETATM    4  N   UNL     1      -5.679  17.375  69.846  1.00  0.00    -0.228 NA 
HETATM    5  C   UNL     1      -6.367  17.118  68.674  1.00  0.00    -0.163 A  
HETATM    6  C   UNL     1      -6.713  15.766  68.565  1.00  0.00    -0.119 A  
HETATM    7  N   UNL     1      -6.552  18.212  67.739  1.00  0.00    -0.187 N  
HETATM    8  O   UNL     1      -6.016  19.294  68.008  1.00  0.00    -0.204 OA 
HETATM    9  O   UNL     1      -7.233  17.992  66.724  1.00  0.00    -0.189 OA 
ENDROOT
BRANCH   6  10
HETATM   10  S   UNL     1      -7.387  14.890  67.206  1.00  0.00    -0.043 SA 
BRANCH  10  11
HETATM   11  C   UNL     1      -9.155  14.872  67.333  1.00  0.00    -0.189 A  
HETATM   12  N   UNL     1      -9.761  15.063  68.526  1.00  0.00    -0.211 NA 
HETATM   13  C   UNL     1     -11.087  14.821  68.626  1.00  0.00    -0.262 A  
HETATM   14  N   UNL     1     -11.928  14.442  67.665  1.00  0.00    -0.370 NA 
HETATM   15  C   UNL     1     -11.315  14.241  66.488  1.00  0.00    -0.346 A  
HETATM   16  C   UNL     1      -9.953  14.411  66.295  1.00  0.00    -0.306 A  
HETATM   17  N   UNL     1      -9.748  13.977  65.008  1.00  0.00    -0.541 NA 
HETATM   18  H   UNL     1      -8.848  13.902  64.534  1.00  0.00     0.000 HD 
HETATM   19  C   UNL     1     -10.972  13.663  64.473  1.00  0.00    -0.396 A  
HETATM   20  N   UNL     1     -11.937  13.803  65.353  1.00  0.00    -0.358 NA 
ENDBRANCH  10  11
ENDBRANCH   6  10
TORSDOF 2
ENDMDL
MODEL      208
REMARK 921   NORMALIZED FREE ENERGY PREDICTED BY IDOCK:   -4.11 KCAL/MOL
REMARK 922        TOTAL FREE ENERGY PREDICTED BY IDOCK:   -4.91 KCAL/MOL
REMARK 923 INTER-LIGAND FREE ENERGY PREDICTED BY IDOCK:   -5.06 KCAL/MOL
REMARK 924 INTRA-LIGAND FREE ENERGY PREDICTED BY IDOCK:    0.15 KCAL/MOL
REMARK 927      BINDING AFFINITY PREDICTED BY RF-SCORE:    0.00 PKD
ROOT
HETATM    1  C   UNL     1      -9.664  16.850  66.949  1.00  0.00    -0.259 C  
HETATM    2  N   UNL     1     -10.519  16.066  66.092  1.00  0.00    -0.319 NA 
HETATM    3  C   UNL     1     -10.790  16.476  64.806  1.00  0.00    -0.127 A  
HETATM    4  N   UNL     1     -11.509  15.599  64.155  1.00  0.00    -0.272 NA 
HETATM    5  C   UNL     1     -11.703  14.564  65.050  1.00  0.00    -0.392 A  
HETATM    6  C   UNL     1     -11.113  14.835  66.289  1.00  0.00    -0.341 A  
HETATM    7  N   UNL     1     -12.385  13.373  64.577  1.00  0.00    -0.379 N  
HETATM    8  O   UNL     1     -12.686  13.321  63.378  1.00  0.00    -0.695 OA 
HETATM    9  O   UNL     1     -12.620  12.478  65.405  1.00  0.00    -0.656 OA 
ENDROOT
BRANCH   6  10
HETATM   10  S   UNL     1     -10.883  13.787  67.674  1.00  0.00    -0.257 SA 
BRANCH  10  11
HETATM   11  C   UNL     1      -9.156  13.690  68.062  1.00  0.00    -0.192 A  
HETATM   12  N   UNL     1      -8.540  14.701  68.715  1.00  0.00    -0.168 NA 
HETATM   13  C   UNL     1      -7.191  14.696  68.794  1.00  0.00    -0.124 A  
HETATM   14  N   UNL     1      -6.344  13.775  68.335  1.00  0.00    -0.089 NA 
HETATM   15  C   UNL     1      -6.964  12.783  67.676  1.00  0.00    -0.146 A  
HETATM   16  C   UNL     1      -8.337  12.724  67.495  1.00  0.00    -0.179 A  
HETATM   17  N   UNL     1      -8.512  11.638  66.672  1.00  0.00    -0.174 NA 
HETATM   18  H   UNL     1      -9.397  11.320  66.276  1.00  0.00     0.000 HD 
HETATM   19  C   UNL     1      -7.284  11.059  66.477  1.00  0.00    -0.143 A  
HETATM   20  N   UNL     1      -6.327  11.740  67.065  1.00  0.00    -0.147 NA 
ENDBRANCH  10  11
ENDBRANCH   6  10
TORSDOF 2
ENDMDL
MODEL      209
REMARK 921   NORMALIZED FREE ENERGY PREDICTED BY IDOCK:   -4.11 KCAL/MOL
REMARK 922        TOTAL FREE ENERGY PREDICTED BY IDOCK:   -4.91 KCAL/MOL
REMARK 923 INTER-LIGAND FREE ENERGY PREDICTED BY IDOCK:   -4.91 KCAL/MOL
REMARK 924 INTRA-LIGAND FREE ENERGY PREDICTED BY IDOCK:   -0.00 KCAL/MOL
REMARK 927      BINDING AFFINITY PREDICTED BY RF-SCORE:    0.00 PKD
ROOT
HETATM    1  C   UNL     1     -10.684  10.818  67.300  1.00  0.00    -0.274 C  
HETATM    2  N   UNL     1     -10.991  12.013  68.046  1.00  0.00    -0.210 NA 
HETATM    3  C   UNL     1     -12.111  12.074  68.844  1.00  0.00    -0.145 A  
HETATM    4  N   UNL     1     -12.179  13.198  69.507  1.00  0.00    -0.217 NA 
HETATM    5  C   UNL     1     -11.044  13.897  69.139  1.00  0.00    -0.245 A  
HETATM    6  C   UNL     1     -10.285  13.189  68.201  1.00  0.00    -0.239 A  
HETATM    7  N   UNL     1     -10.776  15.160  69.802  1.00  0.00    -0.271 N  
HETATM    8  O   UNL     1     -11.538  15.502  70.715  1.00  0.00    -0.299 OA 
HETATM    9  O   UNL     1      -9.795  15.815  69.415  1.00  0.00    -0.251 OA 
ENDROOT
BRANCH   6  10
HETATM   10  S   UNL     1      -8.680  13.520  67.581  1.00  0.00    -0.208 SA 
BRANCH  10  11
HETATM   11  C   UNL     1      -8.689  15.063  66.709  1.00  0.00    -0.260 A  
HETATM   12  N   UNL     1      -7.760  16.009  66.973  1.00  0.00    -0.206 NA 
HETATM   13  C   UNL     1      -7.929  17.247  66.460  1.00  0.00    -0.283 A  
HETATM   14  N   UNL     1      -8.904  17.679  65.661  1.00  0.00    -0.216 NA 
HETATM   15  C   UNL     1      -9.829  16.738  65.416  1.00  0.00     0.245 A  
HETATM   16  C   UNL     1      -9.774  15.455  65.938  1.00  0.00    -0.357 A  
HETATM   17  N   UNL     1     -10.964  14.891  65.546  1.00  0.00    -0.334 NA 
HETATM   18  H   UNL     1     -11.301  13.962  65.797  1.00  0.00     0.000 HD 
HETATM   19  C   UNL     1     -11.617  15.801  64.753  1.00  0.00    -0.173 A  
HETATM   20  N   UNL     1     -10.956  16.933  64.669  1.00  0.00    -0.963 NA 
ENDBRANCH  10  11
ENDBRANCH   6  10
TORSDOF 2
ENDMDL
MODEL      210
REMARK 921   NORMALIZED FREE ENERGY PREDICTED BY IDOCK:   -4.09 KCAL/MOL
REMARK 922        TOTAL FREE ENERGY PREDICTED BY IDOCK:   -4.89 KCAL/MOL
REMARK 923 INTER-LIGAND FREE ENERGY PREDICTED BY IDOCK:   -4.42 KCAL/MOL
REMARK 924 INTRA-LIGAND FREE ENERGY PREDICTED BY IDOCK:   -0.47 KCAL/MOL
REMARK 927      BINDING AFFINITY PREDICTED BY RF-SCORE:    0.00 PKD
ROOT
HETATM    1  C   UNL     1     -10.537  15.912  67.725  1.00  0.00    -0.302 C  
HETATM    2  N   UNL     1      -9.456  15.018  68.060  1.00  0.00    -0.191 NA 
HETATM    3  C   UNL     1      -8.215  15.512  68.392  1.00  0.00    -0.145 A  
HETATM    4  N   UNL     1      -7.390  14.563  68.747  1.00  0.00    -0.123 NA 
HETATM    5  C   UNL     1      -8.129  13.398  68.660  1.00  0.00    -0.040 A  
HETATM    6  C   UNL     1      -9.430  13.646  68.207  1.00  0.00    -0.213 A  
HETATM    7  N   UNL     1      -7.510  12.163  69.104  1.00  0.00     0.042 N  
HETATM    8  O   UNL     1      -6.383  12.234  69.608  1.00  0.00    -0.124 OA 
HETATM    9  O   UNL     1      -8.154  11.111  68.955  1.00  0.00    -0.144 OA 
ENDROOT
BRANCH   6  10
HETATM   10  S   UNL     1     -10.811  12.571  68.126  1.00  0.00    -0.234 SA 
BRANCH  10  11
HETATM   11  C   UNL     1     -10.953  11.914  66.485  1.00  0.00    -0.292 A  
HETATM   12  N   UNL     1     -10.284  10.794  66.132  1.00  0.00    -0.244 NA 
HETATM   13  C   UNL     1     -10.235  10.450  64.827  1.00  0.00    -0.249 A  
HETATM   14  N   UNL     1     -10.812  11.064  63.794  1.00  0.00    -0.260 NA 
HETATM   15  C   UNL     1     -11.462  12.182  64.152  1.00  0.00    -0.387 A  
HETATM   16  C   UNL     1     -11.526  12.647  65.456  1.00  0.00    -0.340 A  
HETATM   17  N   UNL     1     -12.160  13.860  65.340  1.00  0.00    -0.385 NA 
HETATM   18  H   UNL     1     -12.334  14.523  66.096  1.00  0.00     0.000 HD 
HETATM   19  C   UNL     1     -12.519  14.021  64.025  1.00  0.00    -0.190 A  
HETATM   20  N   UNL     1     -12.097  13.023  63.282  1.00  0.00    -0.597 NA 
ENDBRANCH  10  11
ENDBRANCH   6  10
TORSDOF 2
ENDMDL
MODEL      211
REMARK 921   NORMALIZED FREE ENERGY PREDICTED BY IDOCK:   -4.09 KCAL/MOL
REMARK 922        TOTAL FREE ENERGY PREDICTED BY IDOCK:   -4.89 KCAL/MOL
REMARK 923 INTER-LIGAND FREE ENERGY PREDICTED BY IDOCK:   -4.66 KCAL/MOL
REMARK 924 INTRA-LIGAND FREE ENERGY PREDICTED BY IDOCK:   -0.23 KCAL/MOL
REMARK 927      BINDING AFFINITY PREDICTED BY RF-SCORE:    0.00 PKD
ROOT
HETATM    1  C   UNL     1     -10.535   7.810  66.963  1.00  0.00    -0.349 C  
HETATM    2  N   UNL     1      -9.275   8.106  66.326  1.00  0.00    -0.187 NA 
HETATM    3  C   UNL     1      -8.201   7.258  66.468  1.00  0.00    -0.117 A  
HETATM    4  N   UNL     1      -7.176   7.643  65.753  1.00  0.00    -0.064 NA 
HETATM    5  C   UNL     1      -7.606   8.783  65.101  1.00  0.00    -0.096 A  
HETATM    6  C   UNL     1      -8.917   9.118  65.458  1.00  0.00    -0.205 A  
HETATM    7  N   UNL     1      -6.713   9.392  64.132  1.00  0.00    -0.092 N  
HETATM    8  O   UNL     1      -5.649   8.811  63.888  1.00  0.00    -0.064 OA 
HETATM    9  O   UNL     1      -7.076  10.457  63.606  1.00  0.00    -0.100 OA 
ENDROOT
BRANCH   6  10
HETATM   10  S   UNL     1      -9.991  10.322  64.774  1.00  0.00    -0.251 SA 
BRANCH  10  11
HETATM   11  C   UNL     1     -10.457  11.481  66.032  1.00  0.00    -0.252 A  
HETATM   12  N   UNL     1     -11.035  11.058  67.178  1.00  0.00    -0.283 NA 
HETATM   13  C   UNL     1     -11.578  11.975  68.009  1.00  0.00    -0.342 A  
HETATM   14  N   UNL     1     -11.591  13.300  67.874  1.00  0.00    -0.312 NA 
HETATM   15  C   UNL     1     -11.028  13.710  66.727  1.00  0.00    -0.292 A  
HETATM   16  C   UNL     1     -10.490  12.847  65.785  1.00  0.00    -0.278 A  
HETATM   17  N   UNL     1     -10.154  13.670  64.739  1.00  0.00    -0.621 NA 
HETATM   18  H   UNL     1      -9.779  13.375  63.837  1.00  0.00     0.000 HD 
HETATM   19  C   UNL     1     -10.413  14.962  65.124  1.00  0.00    -0.417 A  
HETATM   20  N   UNL     1     -10.953  15.012  66.320  1.00  0.00    -0.336 NA 
ENDBRANCH  10  11
ENDBRANCH   6  10
TORSDOF 2
ENDMDL
MODEL      212
REMARK 921   NORMALIZED FREE ENERGY PREDICTED BY IDOCK:   -4.09 KCAL/MOL
REMARK 922        TOTAL FREE ENERGY PREDICTED BY IDOCK:   -4.89 KCAL/MOL
REMARK 923 INTER-LIGAND FREE ENERGY PREDICTED BY IDOCK:   -4.26 KCAL/MOL
REMARK 924 INTRA-LIGAND FREE ENERGY PREDICTED BY IDOCK:   -0.63 KCAL/MOL
REMARK 927      BINDING AFFINITY PREDICTED BY RF-SCORE:    0.00 PKD
ROOT
HETATM    1  C   UNL     1     -11.653  13.037  69.033  1.00  0.00    -0.318 C  
HETATM    2  N   UNL     1     -12.032  12.087  70.050  1.00  0.00    -0.339 NA 
HETATM    3  C   UNL     1     -12.872  12.456  71.076  1.00  0.00    -0.155 A  
HETATM    4  N   UNL     1     -13.172  11.446  71.849  1.00  0.00    -0.458 NA 
HETATM    5  C   UNL     1     -12.512  10.365  71.295  1.00  0.00    -0.415 A  
HETATM    6  C   UNL     1     -11.764  10.738  70.172  1.00  0.00    -0.339 A  
HETATM    7  N   UNL     1     -12.741   9.055  71.876  1.00  0.00    -0.354 N  
HETATM    8  O   UNL     1     -13.574   8.968  72.786  1.00  0.00    -0.433 OA 
HETATM    9  O   UNL     1     -12.089   8.102  71.419  1.00  0.00    -0.289 OA 
ENDROOT
BRANCH   6  10
HETATM   10  S   UNL     1     -10.932   9.739  68.998  1.00  0.00    -0.114 SA 
BRANCH  10  11
HETATM   11  C   UNL     1      -9.270   9.450  69.541  1.00  0.00    -0.176 A  
HETATM   12  N   UNL     1      -8.300  10.362  69.306  1.00  0.00    -0.158 NA 
HETATM   13  C   UNL     1      -7.014  10.015  69.529  1.00  0.00    -0.078 A  
HETATM   14  N   UNL     1      -6.544   8.863  70.007  1.00  0.00    -0.041 NA 
HETATM   15  C   UNL     1      -7.512   7.959  70.223  1.00  0.00    -0.077 A  
HETATM   16  C   UNL     1      -8.855   8.199  69.977  1.00  0.00    -0.139 A  
HETATM   17  N   UNL     1      -9.453   6.984  70.208  1.00  0.00    -0.165 NA 
HETATM   18  H   UNL     1     -10.439   6.763  70.071  1.00  0.00     0.000 HD 
HETATM   19  C   UNL     1      -8.485   6.121  70.657  1.00  0.00    -0.134 A  
HETATM   20  N   UNL     1      -7.298   6.684  70.665  1.00  0.00    -0.074 NA 
ENDBRANCH  10  11
ENDBRANCH   6  10
TORSDOF 2
ENDMDL
MODEL      213
REMARK 921   NORMALIZED FREE ENERGY PREDICTED BY IDOCK:   -4.07 KCAL/MOL
REMARK 922        TOTAL FREE ENERGY PREDICTED BY IDOCK:   -4.87 KCAL/MOL
REMARK 923 INTER-LIGAND FREE ENERGY PREDICTED BY IDOCK:   -4.46 KCAL/MOL
REMARK 924 INTRA-LIGAND FREE ENERGY PREDICTED BY IDOCK:   -0.41 KCAL/MOL
REMARK 927      BINDING AFFINITY PREDICTED BY RF-SCORE:    0.00 PKD
ROOT
HETATM    1  C   UNL     1      -7.241  13.118  68.534  1.00  0.00    -0.110 C  
HETATM    2  N   UNL     1      -8.286  13.330  67.562  1.00  0.00    -0.173 NA 
HETATM    3  C   UNL     1      -8.447  14.557  66.961  1.00  0.00    -0.196 A  
HETATM    4  N   UNL     1      -9.383  14.536  66.049  1.00  0.00    -0.219 NA 
HETATM    5  C   UNL     1      -9.843  13.232  66.042  1.00  0.00    -0.263 A  
HETATM    6  C   UNL     1      -9.189  12.450  67.000  1.00  0.00    -0.208 A  
HETATM    7  N   UNL     1     -10.827  12.861  65.041  1.00  0.00    -0.289 N  
HETATM    8  O   UNL     1     -11.142  13.714  64.202  1.00  0.00    -0.354 OA 
HETATM    9  O   UNL     1     -11.289  11.709  65.088  1.00  0.00    -0.256 OA 
ENDROOT
BRANCH   6  10
HETATM   10  S   UNL     1      -9.240  10.717  67.255  1.00  0.00    -0.147 SA 
BRANCH  10  11
HETATM   11  C   UNL     1     -10.372  10.346  68.568  1.00  0.00    -0.176 A  
HETATM   12  N   UNL     1     -11.548  11.005  68.671  1.00  0.00    -0.314 NA 
HETATM   13  C   UNL     1     -12.278  10.859  69.798  1.00  0.00    -0.311 A  
HETATM   14  N   UNL     1     -12.012  10.093  70.856  1.00  0.00    -0.336 NA 
HETATM   15  C   UNL     1     -10.837   9.454  70.751  1.00  0.00    -0.305 A  
HETATM   16  C   UNL     1      -9.991   9.577  69.660  1.00  0.00    -0.205 A  
HETATM   17  N   UNL     1      -8.872   8.872  70.030  1.00  0.00    -0.150 NA 
HETATM   18  H   UNL     1      -8.009   8.789  69.494  1.00  0.00     0.000 HD 
HETATM   19  C   UNL     1      -9.125   8.298  71.251  1.00  0.00    -0.160 A  
HETATM   20  N   UNL     1     -10.304   8.645  71.715  1.00  0.00    -0.287 NA 
ENDBRANCH  10  11
ENDBRANCH   6  10
TORSDOF 2
ENDMDL
MODEL      214
REMARK 921   NORMALIZED FREE ENERGY PREDICTED BY IDOCK:   -4.07 KCAL/MOL
REMARK 922        TOTAL FREE ENERGY PREDICTED BY IDOCK:   -4.86 KCAL/MOL
REMARK 923 INTER-LIGAND FREE ENERGY PREDICTED BY IDOCK:   -4.28 KCAL/MOL
REMARK 924 INTRA-LIGAND FREE ENERGY PREDICTED BY IDOCK:   -0.57 KCAL/MOL
REMARK 927      BINDING AFFINITY PREDICTED BY RF-SCORE:    0.00 PKD
ROOT
HETATM    1  C   UNL     1     -10.897   9.356  70.193  1.00  0.00    -0.249 C  
HETATM    2  N   UNL     1     -11.217  10.343  69.190  1.00  0.00    -0.244 NA 
HETATM    3  C   UNL     1     -11.630  11.604  69.554  1.00  0.00    -0.331 A  
HETATM    4  N   UNL     1     -11.790  12.384  68.517  1.00  0.00    -0.323 NA 
HETATM    5  C   UNL     1     -11.451  11.602  67.429  1.00  0.00    -0.285 A  
HETATM    6  C   UNL     1     -11.107  10.302  67.815  1.00  0.00    -0.269 A  
HETATM    7  N   UNL     1     -11.423  12.231  66.121  1.00  0.00    -0.357 N  
HETATM    8  O   UNL     1     -11.629  13.449  66.064  1.00  0.00    -0.322 OA 
HETATM    9  O   UNL     1     -11.189  11.506  65.140  1.00  0.00    -0.245 OA 
ENDROOT
BRANCH   6  10
HETATM   10  S   UNL     1     -10.407   9.002  66.872  1.00  0.00    -0.227 SA 
BRANCH  10  11
HETATM   11  C   UNL     1      -8.765   9.451  66.376  1.00  0.00    -0.135 A  
HETATM   12  N   UNL     1      -7.867   9.890  67.285  1.00  0.00    -0.102 NA 
HETATM   13  C   UNL     1      -6.710  10.432  66.846  1.00  0.00    -0.083 A  
HETATM   14  N   UNL     1      -6.290  10.565  65.588  1.00  0.00    -0.129 NA 
HETATM   15  C   UNL     1      -7.194  10.139  64.692  1.00  0.00    -0.124 A  
HETATM   16  C   UNL     1      -8.430   9.617  65.039  1.00  0.00    -0.150 A  
HETATM   17  N   UNL     1      -9.062   9.442  63.832  1.00  0.00    -0.422 NA 
HETATM   18  H   UNL     1     -10.022   9.124  63.696  1.00  0.00     0.000 HD 
HETATM   19  C   UNL     1      -8.171   9.771  62.842  1.00  0.00    -0.153 A  
HETATM   20  N   UNL     1      -7.035  10.208  63.337  1.00  0.00    -0.132 NA 
ENDBRANCH  10  11
ENDBRANCH   6  10
TORSDOF 2
ENDMDL
MODEL      215
REMARK 921   NORMALIZED FREE ENERGY PREDICTED BY IDOCK:   -4.05 KCAL/MOL
REMARK 922        TOTAL FREE ENERGY PREDICTED BY IDOCK:   -4.84 KCAL/MOL
REMARK 923 INTER-LIGAND FREE ENERGY PREDICTED BY IDOCK:   -4.17 KCAL/MOL
REMARK 924 INTRA-LIGAND FREE ENERGY PREDICTED BY IDOCK:   -0.67 KCAL/MOL
REMARK 927      BINDING AFFINITY PREDICTED BY RF-SCORE:    0.00 PKD
ROOT
HETATM    1  C   UNL     1      -8.339   7.753  63.766  1.00  0.00     0.119 C  
HETATM    2  N   UNL     1      -7.726   8.744  64.617  1.00  0.00    -0.113 NA 
HETATM    3  C   UNL     1      -6.426   9.142  64.406  1.00  0.00    -0.079 A  
HETATM    4  N   UNL     1      -6.072  10.105  65.216  1.00  0.00    -0.107 NA 
HETATM    5  C   UNL     1      -7.196  10.358  65.979  1.00  0.00    -0.134 A  
HETATM    6  C   UNL     1      -8.251   9.502  65.644  1.00  0.00    -0.120 A  
HETATM    7  N   UNL     1      -7.150  11.469  66.912  1.00  0.00    -0.141 N  
HETATM    8  O   UNL     1      -6.134  12.174  66.916  1.00  0.00    -0.182 OA 
HETATM    9  O   UNL     1      -8.137  11.645  67.646  1.00  0.00    -0.128 OA 
ENDROOT
BRANCH   6  10
HETATM   10  S   UNL     1      -9.929   9.542  66.147  1.00  0.00    -0.247 SA 
BRANCH  10  11
HETATM   11  C   UNL     1     -10.751  10.896  65.351  1.00  0.00    -0.119 A  
HETATM   12  N   UNL     1     -10.773  10.992  64.003  1.00  0.00    -0.347 NA 
HETATM   13  C   UNL     1     -11.208  12.140  63.440  1.00  0.00    -0.414 A  
HETATM   14  N   UNL     1     -11.678  13.228  64.050  1.00  0.00    -0.417 NA 
HETATM   15  C   UNL     1     -11.639  13.129  65.388  1.00  0.00    -0.333 A  
HETATM   16  C   UNL     1     -11.163  12.015  66.061  1.00  0.00    -0.335 A  
HETATM   17  N   UNL     1     -11.185  12.395  67.381  1.00  0.00    -0.278 NA 
HETATM   18  H   UNL     1     -10.848  11.845  68.171  1.00  0.00     0.000 HD 
HETATM   19  C   UNL     1     -11.742  13.648  67.446  1.00  0.00    -0.381 A  
HETATM   20  N   UNL     1     -12.016  14.120  66.251  1.00  0.00    -0.413 NA 
ENDBRANCH  10  11
ENDBRANCH   6  10
TORSDOF 2
ENDMDL
MODEL      216
REMARK 921   NORMALIZED FREE ENERGY PREDICTED BY IDOCK:   -4.05 KCAL/MOL
REMARK 922        TOTAL FREE ENERGY PREDICTED BY IDOCK:   -4.84 KCAL/MOL
REMARK 923 INTER-LIGAND FREE ENERGY PREDICTED BY IDOCK:   -4.55 KCAL/MOL
REMARK 924 INTRA-LIGAND FREE ENERGY PREDICTED BY IDOCK:   -0.29 KCAL/MOL
REMARK 927      BINDING AFFINITY PREDICTED BY RF-SCORE:    0.00 PKD
ROOT
HETATM    1  C   UNL     1      -9.428   8.117  73.303  1.00  0.00    -0.220 C  
HETATM    2  N   UNL     1      -9.196   7.876  71.900  1.00  0.00    -0.144 NA 
HETATM    3  C   UNL     1      -8.048   7.246  71.477  1.00  0.00    -0.101 A  
HETATM    4  N   UNL     1      -8.052   7.037  70.186  1.00  0.00    -0.128 NA 
HETATM    5  C   UNL     1      -9.264   7.538  69.749  1.00  0.00    -0.147 A  
HETATM    6  C   UNL     1     -10.000   8.096  70.800  1.00  0.00    -0.188 A  
HETATM    7  N   UNL     1      -9.615   7.352  68.353  1.00  0.00    -0.147 N  
HETATM    8  O   UNL     1      -8.844   6.687  67.651  1.00  0.00    -0.118 OA 
HETATM    9  O   UNL     1     -10.671   7.868  67.952  1.00  0.00    -0.177 OA 
ENDROOT
BRANCH   6  10
HETATM   10  S   UNL     1     -11.658   8.662  70.828  1.00  0.00    -0.197 SA 
BRANCH  10  11
HETATM   11  C   UNL     1     -11.725  10.326  70.219  1.00  0.00    -0.306 A  
HETATM   12  N   UNL     1     -10.944  10.713  69.186  1.00  0.00    -0.229 NA 
HETATM   13  C   UNL     1     -10.855  12.030  68.896  1.00  0.00    -0.211 A  
HETATM   14  N   UNL     1     -11.486  13.045  69.485  1.00  0.00    -0.251 NA 
HETATM   15  C   UNL     1     -12.248  12.653  70.518  1.00  0.00    -0.299 A  
HETATM   16  C   UNL     1     -12.365  11.334  70.927  1.00  0.00    -0.388 A  
HETATM   17  N   UNL     1     -13.118  11.412  72.073  1.00  0.00    -0.477 NA 
HETATM   18  H   UNL     1     -13.362  10.634  72.687  1.00  0.00     0.000 HD 
HETATM   19  C   UNL     1     -13.485  12.723  72.244  1.00  0.00    -0.490 A  
HETATM   20  N   UNL     1     -12.961  13.497  71.322  1.00  0.00    -0.328 NA 
ENDBRANCH  10  11
ENDBRANCH   6  10
TORSDOF 2
ENDMDL
MODEL      217
REMARK 921   NORMALIZED FREE ENERGY PREDICTED BY IDOCK:   -4.04 KCAL/MOL
REMARK 922        TOTAL FREE ENERGY PREDICTED BY IDOCK:   -4.83 KCAL/MOL
REMARK 923 INTER-LIGAND FREE ENERGY PREDICTED BY IDOCK:   -4.12 KCAL/MOL
REMARK 924 INTRA-LIGAND FREE ENERGY PREDICTED BY IDOCK:   -0.71 KCAL/MOL
REMARK 927      BINDING AFFINITY PREDICTED BY RF-SCORE:    0.00 PKD
ROOT
HETATM    1  C   UNL     1      -8.283   7.700  66.284  1.00  0.00    -0.120 C  
HETATM    2  N   UNL     1      -8.656   9.063  65.995  1.00  0.00    -0.135 NA 
HETATM    3  C   UNL     1      -9.396   9.365  64.875  1.00  0.00    -0.150 A  
HETATM    4  N   UNL     1      -9.711  10.633  64.824  1.00  0.00    -0.264 NA 
HETATM    5  C   UNL     1      -9.166  11.181  65.970  1.00  0.00    -0.205 A  
HETATM    6  C   UNL     1      -8.473  10.223  66.720  1.00  0.00    -0.123 A  
HETATM    7  N   UNL     1      -9.443  12.576  66.258  1.00  0.00    -0.232 N  
HETATM    8  O   UNL     1     -10.216  13.176  65.500  1.00  0.00    -0.287 OA 
HETATM    9  O   UNL     1      -8.891  13.080  67.250  1.00  0.00    -0.190 OA 
ENDROOT
BRANCH   6  10
HETATM   10  S   UNL     1      -7.794  10.340  68.331  1.00  0.00    -0.106 SA 
BRANCH  10  11
HETATM   11  C   UNL     1      -8.947   9.682  69.506  1.00  0.00    -0.194 A  
HETATM   12  N   UNL     1      -8.860   8.395  69.910  1.00  0.00    -0.136 NA 
HETATM   13  C   UNL     1      -9.878   7.868  70.626  1.00  0.00    -0.185 A  
HETATM   14  N   UNL     1     -10.988   8.475  71.044  1.00  0.00    -0.240 NA 
HETATM   15  C   UNL     1     -11.073   9.748  70.627  1.00  0.00    -0.332 A  
HETATM   16  C   UNL     1     -10.107  10.364  69.846  1.00  0.00    -0.095 A  
HETATM   17  N   UNL     1     -10.656  11.588  69.552  1.00  0.00    -0.448 NA 
HETATM   18  H   UNL     1     -10.250  12.299  68.943  1.00  0.00     0.000 HD 
HETATM   19  C   UNL     1     -11.848  11.684  70.225  1.00  0.00    -0.326 A  
HETATM   20  N   UNL     1     -12.129  10.578  70.874  1.00  0.00    -0.351 NA 
ENDBRANCH  10  11
ENDBRANCH   6  10
TORSDOF 2
ENDMDL
MODEL      218
REMARK 921   NORMALIZED FREE ENERGY PREDICTED BY IDOCK:   -4.03 KCAL/MOL
REMARK 922        TOTAL FREE ENERGY PREDICTED BY IDOCK:   -4.82 KCAL/MOL
REMARK 923 INTER-LIGAND FREE ENERGY PREDICTED BY IDOCK:   -4.38 KCAL/MOL
REMARK 924 INTRA-LIGAND FREE ENERGY PREDICTED BY IDOCK:   -0.44 KCAL/MOL
REMARK 927      BINDING AFFINITY PREDICTED BY RF-SCORE:    0.00 PKD
ROOT
HETATM    1  C   UNL     1      -9.893   9.294  65.883  1.00  0.00    -0.265 C  
HETATM    2  N   UNL     1      -8.921   9.716  66.861  1.00  0.00    -0.133 NA 
HETATM    3  C   UNL     1      -7.965  10.653  66.541  1.00  0.00    -0.138 A  
HETATM    4  N   UNL     1      -7.229  10.973  67.573  1.00  0.00    -0.092 NA 
HETATM    5  C   UNL     1      -7.737  10.225  68.618  1.00  0.00    -0.094 A  
HETATM    6  C   UNL     1      -8.790   9.403  68.199  1.00  0.00    -0.124 A  
HETATM    7  N   UNL     1      -7.190  10.445  69.944  1.00  0.00    -0.155 N  
HETATM    8  O   UNL     1      -6.353  11.346  70.077  1.00  0.00    -0.139 OA 
HETATM    9  O   UNL     1      -7.600   9.718  70.863  1.00  0.00    -0.319 OA 
ENDROOT
BRANCH   6  10
HETATM   10  S   UNL     1      -9.900   8.436  69.148  1.00  0.00    -0.187 SA 
BRANCH  10  11
HETATM   11  C   UNL     1     -11.128   9.488  69.875  1.00  0.00    -0.216 A  
HETATM   12  N   UNL     1     -10.964  10.830  69.887  1.00  0.00    -0.263 NA 
HETATM   13  C   UNL     1     -11.799  11.579  70.640  1.00  0.00    -0.178 A  
HETATM   14  N   UNL     1     -12.832  11.170  71.375  1.00  0.00    -0.438 NA 
HETATM   15  C   UNL     1     -12.979   9.836  71.369  1.00  0.00    -0.395 A  
HETATM   16  C   UNL     1     -12.144   8.978  70.671  1.00  0.00    -0.036 A  
HETATM   17  N   UNL     1     -12.570   7.727  71.048  1.00  0.00    -0.514 NA 
HETATM   18  H   UNL     1     -12.148   6.840  70.775  1.00  0.00     0.000 HD 
HETATM   19  C   UNL     1     -13.667   7.887  71.858  1.00  0.00    -0.300 A  
HETATM   20  N   UNL     1     -13.928   9.155  72.077  1.00  0.00    -0.395 NA 
ENDBRANCH  10  11
ENDBRANCH   6  10
TORSDOF 2
ENDMDL
MODEL      219
REMARK 921   NORMALIZED FREE ENERGY PREDICTED BY IDOCK:   -4.00 KCAL/MOL
REMARK 922        TOTAL FREE ENERGY PREDICTED BY IDOCK:   -4.79 KCAL/MOL
REMARK 923 INTER-LIGAND FREE ENERGY PREDICTED BY IDOCK:   -4.15 KCAL/MOL
REMARK 924 INTRA-LIGAND FREE ENERGY PREDICTED BY IDOCK:   -0.64 KCAL/MOL
REMARK 927      BINDING AFFINITY PREDICTED BY RF-SCORE:    0.00 PKD
ROOT
HETATM    1  C   UNL     1      -7.686   9.077  71.010  1.00  0.00    -0.125 C  
HETATM    2  N   UNL     1      -8.029   8.523  69.723  1.00  0.00    -0.101 NA 
HETATM    3  C   UNL     1      -7.069   7.927  68.938  1.00  0.00    -0.074 A  
HETATM    4  N   UNL     1      -7.579   7.409  67.851  1.00  0.00    -0.111 NA 
HETATM    5  C   UNL     1      -8.935   7.664  67.938  1.00  0.00    -0.128 A  
HETATM    6  C   UNL     1      -9.250   8.387  69.094  1.00  0.00    -0.150 A  
HETATM    7  N   UNL     1      -9.800   7.107  66.914  1.00  0.00    -0.194 N  
HETATM    8  O   UNL     1      -9.285   6.371  66.065  1.00  0.00    -0.143 OA 
HETATM    9  O   UNL     1     -11.006   7.402  66.958  1.00  0.00    -0.332 OA 
ENDROOT
BRANCH   6  10
HETATM   10  S   UNL     1     -10.815   8.774  69.780  1.00  0.00    -0.144 SA 
BRANCH  10  11
HETATM   11  C   UNL     1     -11.163  10.493  69.524  1.00  0.00    -0.271 A  
HETATM   12  N   UNL     1     -11.675  11.248  70.522  1.00  0.00    -0.310 NA 
HETATM   13  C   UNL     1     -12.135  12.485  70.231  1.00  0.00    -0.294 A  
HETATM   14  N   UNL     1     -12.119  13.111  69.055  1.00  0.00    -0.260 NA 
HETATM   15  C   UNL     1     -11.622  12.350  68.068  1.00  0.00    -0.347 A  
HETATM   16  C   UNL     1     -11.173  11.052  68.254  1.00  0.00    -0.277 A  
HETATM   17  N   UNL     1     -10.885  10.620  66.982  1.00  0.00    -0.261 NA 
HETATM   18  H   UNL     1     -10.580   9.683  66.720  1.00  0.00     0.000 HD 
HETATM   19  C   UNL     1     -11.080  11.676  66.128  1.00  0.00    -0.280 A  
HETATM   20  N   UNL     1     -11.538  12.733  66.759  1.00  0.00    -0.350 NA 
ENDBRANCH  10  11
ENDBRANCH   6  10
TORSDOF 2
ENDMDL
MODEL      220
REMARK 921   NORMALIZED FREE ENERGY PREDICTED BY IDOCK:   -4.00 KCAL/MOL
REMARK 922        TOTAL FREE ENERGY PREDICTED BY IDOCK:   -4.79 KCAL/MOL
REMARK 923 INTER-LIGAND FREE ENERGY PREDICTED BY IDOCK:   -4.33 KCAL/MOL
REMARK 924 INTRA-LIGAND FREE ENERGY PREDICTED BY IDOCK:   -0.46 KCAL/MOL
REMARK 927      BINDING AFFINITY PREDICTED BY RF-SCORE:    0.00 PKD
ROOT
HETATM    1  C   UNL     1      -9.913   5.223  67.474  1.00  0.00    -0.171 C  
HETATM    2  N   UNL     1      -9.007   5.455  68.572  1.00  0.00    -0.107 NA 
HETATM    3  C   UNL     1      -7.645   5.455  68.370  1.00  0.00    -0.080 A  
HETATM    4  N   UNL     1      -6.990   5.767  69.457  1.00  0.00    -0.061 NA 
HETATM    5  C   UNL     1      -7.967   5.998  70.408  1.00  0.00    -0.107 A  
HETATM    6  C   UNL     1      -9.250   5.786  69.890  1.00  0.00    -0.144 A  
HETATM    7  N   UNL     1      -7.549   6.477  71.713  1.00  0.00    -0.093 N  
HETATM    8  O   UNL     1      -6.348   6.726  71.875  1.00  0.00    -0.047 OA 
HETATM    9  O   UNL     1      -8.424   6.612  72.583  1.00  0.00    -0.123 OA 
ENDROOT
BRANCH   6  10
HETATM   10  S   UNL     1     -10.813   6.140  70.596  1.00  0.00    -0.310 SA 
BRANCH  10  11
HETATM   11  C   UNL     1     -11.128   7.882  70.492  1.00  0.00    -0.256 A  
HETATM   12  N   UNL     1     -10.259   8.702  69.860  1.00  0.00    -0.198 NA 
HETATM   13  C   UNL     1     -10.412  10.038  69.993  1.00  0.00    -0.287 A  
HETATM   14  N   UNL     1     -11.364  10.694  70.656  1.00  0.00    -0.284 NA 
HETATM   15  C   UNL     1     -12.214   9.872  71.291  1.00  0.00    -0.387 A  
HETATM   16  C   UNL     1     -12.112   8.490  71.260  1.00  0.00    -0.286 A  
HETATM   17  N   UNL     1     -13.084   8.069  72.135  1.00  0.00    -0.494 NA 
HETATM   18  H   UNL     1     -13.267   7.105  72.412  1.00  0.00     0.000 HD 
HETATM   19  C   UNL     1     -13.765   9.179  72.567  1.00  0.00    -0.435 A  
HETATM   20  N   UNL     1     -13.251  10.285  72.080  1.00  0.00    -0.456 NA 
ENDBRANCH  10  11
ENDBRANCH   6  10
TORSDOF 2
ENDMDL
MODEL      221
REMARK 921   NORMALIZED FREE ENERGY PREDICTED BY IDOCK:   -3.99 KCAL/MOL
REMARK 922        TOTAL FREE ENERGY PREDICTED BY IDOCK:   -4.78 KCAL/MOL
REMARK 923 INTER-LIGAND FREE ENERGY PREDICTED BY IDOCK:   -4.02 KCAL/MOL
REMARK 924 INTRA-LIGAND FREE ENERGY PREDICTED BY IDOCK:   -0.76 KCAL/MOL
REMARK 927      BINDING AFFINITY PREDICTED BY RF-SCORE:    0.00 PKD
ROOT
HETATM    1  C   UNL     1      -5.471  13.594  68.483  1.00  0.00    -0.092 C  
HETATM    2  N   UNL     1      -6.090  12.449  69.105  1.00  0.00    -0.080 NA 
HETATM    3  C   UNL     1      -5.659  11.999  70.332  1.00  0.00    -0.160 A  
HETATM    4  N   UNL     1      -6.391  11.011  70.775  1.00  0.00    -0.314 NA 
HETATM    5  C   UNL     1      -7.353  10.817  69.802  1.00  0.00    -0.064 A  
HETATM    6  C   UNL     1      -7.178  11.691  68.723  1.00  0.00    -0.116 A  
HETATM    7  N   UNL     1      -8.397   9.842  70.060  1.00  0.00    -0.190 N  
HETATM    8  O   UNL     1      -8.411   9.296  71.170  1.00  0.00    -0.294 OA 
HETATM    9  O   UNL     1      -9.214   9.621  69.151  1.00  0.00    -0.153 OA 
ENDROOT
BRANCH   6  10
HETATM   10  S   UNL     1      -8.226  12.003  67.354  1.00  0.00    -0.176 SA 
BRANCH  10  11
HETATM   11  C   UNL     1      -9.279  13.382  67.718  1.00  0.00    -0.211 A  
HETATM   12  N   UNL     1      -8.945  14.628  67.315  1.00  0.00    -0.194 NA 
HETATM   13  C   UNL     1      -9.647  15.677  67.799  1.00  0.00    -0.209 A  
HETATM   14  N   UNL     1     -10.694  15.655  68.623  1.00  0.00    -0.246 NA 
HETATM   15  C   UNL     1     -11.009  14.415  69.029  1.00  0.00    -0.256 A  
HETATM   16  C   UNL     1     -10.319  13.280  68.632  1.00  0.00    -0.196 A  
HETATM   17  N   UNL     1     -10.886  12.275  69.377  1.00  0.00    -0.457 NA 
HETATM   18  H   UNL     1     -10.592  11.298  69.392  1.00  0.00     0.000 HD 
HETATM   19  C   UNL     1     -11.919  12.820  70.096  1.00  0.00    -0.296 A  
HETATM   20  N   UNL     1     -12.007  14.117  69.912  1.00  0.00    -0.317 NA 
ENDBRANCH  10  11
ENDBRANCH   6  10
TORSDOF 2
ENDMDL
MODEL      222
REMARK 921   NORMALIZED FREE ENERGY PREDICTED BY IDOCK:   -3.99 KCAL/MOL
REMARK 922        TOTAL FREE ENERGY PREDICTED BY IDOCK:   -4.77 KCAL/MOL
REMARK 923 INTER-LIGAND FREE ENERGY PREDICTED BY IDOCK:   -4.33 KCAL/MOL
REMARK 924 INTRA-LIGAND FREE ENERGY PREDICTED BY IDOCK:   -0.45 KCAL/MOL
REMARK 927      BINDING AFFINITY PREDICTED BY RF-SCORE:    0.00 PKD
ROOT
HETATM    1  C   UNL     1     -11.082  12.954  68.820  1.00  0.00    -0.263 C  
HETATM    2  N   UNL     1      -9.991  12.481  68.004  1.00  0.00    -0.213 NA 
HETATM    3  C   UNL     1      -8.895  13.279  67.767  1.00  0.00    -0.197 A  
HETATM    4  N   UNL     1      -7.974  12.653  67.082  1.00  0.00    -0.155 NA 
HETATM    5  C   UNL     1      -8.484  11.385  66.876  1.00  0.00    -0.157 A  
HETATM    6  C   UNL     1      -9.765  11.249  67.423  1.00  0.00    -0.173 A  
HETATM    7  N   UNL     1      -7.633  10.404  66.227  1.00  0.00    -0.121 N  
HETATM    8  O   UNL     1      -6.471  10.737  65.965  1.00  0.00    -0.122 OA 
HETATM    9  O   UNL     1      -8.124   9.291  65.980  1.00  0.00    -0.108 OA 
ENDROOT
BRANCH   6  10
HETATM   10  S   UNL     1     -10.750   9.814  67.626  1.00  0.00    -0.234 SA 
BRANCH  10  11
HETATM   11  C   UNL     1     -10.553   9.190  69.273  1.00  0.00    -0.216 A  
HETATM   12  N   UNL     1      -9.584   8.291  69.557  1.00  0.00    -0.169 NA 
HETATM   13  C   UNL     1      -9.605   7.672  70.758  1.00  0.00    -0.166 A  
HETATM   14  N   UNL     1     -10.458   7.858  71.764  1.00  0.00    -0.214 NA 
HETATM   15  C   UNL     1     -11.424   8.742  71.468  1.00  0.00    -0.305 A  
HETATM   16  C   UNL     1     -11.521   9.391  70.247  1.00  0.00    -0.180 A  
HETATM   17  N   UNL     1     -12.705  10.083  70.337  1.00  0.00    -0.539 NA 
HETATM   18  H   UNL     1     -13.136  10.635  69.596  1.00  0.00     0.000 HD 
HETATM   19  C   UNL     1     -13.203   9.896  71.602  1.00  0.00    -0.421 A  
HETATM   20  N   UNL     1     -12.451   9.079  72.304  1.00  0.00    -0.374 NA 
ENDBRANCH  10  11
ENDBRANCH   6  10
TORSDOF 2
ENDMDL
MODEL      223
REMARK 921   NORMALIZED FREE ENERGY PREDICTED BY IDOCK:   -3.98 KCAL/MOL
REMARK 922        TOTAL FREE ENERGY PREDICTED BY IDOCK:   -4.76 KCAL/MOL
REMARK 923 INTER-LIGAND FREE ENERGY PREDICTED BY IDOCK:   -4.06 KCAL/MOL
REMARK 924 INTRA-LIGAND FREE ENERGY PREDICTED BY IDOCK:   -0.70 KCAL/MOL
REMARK 927      BINDING AFFINITY PREDICTED BY RF-SCORE:    0.00 PKD
ROOT
HETATM    1  C   UNL     1     -10.643  17.385  66.714  1.00  0.00    -0.194 C  
HETATM    2  N   UNL     1     -10.515  15.963  66.504  1.00  0.00    -0.300 NA 
HETATM    3  C   UNL     1     -10.552  15.436  65.234  1.00  0.00    -0.428 A  
HETATM    4  N   UNL     1     -10.335  14.147  65.233  1.00  0.00    -0.367 NA 
HETATM    5  C   UNL     1     -10.130  13.820  66.560  1.00  0.00    -0.286 A  
HETATM    6  C   UNL     1     -10.261  14.938  67.393  1.00  0.00    -0.234 A  
HETATM    7  N   UNL     1      -9.751  12.455  66.876  1.00  0.00    -0.210 N  
HETATM    8  O   UNL     1      -9.557  11.680  65.931  1.00  0.00    -0.220 OA 
HETATM    9  O   UNL     1      -9.641  12.151  68.075  1.00  0.00    -0.191 OA 
ENDROOT
BRANCH   6  10
HETATM   10  S   UNL     1      -9.896  15.113  69.097  1.00  0.00    -0.233 SA 
BRANCH  10  11
HETATM   11  C   UNL     1      -8.156  15.377  69.305  1.00  0.00    -0.246 A  
HETATM   12  N   UNL     1      -7.620  16.606  69.127  1.00  0.00    -0.224 NA 
HETATM   13  C   UNL     1      -6.275  16.726  69.071  1.00  0.00    -0.179 A  
HETATM   14  N   UNL     1      -5.358  15.770  69.214  1.00  0.00    -0.105 NA 
HETATM   15  C   UNL     1      -5.899  14.552  69.376  1.00  0.00    -0.097 A  
HETATM   16  C   UNL     1      -7.265  14.317  69.394  1.00  0.00    -0.051 A  
HETATM   17  N   UNL     1      -7.361  12.948  69.447  1.00  0.00    -0.297 NA 
HETATM   18  H   UNL     1      -8.223  12.403  69.418  1.00  0.00     0.000 HD 
HETATM   19  C   UNL     1      -6.088  12.443  69.548  1.00  0.00    -0.117 A  
HETATM   20  N   UNL     1      -5.184  13.395  69.495  1.00  0.00    -0.083 NA 
ENDBRANCH  10  11
ENDBRANCH   6  10
TORSDOF 2
ENDMDL
MODEL      224
REMARK 921   NORMALIZED FREE ENERGY PREDICTED BY IDOCK:   -3.98 KCAL/MOL
REMARK 922        TOTAL FREE ENERGY PREDICTED BY IDOCK:   -4.76 KCAL/MOL
REMARK 923 INTER-LIGAND FREE ENERGY PREDICTED BY IDOCK:   -4.40 KCAL/MOL
REMARK 924 INTRA-LIGAND FREE ENERGY PREDICTED BY IDOCK:   -0.36 KCAL/MOL
REMARK 927      BINDING AFFINITY PREDICTED BY RF-SCORE:    0.00 PKD
ROOT
HETATM    1  C   UNL     1      -9.928   9.739  69.974  1.00  0.00    -0.254 C  
HETATM    2  N   UNL     1     -10.634  10.514  68.984  1.00  0.00    -0.207 NA 
HETATM    3  C   UNL     1     -11.547  11.472  69.363  1.00  0.00    -0.321 A  
HETATM    4  N   UNL     1     -12.021  12.129  68.337  1.00  0.00    -0.379 NA 
HETATM    5  C   UNL     1     -11.377  11.587  67.240  1.00  0.00    -0.290 A  
HETATM    6  C   UNL     1     -10.514  10.549  67.609  1.00  0.00    -0.234 A  
HETATM    7  N   UNL     1     -11.616  12.192  65.942  1.00  0.00    -0.384 N  
HETATM    8  O   UNL     1     -12.321  13.207  65.903  1.00  0.00    -0.434 OA 
HETATM    9  O   UNL     1     -11.092  11.655  64.953  1.00  0.00    -0.299 OA 
ENDROOT
BRANCH   6  10
HETATM   10  S   UNL     1      -9.323   9.690  66.653  1.00  0.00    -0.165 SA 
BRANCH  10  11
HETATM   11  C   UNL     1      -9.555   7.944  66.852  1.00  0.00    -0.203 A  
HETATM   12  N   UNL     1     -10.798   7.416  66.905  1.00  0.00    -0.293 NA 
HETATM   13  C   UNL     1     -10.941   6.125  67.280  1.00  0.00    -0.326 A  
HETATM   14  N   UNL     1      -9.985   5.247  67.580  1.00  0.00    -0.159 NA 
HETATM   15  C   UNL     1      -8.755   5.783  67.538  1.00  0.00    -0.107 A  
HETATM   16  C   UNL     1      -8.508   7.109  67.217  1.00  0.00    -0.122 A  
HETATM   17  N   UNL     1      -7.157   7.250  67.424  1.00  0.00    -0.085 NA 
HETATM   18  H   UNL     1      -6.623   8.115  67.342  1.00  0.00     0.000 HD 
HETATM   19  C   UNL     1      -6.656   6.018  67.762  1.00  0.00    -0.056 A  
HETATM   20  N   UNL     1      -7.605   5.114  67.849  1.00  0.00    -0.083 NA 
ENDBRANCH  10  11
ENDBRANCH   6  10
TORSDOF 2
ENDMDL
MODEL      225
REMARK 921   NORMALIZED FREE ENERGY PREDICTED BY IDOCK:   -3.97 KCAL/MOL
REMARK 922        TOTAL FREE ENERGY PREDICTED BY IDOCK:   -4.75 KCAL/MOL
REMARK 923 INTER-LIGAND FREE ENERGY PREDICTED BY IDOCK:   -4.27 KCAL/MOL
REMARK 924 INTRA-LIGAND FREE ENERGY PREDICTED BY IDOCK:   -0.48 KCAL/MOL
REMARK 927      BINDING AFFINITY PREDICTED BY RF-SCORE:    0.00 PKD
ROOT
HETATM    1  C   UNL     1     -12.616  10.982  70.505  1.00  0.00    -0.304 C  
HETATM    2  N   UNL     1     -12.383   9.691  71.105  1.00  0.00    -0.323 NA 
HETATM    3  C   UNL     1     -13.413   8.998  71.699  1.00  0.00    -0.386 A  
HETATM    4  N   UNL     1     -13.035   7.815  72.109  1.00  0.00    -0.199 NA 
HETATM    5  C   UNL     1     -11.702   7.726  71.753  1.00  0.00    -0.284 A  
HETATM    6  C   UNL     1     -11.252   8.900  71.139  1.00  0.00    -0.284 A  
HETATM    7  N   UNL     1     -11.019   6.466  71.981  1.00  0.00    -0.238 N  
HETATM    8  O   UNL     1     -11.689   5.519  72.410  1.00  0.00    -0.236 OA 
HETATM    9  O   UNL     1      -9.804   6.416  71.726  1.00  0.00    -0.164 OA 
ENDROOT
BRANCH   6  10
HETATM   10  S   UNL     1      -9.738   9.227  70.321  1.00  0.00    -0.250 SA 
BRANCH  10  11
HETATM   11  C   UNL     1      -9.887   8.794  68.608  1.00  0.00    -0.168 A  
HETATM   12  N   UNL     1      -9.522   7.568  68.173  1.00  0.00    -0.143 NA 
HETATM   13  C   UNL     1      -9.437   7.349  66.842  1.00  0.00    -0.162 A  
HETATM   14  N   UNL     1      -9.712   8.196  65.851  1.00  0.00     0.018 NA 
HETATM   15  C   UNL     1     -10.060   9.415  66.292  1.00  0.00    -0.258 A  
HETATM   16  C   UNL     1     -10.126   9.754  67.634  1.00  0.00    -0.190 A  
HETATM   17  N   UNL     1     -10.385  11.103  67.619  1.00  0.00    -0.186 NA 
HETATM   18  H   UNL     1     -10.446  11.714  68.434  1.00  0.00     0.000 HD 
HETATM   19  C   UNL     1     -10.548  11.483  66.310  1.00  0.00    -0.263 A  
HETATM   20  N   UNL     1     -10.345  10.481  65.486  1.00  0.00    -0.251 NA 
ENDBRANCH  10  11
ENDBRANCH   6  10
TORSDOF 2
ENDMDL
MODEL      226
REMARK 921   NORMALIZED FREE ENERGY PREDICTED BY IDOCK:   -3.97 KCAL/MOL
REMARK 922        TOTAL FREE ENERGY PREDICTED BY IDOCK:   -4.75 KCAL/MOL
REMARK 923 INTER-LIGAND FREE ENERGY PREDICTED BY IDOCK:   -4.38 KCAL/MOL
REMARK 924 INTRA-LIGAND FREE ENERGY PREDICTED BY IDOCK:   -0.36 KCAL/MOL
REMARK 927      BINDING AFFINITY PREDICTED BY RF-SCORE:    0.00 PKD
ROOT
HETATM    1  C   UNL     1     -11.904  15.141  68.347  1.00  0.00    -0.267 C  
HETATM    2  N   UNL     1     -10.704  15.929  68.209  1.00  0.00    -0.279 NA 
HETATM    3  C   UNL     1     -10.763  17.304  68.205  1.00  0.00    -0.363 A  
HETATM    4  N   UNL     1      -9.574  17.845  68.158  1.00  0.00    -0.293 NA 
HETATM    5  C   UNL     1      -8.698  16.776  68.147  1.00  0.00    -0.219 A  
HETATM    6  C   UNL     1      -9.377  15.552  68.154  1.00  0.00    -0.197 A  
HETATM    7  N   UNL     1      -7.276  17.059  68.208  1.00  0.00    -0.189 N  
HETATM    8  O   UNL     1      -6.931  18.240  68.344  1.00  0.00    -0.229 OA 
HETATM    9  O   UNL     1      -6.493  16.098  68.124  1.00  0.00    -0.115 OA 
ENDROOT
BRANCH   6  10
HETATM   10  S   UNL     1      -8.754  13.927  68.359  1.00  0.00    -0.147 SA 
BRANCH  10  11
HETATM   11  C   UNL     1      -9.346  12.897  67.044  1.00  0.00    -0.235 A  
HETATM   12  N   UNL     1      -9.794  13.442  65.890  1.00  0.00    -0.270 NA 
HETATM   13  C   UNL     1     -10.441  12.652  65.007  1.00  0.00    -0.308 A  
HETATM   14  N   UNL     1     -10.678  11.343  65.094  1.00  0.00    -0.286 NA 
HETATM   15  C   UNL     1     -10.242  10.813  66.248  1.00  0.00    -0.245 A  
HETATM   16  C   UNL     1      -9.614  11.549  67.240  1.00  0.00    -0.172 A  
HETATM   17  N   UNL     1      -9.466  10.652  68.270  1.00  0.00    -0.154 NA 
HETATM   18  H   UNL     1      -9.090  10.856  69.196  1.00  0.00     0.000 HD 
HETATM   19  C   UNL     1      -9.915   9.433  67.829  1.00  0.00    -0.184 A  
HETATM   20  N   UNL     1     -10.401   9.506  66.611  1.00  0.00    -0.233 NA 
ENDBRANCH  10  11
ENDBRANCH   6  10
TORSDOF 2
ENDMDL
MODEL      227
REMARK 921   NORMALIZED FREE ENERGY PREDICTED BY IDOCK:   -3.94 KCAL/MOL
REMARK 922        TOTAL FREE ENERGY PREDICTED BY IDOCK:   -4.72 KCAL/MOL
REMARK 923 INTER-LIGAND FREE ENERGY PREDICTED BY IDOCK:   -4.35 KCAL/MOL
REMARK 924 INTRA-LIGAND FREE ENERGY PREDICTED BY IDOCK:   -0.37 KCAL/MOL
REMARK 927      BINDING AFFINITY PREDICTED BY RF-SCORE:    0.00 PKD
ROOT
HETATM    1  C   UNL     1      -6.202   8.740  68.377  1.00  0.00    -0.054 C  
HETATM    2  N   UNL     1      -7.358   8.005  67.924  1.00  0.00    -0.091 NA 
HETATM    3  C   UNL     1      -7.311   7.272  66.761  1.00  0.00    -0.088 A  
HETATM    4  N   UNL     1      -8.418   6.606  66.558  1.00  0.00    -0.116 NA 
HETATM    5  C   UNL     1      -9.217   6.904  67.646  1.00  0.00    -0.119 A  
HETATM    6  C   UNL     1      -8.589   7.803  68.516  1.00  0.00    -0.128 A  
HETATM    7  N   UNL     1     -10.491   6.219  67.764  1.00  0.00    -0.201 N  
HETATM    8  O   UNL     1     -10.755   5.348  66.926  1.00  0.00    -0.271 OA 
HETATM    9  O   UNL     1     -11.234   6.545  68.704  1.00  0.00    -0.289 OA 
ENDROOT
BRANCH   6  10
HETATM   10  S   UNL     1      -9.065   8.328  70.117  1.00  0.00    -0.148 SA 
BRANCH  10  11
HETATM   11  C   UNL     1     -10.354   9.538  69.983  1.00  0.00    -0.247 A  
HETATM   12  N   UNL     1     -10.217  10.602  69.160  1.00  0.00    -0.213 NA 
HETATM   13  C   UNL     1     -11.110  11.612  69.250  1.00  0.00    -0.233 A  
HETATM   14  N   UNL     1     -12.179  11.696  70.042  1.00  0.00    -0.285 NA 
HETATM   15  C   UNL     1     -12.299  10.642  70.865  1.00  0.00    -0.401 A  
HETATM   16  C   UNL     1     -11.407   9.581  70.887  1.00  0.00    -0.341 A  
HETATM   17  N   UNL     1     -11.832   8.818  71.946  1.00  0.00    -0.341 NA 
HETATM   18  H   UNL     1     -11.378   7.977  72.302  1.00  0.00     0.000 HD 
HETATM   19  C   UNL     1     -12.979   9.388  72.439  1.00  0.00    -0.351 A  
HETATM   20  N   UNL     1     -13.277  10.501  71.809  1.00  0.00    -0.431 NA 
ENDBRANCH  10  11
ENDBRANCH   6  10
TORSDOF 2
ENDMDL
MODEL      228
REMARK 921   NORMALIZED FREE ENERGY PREDICTED BY IDOCK:   -3.93 KCAL/MOL
REMARK 922        TOTAL FREE ENERGY PREDICTED BY IDOCK:   -4.70 KCAL/MOL
REMARK 923 INTER-LIGAND FREE ENERGY PREDICTED BY IDOCK:   -4.29 KCAL/MOL
REMARK 924 INTRA-LIGAND FREE ENERGY PREDICTED BY IDOCK:   -0.41 KCAL/MOL
REMARK 927      BINDING AFFINITY PREDICTED BY RF-SCORE:    0.00 PKD
ROOT
HETATM    1  C   UNL     1     -10.906   6.881  67.447  1.00  0.00    -0.326 C  
HETATM    2  N   UNL     1      -9.680   7.616  67.641  1.00  0.00    -0.147 NA 
HETATM    3  C   UNL     1      -8.633   7.062  68.342  1.00  0.00    -0.126 A  
HETATM    4  N   UNL     1      -7.580   7.837  68.341  1.00  0.00    -0.107 NA 
HETATM    5  C   UNL     1      -7.950   8.938  67.592  1.00  0.00    -0.102 A  
HETATM    6  C   UNL     1      -9.276   8.844  67.156  1.00  0.00    -0.139 A  
HETATM    7  N   UNL     1      -6.940   9.944  67.313  1.00  0.00    -0.083 N  
HETATM    8  O   UNL     1      -5.786   9.719  67.696  1.00  0.00    -0.040 OA 
HETATM    9  O   UNL     1      -7.298  10.964  66.703  1.00  0.00    -0.125 OA 
ENDROOT
BRANCH   6  10
HETATM   10  S   UNL     1     -10.155   9.846  66.018  1.00  0.00    -0.208 SA 
BRANCH  10  11
HETATM   11  C   UNL     1     -10.760  11.290  66.849  1.00  0.00    -0.273 A  
HETATM   12  N   UNL     1     -10.763  11.358  68.199  1.00  0.00    -0.191 NA 
HETATM   13  C   UNL     1     -11.432  12.367  68.798  1.00  0.00    -0.304 A  
HETATM   14  N   UNL     1     -12.087  13.375  68.222  1.00  0.00    -0.307 NA 
HETATM   15  C   UNL     1     -12.091  13.292  66.882  1.00  0.00    -0.332 A  
HETATM   16  C   UNL     1     -11.479  12.268  66.176  1.00  0.00    -0.374 A  
HETATM   17  N   UNL     1     -11.841  12.507  64.872  1.00  0.00    -0.366 NA 
HETATM   18  H   UNL     1     -11.619  11.920  64.069  1.00  0.00     0.000 HD 
HETATM   19  C   UNL     1     -12.556  13.679  64.845  1.00  0.00    -0.336 A  
HETATM   20  N   UNL     1     -12.731  14.168  66.052  1.00  0.00    -0.407 NA 
ENDBRANCH  10  11
ENDBRANCH   6  10
TORSDOF 2
ENDMDL
MODEL      229
REMARK 921   NORMALIZED FREE ENERGY PREDICTED BY IDOCK:   -3.92 KCAL/MOL
REMARK 922        TOTAL FREE ENERGY PREDICTED BY IDOCK:   -4.70 KCAL/MOL
REMARK 923 INTER-LIGAND FREE ENERGY PREDICTED BY IDOCK:   -4.94 KCAL/MOL
REMARK 924 INTRA-LIGAND FREE ENERGY PREDICTED BY IDOCK:    0.24 KCAL/MOL
REMARK 927      BINDING AFFINITY PREDICTED BY RF-SCORE:    0.00 PKD
ROOT
HETATM    1  C   UNL     1     -13.620   9.383  72.329  1.00  0.00    -0.462 C  
HETATM    2  N   UNL     1     -12.464   9.632  71.502  1.00  0.00    -0.359 NA 
HETATM    3  C   UNL     1     -12.462  10.664  70.593  1.00  0.00    -0.371 A  
HETATM    4  N   UNL     1     -11.304  10.790  69.998  1.00  0.00    -0.303 NA 
HETATM    5  C   UNL     1     -10.510   9.806  70.556  1.00  0.00    -0.301 A  
HETATM    6  C   UNL     1     -11.217   9.041  71.491  1.00  0.00    -0.348 A  
HETATM    7  N   UNL     1      -9.111   9.760  70.173  1.00  0.00    -0.229 N  
HETATM    8  O   UNL     1      -8.690  10.653  69.427  1.00  0.00    -0.128 OA 
HETATM    9  O   UNL     1      -8.421   8.830  70.622  1.00  0.00    -0.137 OA 
ENDROOT
BRANCH   6  10
HETATM   10  S   UNL     1     -10.634   7.833  72.619  1.00  0.00    -0.346 SA 
BRANCH  10  11
HETATM   11  C   UNL     1     -10.431   6.287  71.776  1.00  0.00    -0.211 A  
HETATM   12  N   UNL     1      -9.860   5.232  72.400  1.00  0.00    -0.159 NA 
HETATM   13  C   UNL     1      -9.517   4.151  71.666  1.00  0.00    -0.150 A  
HETATM   14  N   UNL     1      -9.707   3.949  70.362  1.00  0.00    -0.195 NA 
HETATM   15  C   UNL     1     -10.261   5.006  69.749  1.00  0.00    -0.266 A  
HETATM   16  C   UNL     1     -10.600   6.180  70.402  1.00  0.00    -0.257 A  
HETATM   17  N   UNL     1     -11.001   7.016  69.388  1.00  0.00    -0.372 NA 
HETATM   18  H   UNL     1     -11.272   7.994  69.486  1.00  0.00     0.000 HD 
HETATM   19  C   UNL     1     -10.973   6.297  68.219  1.00  0.00    -0.321 A  
HETATM   20  N   UNL     1     -10.517   5.080  68.409  1.00  0.00    -0.019 NA 
ENDBRANCH  10  11
ENDBRANCH   6  10
TORSDOF 2
ENDMDL
MODEL      230
REMARK 921   NORMALIZED FREE ENERGY PREDICTED BY IDOCK:   -3.90 KCAL/MOL
REMARK 922        TOTAL FREE ENERGY PREDICTED BY IDOCK:   -4.67 KCAL/MOL
REMARK 923 INTER-LIGAND FREE ENERGY PREDICTED BY IDOCK:   -4.25 KCAL/MOL
REMARK 924 INTRA-LIGAND FREE ENERGY PREDICTED BY IDOCK:   -0.42 KCAL/MOL
REMARK 927      BINDING AFFINITY PREDICTED BY RF-SCORE:    0.00 PKD
ROOT
HETATM    1  C   UNL     1      -6.723   9.234  70.599  1.00  0.00    -0.085 C  
HETATM    2  N   UNL     1      -7.571   8.474  71.485  1.00  0.00    -0.101 NA 
HETATM    3  C   UNL     1      -7.269   8.365  72.823  1.00  0.00    -0.069 A  
HETATM    4  N   UNL     1      -8.192   7.715  73.482  1.00  0.00    -0.144 NA 
HETATM    5  C   UNL     1      -9.149   7.400  72.535  1.00  0.00    -0.140 A  
HETATM    6  C   UNL     1      -8.777   7.842  71.260  1.00  0.00    -0.134 A  
HETATM    7  N   UNL     1     -10.371   6.760  72.987  1.00  0.00    -0.209 N  
HETATM    8  O   UNL     1     -10.521   6.604  74.204  1.00  0.00    -0.353 OA 
HETATM    9  O   UNL     1     -11.192   6.414  72.122  1.00  0.00    -0.251 OA 
ENDROOT
BRANCH   6  10
HETATM   10  S   UNL     1      -9.708   7.889  69.776  1.00  0.00    -0.177 SA 
BRANCH  10  11
HETATM   11  C   UNL     1     -10.531   9.454  69.644  1.00  0.00    -0.223 A  
HETATM   12  N   UNL     1     -11.238   9.950  70.684  1.00  0.00    -0.319 NA 
HETATM   13  C   UNL     1     -12.031  11.024  70.477  1.00  0.00    -0.379 A  
HETATM   14  N   UNL     1     -12.192  11.722  69.353  1.00  0.00    -0.214 NA 
HETATM   15  C   UNL     1     -11.497  11.214  68.323  1.00  0.00    -0.303 A  
HETATM   16  C   UNL     1     -10.697  10.086  68.420  1.00  0.00    -0.234 A  
HETATM   17  N   UNL     1     -10.296   9.857  67.127  1.00  0.00    -0.231 NA 
HETATM   18  H   UNL     1      -9.736   9.069  66.801  1.00  0.00     0.000 HD 
HETATM   19  C   UNL     1     -10.782  10.880  66.351  1.00  0.00    -0.194 A  
HETATM   20  N   UNL     1     -11.523  11.709  67.050  1.00  0.00    -0.490 NA 
ENDBRANCH  10  11
ENDBRANCH   6  10
TORSDOF 2
ENDMDL
MODEL      231
REMARK 921   NORMALIZED FREE ENERGY PREDICTED BY IDOCK:   -3.90 KCAL/MOL
REMARK 922        TOTAL FREE ENERGY PREDICTED BY IDOCK:   -4.67 KCAL/MOL
REMARK 923 INTER-LIGAND FREE ENERGY PREDICTED BY IDOCK:   -4.04 KCAL/MOL
REMARK 924 INTRA-LIGAND FREE ENERGY PREDICTED BY IDOCK:   -0.63 KCAL/MOL
REMARK 927      BINDING AFFINITY PREDICTED BY RF-SCORE:    0.00 PKD
ROOT
HETATM    1  C   UNL     1     -10.845  14.579  68.662  1.00  0.00    -0.251 C  
HETATM    2  N   UNL     1      -9.761  13.848  68.053  1.00  0.00    -0.220 NA 
HETATM    3  C   UNL     1      -8.462  14.287  68.176  1.00  0.00    -0.167 A  
HETATM    4  N   UNL     1      -7.611  13.454  67.636  1.00  0.00    -0.159 NA 
HETATM    5  C   UNL     1      -8.387  12.417  67.153  1.00  0.00    -0.181 A  
HETATM    6  C   UNL     1      -9.750  12.644  67.378  1.00  0.00    -0.199 A  
HETATM    7  N   UNL     1      -7.710  11.266  66.585  1.00  0.00    -0.154 N  
HETATM    8  O   UNL     1      -6.474  11.244  66.635  1.00  0.00    -0.119 OA 
HETATM    9  O   UNL     1      -8.414  10.372  66.087  1.00  0.00    -0.137 OA 
ENDROOT
BRANCH   6  10
HETATM   10  S   UNL     1     -11.115  11.568  67.161  1.00  0.00    -0.304 SA 
BRANCH  10  11
HETATM   11  C   UNL     1     -11.112  10.344  68.444  1.00  0.00    -0.268 A  
HETATM   12  N   UNL     1     -11.055  10.710  69.744  1.00  0.00    -0.277 NA 
HETATM   13  C   UNL     1     -10.828   9.759  70.677  1.00  0.00    -0.329 A  
HETATM   14  N   UNL     1     -10.686   8.447  70.495  1.00  0.00    -0.223 NA 
HETATM   15  C   UNL     1     -10.731   8.095  69.201  1.00  0.00    -0.102 A  
HETATM   16  C   UNL     1     -10.906   9.000  68.166  1.00  0.00    -0.027 A  
HETATM   17  N   UNL     1     -10.756   8.237  67.034  1.00  0.00    -0.409 NA 
HETATM   18  H   UNL     1     -10.764   8.578  66.073  1.00  0.00     0.000 HD 
HETATM   19  C   UNL     1     -10.594   6.932  67.428  1.00  0.00    -0.303 A  
HETATM   20  N   UNL     1     -10.563   6.821  68.736  1.00  0.00    -0.211 NA 
ENDBRANCH  10  11
ENDBRANCH   6  10
TORSDOF 2
ENDMDL
MODEL      232
REMARK 921   NORMALIZED FREE ENERGY PREDICTED BY IDOCK:   -3.89 KCAL/MOL
REMARK 922        TOTAL FREE ENERGY PREDICTED BY IDOCK:   -4.67 KCAL/MOL
REMARK 923 INTER-LIGAND FREE ENERGY PREDICTED BY IDOCK:   -4.38 KCAL/MOL
REMARK 924 INTRA-LIGAND FREE ENERGY PREDICTED BY IDOCK:   -0.29 KCAL/MOL
REMARK 927      BINDING AFFINITY PREDICTED BY RF-SCORE:    0.00 PKD
ROOT
HETATM    1  C   UNL     1     -12.654  14.615  65.392  1.00  0.00    -0.117 C  
HETATM    2  N   UNL     1     -11.973  13.367  65.149  1.00  0.00    -0.358 NA 
HETATM    3  C   UNL     1     -12.489  12.447  64.264  1.00  0.00    -0.437 A  
HETATM    4  N   UNL     1     -11.695  11.421  64.108  1.00  0.00    -0.094 NA 
HETATM    5  C   UNL     1     -10.604  11.689  64.914  1.00  0.00    -0.296 A  
HETATM    6  C   UNL     1     -10.758  12.897  65.604  1.00  0.00    -0.274 A  
HETATM    7  N   UNL     1      -9.482  10.770  64.872  1.00  0.00    -0.224 N  
HETATM    8  O   UNL     1      -9.533   9.839  64.058  1.00  0.00    -0.242 OA 
HETATM    9  O   UNL     1      -8.538  10.978  65.652  1.00  0.00    -0.181 OA 
ENDROOT
BRANCH   6  10
HETATM   10  S   UNL     1      -9.600  13.790  66.569  1.00  0.00    -0.270 SA 
BRANCH  10  11
HETATM   11  C   UNL     1     -10.389  14.380  68.043  1.00  0.00    -0.227 A  
HETATM   12  N   UNL     1     -11.418  13.697  68.593  1.00  0.00    -0.283 NA 
HETATM   13  C   UNL     1     -12.136  14.285  69.575  1.00  0.00    -0.330 A  
HETATM   14  N   UNL     1     -11.942  15.480  70.132  1.00  0.00    -0.343 NA 
HETATM   15  C   UNL     1     -10.928  16.156  69.571  1.00  0.00    -0.341 A  
HETATM   16  C   UNL     1     -10.164  15.662  68.524  1.00  0.00    -0.211 A  
HETATM   17  N   UNL     1      -9.350  16.716  68.187  1.00  0.00    -0.220 NA 
HETATM   18  H   UNL     1      -8.685  16.739  67.414  1.00  0.00     0.000 HD 
HETATM   19  C   UNL     1      -9.589  17.731  69.079  1.00  0.00    -0.135 A  
HETATM   20  N   UNL     1     -10.549  17.421  69.920  1.00  0.00     0.208 NA 
ENDBRANCH  10  11
ENDBRANCH   6  10
TORSDOF 2
ENDMDL
MODEL      233
REMARK 921   NORMALIZED FREE ENERGY PREDICTED BY IDOCK:   -3.89 KCAL/MOL
REMARK 922        TOTAL FREE ENERGY PREDICTED BY IDOCK:   -4.66 KCAL/MOL
REMARK 923 INTER-LIGAND FREE ENERGY PREDICTED BY IDOCK:   -4.00 KCAL/MOL
REMARK 924 INTRA-LIGAND FREE ENERGY PREDICTED BY IDOCK:   -0.66 KCAL/MOL
REMARK 927      BINDING AFFINITY PREDICTED BY RF-SCORE:    0.00 PKD
ROOT
HETATM    1  C   UNL     1      -6.654   9.780  66.876  1.00  0.00    -0.067 C  
HETATM    2  N   UNL     1      -7.483   9.531  68.030  1.00  0.00    -0.083 NA 
HETATM    3  C   UNL     1      -7.005   9.762  69.300  1.00  0.00    -0.056 A  
HETATM    4  N   UNL     1      -7.921   9.563  70.211  1.00  0.00    -0.162 NA 
HETATM    5  C   UNL     1      -9.053   9.203  69.504  1.00  0.00    -0.155 A  
HETATM    6  C   UNL     1      -8.806   9.149  68.127  1.00  0.00    -0.129 A  
HETATM    7  N   UNL     1     -10.289   9.020  70.242  1.00  0.00    -0.197 N  
HETATM    8  O   UNL     1     -10.277   9.273  71.453  1.00  0.00    -0.320 OA 
HETATM    9  O   UNL     1     -11.284   8.626  69.611  1.00  0.00    -0.095 OA 
ENDROOT
BRANCH   6  10
HETATM   10  S   UNL     1      -9.928   8.959  66.795  1.00  0.00    -0.287 SA 
BRANCH  10  11
HETATM   11  C   UNL     1     -10.310  10.550  66.112  1.00  0.00    -0.210 A  
HETATM   12  N   UNL     1      -9.793  10.930  64.922  1.00  0.00    -0.260 NA 
HETATM   13  C   UNL     1      -9.919  12.220  64.542  1.00  0.00    -0.191 A  
HETATM   14  N   UNL     1     -10.544  13.208  65.182  1.00  0.00    -0.307 NA 
HETATM   15  C   UNL     1     -11.041  12.825  66.368  1.00  0.00    -0.285 A  
HETATM   16  C   UNL     1     -10.919  11.539  66.871  1.00  0.00    -0.296 A  
HETATM   17  N   UNL     1     -11.444  11.631  68.137  1.00  0.00    -0.291 NA 
HETATM   18  H   UNL     1     -11.471  10.886  68.833  1.00  0.00     0.000 HD 
HETATM   19  C   UNL     1     -11.926  12.906  68.298  1.00  0.00    -0.254 A  
HETATM   20  N   UNL     1     -11.684  13.653  67.244  1.00  0.00    -0.358 NA 
ENDBRANCH  10  11
ENDBRANCH   6  10
TORSDOF 2
ENDMDL
MODEL      234
REMARK 921   NORMALIZED FREE ENERGY PREDICTED BY IDOCK:   -3.89 KCAL/MOL
REMARK 922        TOTAL FREE ENERGY PREDICTED BY IDOCK:   -4.66 KCAL/MOL
REMARK 923 INTER-LIGAND FREE ENERGY PREDICTED BY IDOCK:   -4.23 KCAL/MOL
REMARK 924 INTRA-LIGAND FREE ENERGY PREDICTED BY IDOCK:   -0.43 KCAL/MOL
REMARK 927      BINDING AFFINITY PREDICTED BY RF-SCORE:    0.00 PKD
ROOT
HETATM    1  C   UNL     1     -10.909   6.881  67.448  1.00  0.00    -0.326 C  
HETATM    2  N   UNL     1      -9.694   7.636  67.641  1.00  0.00    -0.147 NA 
HETATM    3  C   UNL     1      -8.637   7.097  68.337  1.00  0.00    -0.123 A  
HETATM    4  N   UNL     1      -7.596   7.889  68.335  1.00  0.00    -0.106 NA 
HETATM    5  C   UNL     1      -7.986   8.986  67.591  1.00  0.00    -0.101 A  
HETATM    6  C   UNL     1      -9.312   8.871  67.157  1.00  0.00    -0.145 A  
HETATM    7  N   UNL     1      -6.994  10.008  67.312  1.00  0.00    -0.083 N  
HETATM    8  O   UNL     1      -5.835   9.802  67.692  1.00  0.00    -0.043 OA 
HETATM    9  O   UNL     1      -7.370  11.025  66.706  1.00  0.00    -0.124 OA 
ENDROOT
BRANCH   6  10
HETATM   10  S   UNL     1     -10.209   9.861  66.025  1.00  0.00    -0.144 SA 
BRANCH  10  11
HETATM   11  C   UNL     1     -10.846  11.288  66.863  1.00  0.00    -0.282 A  
HETATM   12  N   UNL     1     -10.648  12.527  66.362  1.00  0.00    -0.244 NA 
HETATM   13  C   UNL     1     -10.947  13.596  67.133  1.00  0.00    -0.288 A  
HETATM   14  N   UNL     1     -11.471  13.604  68.358  1.00  0.00    -0.288 NA 
HETATM   15  C   UNL     1     -11.651  12.370  68.854  1.00  0.00    -0.316 A  
HETATM   16  C   UNL     1     -11.327  11.212  68.163  1.00  0.00    -0.309 A  
HETATM   17  N   UNL     1     -11.547  10.212  69.079  1.00  0.00    -0.492 NA 
HETATM   18  H   UNL     1     -11.361   9.219  68.942  1.00  0.00     0.000 HD 
HETATM   19  C   UNL     1     -12.064  10.789  70.212  1.00  0.00    -0.348 A  
HETATM   20  N   UNL     1     -12.126  12.097  70.105  1.00  0.00    -0.319 NA 
ENDBRANCH  10  11
ENDBRANCH   6  10
TORSDOF 2
ENDMDL
MODEL      235
REMARK 921   NORMALIZED FREE ENERGY PREDICTED BY IDOCK:   -3.89 KCAL/MOL
REMARK 922        TOTAL FREE ENERGY PREDICTED BY IDOCK:   -4.66 KCAL/MOL
REMARK 923 INTER-LIGAND FREE ENERGY PREDICTED BY IDOCK:   -4.13 KCAL/MOL
REMARK 924 INTRA-LIGAND FREE ENERGY PREDICTED BY IDOCK:   -0.53 KCAL/MOL
REMARK 927      BINDING AFFINITY PREDICTED BY RF-SCORE:    0.00 PKD
ROOT
HETATM    1  C   UNL     1     -11.136  11.026  69.646  1.00  0.00    -0.256 C  
HETATM    2  N   UNL     1     -11.454  11.629  68.374  1.00  0.00    -0.270 NA 
HETATM    3  C   UNL     1     -11.991  12.894  68.312  1.00  0.00    -0.254 A  
HETATM    4  N   UNL     1     -12.132  13.306  67.079  1.00  0.00    -0.357 NA 
HETATM    5  C   UNL     1     -11.650  12.270  66.301  1.00  0.00    -0.385 A  
HETATM    6  C   UNL     1     -11.237  11.186  67.085  1.00  0.00    -0.249 A  
HETATM    7  N   UNL     1     -11.572  12.474  64.866  1.00  0.00    -0.328 N  
HETATM    8  O   UNL     1     -11.867  13.592  64.429  1.00  0.00    -0.389 OA 
HETATM    9  O   UNL     1     -11.207  11.513  64.168  1.00  0.00    -0.358 OA 
ENDROOT
BRANCH   6  10
HETATM   10  S   UNL     1     -10.368   9.737  66.622  1.00  0.00    -0.174 SA 
BRANCH  10  11
HETATM   11  C   UNL     1      -8.747  10.177  66.054  1.00  0.00    -0.140 A  
HETATM   12  N   UNL     1      -8.191   9.542  64.998  1.00  0.00    -0.129 NA 
HETATM   13  C   UNL     1      -6.881   9.742  64.735  1.00  0.00    -0.122 A  
HETATM   14  N   UNL     1      -6.028  10.542  65.374  1.00  0.00    -0.131 NA 
HETATM   15  C   UNL     1      -6.584  11.157  66.429  1.00  0.00    -0.108 A  
HETATM   16  C   UNL     1      -7.904  10.978  66.812  1.00  0.00    -0.149 A  
HETATM   17  N   UNL     1      -8.001  11.678  67.990  1.00  0.00    -0.124 NA 
HETATM   18  H   UNL     1      -8.821  11.726  68.596  1.00  0.00     0.000 HD 
HETATM   19  C   UNL     1      -6.798  12.301  68.207  1.00  0.00    -0.075 A  
HETATM   20  N   UNL     1      -5.919  11.992  67.281  1.00  0.00    -0.133 NA 
ENDBRANCH  10  11
ENDBRANCH   6  10
TORSDOF 2
ENDMDL
MODEL      236
REMARK 921   NORMALIZED FREE ENERGY PREDICTED BY IDOCK:   -3.85 KCAL/MOL
REMARK 922        TOTAL FREE ENERGY PREDICTED BY IDOCK:   -4.62 KCAL/MOL
REMARK 923 INTER-LIGAND FREE ENERGY PREDICTED BY IDOCK:   -4.30 KCAL/MOL
REMARK 924 INTRA-LIGAND FREE ENERGY PREDICTED BY IDOCK:   -0.32 KCAL/MOL
REMARK 927      BINDING AFFINITY PREDICTED BY RF-SCORE:    0.00 PKD
ROOT
HETATM    1  C   UNL     1     -10.455   7.401  66.889  1.00  0.00    -0.309 C  
HETATM    2  N   UNL     1      -9.371   7.814  67.747  1.00  0.00    -0.142 NA 
HETATM    3  C   UNL     1      -8.405   6.915  68.138  1.00  0.00    -0.118 A  
HETATM    4  N   UNL     1      -7.460   7.486  68.838  1.00  0.00    -0.094 NA 
HETATM    5  C   UNL     1      -7.817   8.821  68.893  1.00  0.00    -0.104 A  
HETATM    6  C   UNL     1      -9.029   9.059  68.236  1.00  0.00    -0.133 A  
HETATM    7  N   UNL     1      -6.893   9.748  69.522  1.00  0.00    -0.055 N  
HETATM    8  O   UNL     1      -5.804   9.303  69.904  1.00  0.00    -0.034 OA 
HETATM    9  O   UNL     1      -7.253  10.931  69.633  1.00  0.00    -0.140 OA 
ENDROOT
BRANCH   6  10
HETATM   10  S   UNL     1      -9.805  10.577  67.834  1.00  0.00    -0.164 SA 
BRANCH  10  11
HETATM   11  C   UNL     1      -9.866  10.760  66.071  1.00  0.00    -0.235 A  
HETATM   12  N   UNL     1      -8.817  10.390  65.304  1.00  0.00    -0.177 NA 
HETATM   13  C   UNL     1      -8.806  10.748  64.001  1.00  0.00    -0.112 A  
HETATM   14  N   UNL     1      -9.743  11.410  63.323  1.00  0.00    -0.365 NA 
HETATM   15  C   UNL     1     -10.775  11.785  64.096  1.00  0.00    -0.357 A  
HETATM   16  C   UNL     1     -10.855  11.512  65.453  1.00  0.00    -0.259 A  
HETATM   17  N   UNL     1     -11.985  12.182  65.855  1.00  0.00    -0.571 NA 
HETATM   18  H   UNL     1     -12.332  12.256  66.811  1.00  0.00     0.000 HD 
HETATM   19  C   UNL     1     -12.564  12.733  64.739  1.00  0.00    -0.446 A  
HETATM   20  N   UNL     1     -11.844  12.517  63.662  1.00  0.00    -0.486 NA 
ENDBRANCH  10  11
ENDBRANCH   6  10
TORSDOF 2
ENDMDL
MODEL      237
REMARK 921   NORMALIZED FREE ENERGY PREDICTED BY IDOCK:   -3.85 KCAL/MOL
REMARK 922        TOTAL FREE ENERGY PREDICTED BY IDOCK:   -4.62 KCAL/MOL
REMARK 923 INTER-LIGAND FREE ENERGY PREDICTED BY IDOCK:   -4.20 KCAL/MOL
REMARK 924 INTRA-LIGAND FREE ENERGY PREDICTED BY IDOCK:   -0.42 KCAL/MOL
REMARK 927      BINDING AFFINITY PREDICTED BY RF-SCORE:    0.00 PKD
ROOT
HETATM    1  C   UNL     1      -8.347   4.805  69.902  1.00  0.00    -0.068 C  
HETATM    2  N   UNL     1      -7.858   5.409  71.118  1.00  0.00    -0.102 NA 
HETATM    3  C   UNL     1      -7.136   4.670  72.027  1.00  0.00    -0.061 A  
HETATM    4  N   UNL     1      -6.705   5.402  73.020  1.00  0.00    -0.070 NA 
HETATM    5  C   UNL     1      -7.152   6.680  72.740  1.00  0.00    -0.080 A  
HETATM    6  C   UNL     1      -7.903   6.716  71.559  1.00  0.00    -0.099 A  
HETATM    7  N   UNL     1      -6.733   7.757  73.618  1.00  0.00    -0.085 N  
HETATM    8  O   UNL     1      -5.937   7.482  74.524  1.00  0.00    -0.079 OA 
HETATM    9  O   UNL     1      -7.197   8.888  73.402  1.00  0.00    -0.359 OA 
ENDROOT
BRANCH   6  10
HETATM   10  S   UNL     1      -8.505   8.092  70.658  1.00  0.00    -0.128 SA 
BRANCH  10  11
HETATM   11  C   UNL     1     -10.055   8.615  71.343  1.00  0.00    -0.254 A  
HETATM   12  N   UNL     1     -10.723   7.827  72.215  1.00  0.00    -0.248 NA 
HETATM   13  C   UNL     1     -11.994   8.151  72.540  1.00  0.00    -0.350 A  
HETATM   14  N   UNL     1     -12.702   9.205  72.137  1.00  0.00    -0.387 NA 
HETATM   15  C   UNL     1     -12.036   9.973  71.261  1.00  0.00    -0.394 A  
HETATM   16  C   UNL     1     -10.750   9.699  70.824  1.00  0.00    -0.331 A  
HETATM   17  N   UNL     1     -10.522  10.648  69.858  1.00  0.00    -0.438 NA 
HETATM   18  H   UNL     1      -9.691  10.722  69.271  1.00  0.00     0.000 HD 
HETATM   19  C   UNL     1     -11.613  11.480  69.825  1.00  0.00    -0.326 A  
HETATM   20  N   UNL     1     -12.549  11.086  70.657  1.00  0.00    -0.344 NA 
ENDBRANCH  10  11
ENDBRANCH   6  10
TORSDOF 2
ENDMDL
MODEL      238
REMARK 921   NORMALIZED FREE ENERGY PREDICTED BY IDOCK:   -3.85 KCAL/MOL
REMARK 922        TOTAL FREE ENERGY PREDICTED BY IDOCK:   -4.62 KCAL/MOL
REMARK 923 INTER-LIGAND FREE ENERGY PREDICTED BY IDOCK:   -4.14 KCAL/MOL
REMARK 924 INTRA-LIGAND FREE ENERGY PREDICTED BY IDOCK:   -0.48 KCAL/MOL
REMARK 927      BINDING AFFINITY PREDICTED BY RF-SCORE:    0.00 PKD
ROOT
HETATM    1  C   UNL     1     -12.485  13.922  69.729  1.00  0.00    -0.188 C  
HETATM    2  N   UNL     1     -12.006  12.568  69.863  1.00  0.00    -0.328 NA 
HETATM    3  C   UNL     1     -12.317  11.821  70.977  1.00  0.00    -0.282 A  
HETATM    4  N   UNL     1     -11.871  10.596  70.884  1.00  0.00    -0.341 NA 
HETATM    5  C   UNL     1     -11.257  10.534  69.647  1.00  0.00    -0.282 A  
HETATM    6  C   UNL     1     -11.302  11.767  68.987  1.00  0.00    -0.278 A  
HETATM    7  N   UNL     1     -10.750   9.249  69.201  1.00  0.00    -0.213 N  
HETATM    8  O   UNL     1     -10.967   8.266  69.919  1.00  0.00    -0.239 OA 
HETATM    9  O   UNL     1     -10.135   9.217  68.122  1.00  0.00    -0.173 OA 
ENDROOT
BRANCH   6  10
HETATM   10  S   UNL     1     -10.870  12.170  67.337  1.00  0.00    -0.258 SA 
BRANCH  10  11
HETATM   11  C   UNL     1      -9.212  12.798  67.297  1.00  0.00    -0.203 A  
HETATM   12  N   UNL     1      -8.161  11.957  67.173  1.00  0.00    -0.166 NA 
HETATM   13  C   UNL     1      -6.915  12.442  67.371  1.00  0.00    -0.149 A  
HETATM   14  N   UNL     1      -6.555  13.695  67.644  1.00  0.00    -0.169 NA 
HETATM   15  C   UNL     1      -7.606  14.519  67.779  1.00  0.00    -0.159 A  
HETATM   16  C   UNL     1      -8.923  14.109  67.648  1.00  0.00    -0.192 A  
HETATM   17  N   UNL     1      -9.649  15.224  67.991  1.00  0.00    -0.202 NA 
HETATM   18  H   UNL     1     -10.665  15.281  68.064  1.00  0.00     0.000 HD 
HETATM   19  C   UNL     1      -8.763  16.247  68.217  1.00  0.00    -0.190 A  
HETATM   20  N   UNL     1      -7.518  15.843  68.106  1.00  0.00    -0.124 NA 
ENDBRANCH  10  11
ENDBRANCH   6  10
TORSDOF 2
ENDMDL
MODEL      239
REMARK 921   NORMALIZED FREE ENERGY PREDICTED BY IDOCK:   -3.85 KCAL/MOL
REMARK 922        TOTAL FREE ENERGY PREDICTED BY IDOCK:   -4.62 KCAL/MOL
REMARK 923 INTER-LIGAND FREE ENERGY PREDICTED BY IDOCK:   -4.25 KCAL/MOL
REMARK 924 INTRA-LIGAND FREE ENERGY PREDICTED BY IDOCK:   -0.37 KCAL/MOL
REMARK 927      BINDING AFFINITY PREDICTED BY RF-SCORE:    0.00 PKD
ROOT
HETATM    1  C   UNL     1     -11.796   8.195  72.428  1.00  0.00    -0.388 C  
HETATM    2  N   UNL     1     -11.069   6.978  72.161  1.00  0.00    -0.237 NA 
HETATM    3  C   UNL     1     -10.773   6.100  73.178  1.00  0.00    -0.260 A  
HETATM    4  N   UNL     1     -10.189   5.017  72.735  1.00  0.00    -0.174 NA 
HETATM    5  C   UNL     1     -10.115   5.189  71.365  1.00  0.00    -0.200 A  
HETATM    6  C   UNL     1     -10.639   6.425  70.971  1.00  0.00    -0.234 A  
HETATM    7  N   UNL     1      -9.606   4.089  70.567  1.00  0.00    -0.179 N  
HETATM    8  O   UNL     1      -9.340   3.031  71.150  1.00  0.00    -0.116 OA 
HETATM    9  O   UNL     1      -9.475   4.277  69.346  1.00  0.00    -0.154 OA 
ENDROOT
BRANCH   6  10
HETATM   10  S   UNL     1     -10.977   7.037  69.365  1.00  0.00    -0.165 SA 
BRANCH  10  11
HETATM   11  C   UNL     1      -9.965   8.458  69.049  1.00  0.00    -0.190 A  
HETATM   12  N   UNL     1      -8.671   8.483  69.438  1.00  0.00    -0.135 NA 
HETATM   13  C   UNL     1      -7.999   9.653  69.386  1.00  0.00    -0.111 A  
HETATM   14  N   UNL     1      -8.436  10.833  68.947  1.00  0.00    -0.151 NA 
HETATM   15  C   UNL     1      -9.725  10.803  68.575  1.00  0.00    -0.182 A  
HETATM   16  C   UNL     1     -10.515   9.666  68.641  1.00  0.00    -0.210 A  
HETATM   17  N   UNL     1     -11.767  10.116  68.298  1.00  0.00    -0.681 NA 
HETATM   18  H   UNL     1     -12.624   9.564  68.292  1.00  0.00     0.000 HD 
HETATM   19  C   UNL     1     -11.656  11.443  67.964  1.00  0.00    -0.286 A  
HETATM   20  N   UNL     1     -10.432  11.886  68.134  1.00  0.00    -0.200 NA 
ENDBRANCH  10  11
ENDBRANCH   6  10
TORSDOF 2
ENDMDL
MODEL      240
REMARK 921   NORMALIZED FREE ENERGY PREDICTED BY IDOCK:   -3.85 KCAL/MOL
REMARK 922        TOTAL FREE ENERGY PREDICTED BY IDOCK:   -4.62 KCAL/MOL
REMARK 923 INTER-LIGAND FREE ENERGY PREDICTED BY IDOCK:   -3.89 KCAL/MOL
REMARK 924 INTRA-LIGAND FREE ENERGY PREDICTED BY IDOCK:   -0.72 KCAL/MOL
REMARK 927      BINDING AFFINITY PREDICTED BY RF-SCORE:    0.00 PKD
ROOT
HETATM    1  C   UNL     1      -7.203  14.242  69.045  1.00  0.00    -0.118 C  
HETATM    2  N   UNL     1      -7.394  12.831  68.815  1.00  0.00    -0.097 NA 
HETATM    3  C   UNL     1      -6.524  11.909  69.352  1.00  0.00    -0.119 A  
HETATM    4  N   UNL     1      -6.903  10.681  69.111  1.00  0.00    -0.070 NA 
HETATM    5  C   UNL     1      -8.082  10.806  68.400  1.00  0.00    -0.127 A  
HETATM    6  C   UNL     1      -8.408  12.148  68.174  1.00  0.00    -0.170 A  
HETATM    7  N   UNL     1      -8.814   9.596  68.076  1.00  0.00    -0.120 N  
HETATM    8  O   UNL     1      -8.381   8.526  68.522  1.00  0.00    -0.121 OA 
HETATM    9  O   UNL     1      -9.832   9.710  67.374  1.00  0.00    -0.157 OA 
ENDROOT
BRANCH   6  10
HETATM   10  S   UNL     1      -9.877  12.849  67.525  1.00  0.00    -0.213 SA 
BRANCH  10  11
HETATM   11  C   UNL     1     -10.980  13.245  68.855  1.00  0.00    -0.240 A  
HETATM   12  N   UNL     1     -11.149  14.526  69.252  1.00  0.00    -0.262 NA 
HETATM   13  C   UNL     1     -11.816  14.768  70.402  1.00  0.00    -0.295 A  
HETATM   14  N   UNL     1     -12.392  13.887  71.218  1.00  0.00    -0.356 NA 
HETATM   15  C   UNL     1     -12.207  12.617  70.824  1.00  0.00    -0.240 A  
HETATM   16  C   UNL     1     -11.495  12.262  69.689  1.00  0.00    -0.215 A  
HETATM   17  N   UNL     1     -11.448  10.891  69.747  1.00  0.00    -0.285 NA 
HETATM   18  H   UNL     1     -10.951  10.278  69.100  1.00  0.00     0.000 HD 
HETATM   19  C   UNL     1     -12.190  10.492  70.830  1.00  0.00    -0.388 A  
HETATM   20  N   UNL     1     -12.652  11.520  71.506  1.00  0.00    -0.303 NA 
ENDBRANCH  10  11
ENDBRANCH   6  10
TORSDOF 2
ENDMDL
MODEL      241
REMARK 921   NORMALIZED FREE ENERGY PREDICTED BY IDOCK:   -3.84 KCAL/MOL
REMARK 922        TOTAL FREE ENERGY PREDICTED BY IDOCK:   -4.61 KCAL/MOL
REMARK 923 INTER-LIGAND FREE ENERGY PREDICTED BY IDOCK:   -4.48 KCAL/MOL
REMARK 924 INTRA-LIGAND FREE ENERGY PREDICTED BY IDOCK:   -0.13 KCAL/MOL
REMARK 927      BINDING AFFINITY PREDICTED BY RF-SCORE:    0.00 PKD
ROOT
HETATM    1  C   UNL     1     -11.847  15.175  66.731  1.00  0.00     0.026 C  
HETATM    2  N   UNL     1     -10.518  15.704  66.545  1.00  0.00    -0.297 NA 
HETATM    3  C   UNL     1     -10.298  16.765  65.696  1.00  0.00    -0.265 A  
HETATM    4  N   UNL     1      -9.053  17.161  65.721  1.00  0.00    -0.512 NA 
HETATM    5  C   UNL     1      -8.435  16.333  66.639  1.00  0.00    -0.271 A  
HETATM    6  C   UNL     1      -9.324  15.386  67.160  1.00  0.00    -0.214 A  
HETATM    7  N   UNL     1      -7.047  16.599  66.972  1.00  0.00    -0.181 N  
HETATM    8  O   UNL     1      -6.519  17.601  66.474  1.00  0.00    -0.177 OA 
HETATM    9  O   UNL     1      -6.479  15.808  67.742  1.00  0.00    -0.127 OA 
ENDROOT
BRANCH   6  10
HETATM   10  S   UNL     1      -9.112  14.263  68.488  1.00  0.00    -0.165 SA 
BRANCH  10  11
HETATM   11  C   UNL     1     -10.200  12.880  68.271  1.00  0.00    -0.245 A  
HETATM   12  N   UNL     1     -11.173  12.621  69.173  1.00  0.00    -0.258 NA 
HETATM   13  C   UNL     1     -11.831  11.443  69.099  1.00  0.00    -0.345 A  
HETATM   14  N   UNL     1     -11.679  10.473  68.199  1.00  0.00    -0.401 NA 
HETATM   15  C   UNL     1     -10.701  10.732  67.316  1.00  0.00    -0.274 A  
HETATM   16  C   UNL     1      -9.934  11.886  67.340  1.00  0.00    -0.190 A  
HETATM   17  N   UNL     1      -8.992  11.673  66.363  1.00  0.00    -0.198 NA 
HETATM   18  H   UNL     1      -8.215  12.292  66.131  1.00  0.00     0.000 HD 
HETATM   19  C   UNL     1      -9.283  10.478  65.755  1.00  0.00    -0.182 A  
HETATM   20  N   UNL     1     -10.307   9.882  66.322  1.00  0.00    -0.202 NA 
ENDBRANCH  10  11
ENDBRANCH   6  10
TORSDOF 2
ENDMDL
MODEL      242
REMARK 921   NORMALIZED FREE ENERGY PREDICTED BY IDOCK:   -3.84 KCAL/MOL
REMARK 922        TOTAL FREE ENERGY PREDICTED BY IDOCK:   -4.61 KCAL/MOL
REMARK 923 INTER-LIGAND FREE ENERGY PREDICTED BY IDOCK:   -4.06 KCAL/MOL
REMARK 924 INTRA-LIGAND FREE ENERGY PREDICTED BY IDOCK:   -0.55 KCAL/MOL
REMARK 927      BINDING AFFINITY PREDICTED BY RF-SCORE:    0.00 PKD
ROOT
HETATM    1  C   UNL     1      -7.199   7.448  67.177  1.00  0.00    -0.089 C  
HETATM    2  N   UNL     1      -8.285   8.397  67.211  1.00  0.00    -0.112 NA 
HETATM    3  C   UNL     1      -9.169   8.488  66.160  1.00  0.00    -0.211 A  
HETATM    4  N   UNL     1     -10.133   9.337  66.404  1.00  0.00    -0.279 NA 
HETATM    5  C   UNL     1      -9.876   9.809  67.678  1.00  0.00    -0.165 A  
HETATM    6  C   UNL     1      -8.705   9.255  68.207  1.00  0.00    -0.129 A  
HETATM    7  N   UNL     1     -10.848  10.702  68.283  1.00  0.00    -0.221 N  
HETATM    8  O   UNL     1     -11.889  10.928  67.654  1.00  0.00    -0.572 OA 
HETATM    9  O   UNL     1     -10.575  11.179  69.397  1.00  0.00    -0.208 OA 
ENDROOT
BRANCH   6  10
HETATM   10  S   UNL     1      -8.057   9.349  69.832  1.00  0.00    -0.157 SA 
BRANCH  10  11
HETATM   11  C   UNL     1      -9.109   8.449  70.940  1.00  0.00    -0.160 A  
HETATM   12  N   UNL     1      -9.305   8.882  72.206  1.00  0.00    -0.346 NA 
HETATM   13  C   UNL     1      -9.924   8.062  73.083  1.00  0.00    -0.246 A  
HETATM   14  N   UNL     1     -10.427   6.848  72.860  1.00  0.00    -0.224 NA 
HETATM   15  C   UNL     1     -10.215   6.422  71.605  1.00  0.00    -0.196 A  
HETATM   16  C   UNL     1      -9.545   7.165  70.646  1.00  0.00    -0.165 A  
HETATM   17  N   UNL     1      -9.445   6.308  69.578  1.00  0.00    -0.141 NA 
HETATM   18  H   UNL     1      -8.958   6.493  68.701  1.00  0.00     0.000 HD 
HETATM   19  C   UNL     1     -10.119   5.157  69.901  1.00  0.00    -0.272 A  
HETATM   20  N   UNL     1     -10.585   5.196  71.129  1.00  0.00    -0.173 NA 
ENDBRANCH  10  11
ENDBRANCH   6  10
TORSDOF 2
ENDMDL
MODEL      243
REMARK 921   NORMALIZED FREE ENERGY PREDICTED BY IDOCK:   -3.84 KCAL/MOL
REMARK 922        TOTAL FREE ENERGY PREDICTED BY IDOCK:   -4.61 KCAL/MOL
REMARK 923 INTER-LIGAND FREE ENERGY PREDICTED BY IDOCK:   -4.13 KCAL/MOL
REMARK 924 INTRA-LIGAND FREE ENERGY PREDICTED BY IDOCK:   -0.48 KCAL/MOL
REMARK 927      BINDING AFFINITY PREDICTED BY RF-SCORE:    0.00 PKD
ROOT
HETATM    1  C   UNL     1      -9.337   9.204  66.699  1.00  0.00    -0.177 C  
HETATM    2  N   UNL     1      -8.929   7.857  66.383  1.00  0.00    -0.158 NA 
HETATM    3  C   UNL     1      -7.695   7.610  65.827  1.00  0.00    -0.100 A  
HETATM    4  N   UNL     1      -7.467   6.330  65.692  1.00  0.00    -0.080 NA 
HETATM    5  C   UNL     1      -8.596   5.713  66.197  1.00  0.00    -0.132 A  
HETATM    6  C   UNL     1      -9.549   6.646  66.620  1.00  0.00    -0.163 A  
HETATM    7  N   UNL     1      -8.599   4.264  66.286  1.00  0.00    -0.112 N  
HETATM    8  O   UNL     1      -7.560   3.667  65.977  1.00  0.00    -0.079 OA 
HETATM    9  O   UNL     1      -9.643   3.714  66.672  1.00  0.00    -0.199 OA 
ENDROOT
BRANCH   6  10
HETATM   10  S   UNL     1     -11.034   6.403  67.516  1.00  0.00    -0.318 SA 
BRANCH  10  11
HETATM   11  C   UNL     1     -10.676   6.357  69.252  1.00  0.00    -0.292 A  
HETATM   12  N   UNL     1     -10.361   5.192  69.860  1.00  0.00    -0.294 NA 
HETATM   13  C   UNL     1     -10.315   5.154  71.210  1.00  0.00    -0.205 A  
HETATM   14  N   UNL     1     -10.506   6.157  72.066  1.00  0.00    -0.206 NA 
HETATM   15  C   UNL     1     -10.832   7.307  71.455  1.00  0.00    -0.230 A  
HETATM   16  C   UNL     1     -10.955   7.435  70.080  1.00  0.00    -0.255 A  
HETATM   17  N   UNL     1     -11.422   8.716  69.912  1.00  0.00    -0.449 NA 
HETATM   18  H   UNL     1     -11.686   9.149  69.026  1.00  0.00     0.000 HD 
HETATM   19  C   UNL     1     -11.468   9.310  71.148  1.00  0.00    -0.333 A  
HETATM   20  N   UNL     1     -11.127   8.474  72.101  1.00  0.00    -0.345 NA 
ENDBRANCH  10  11
ENDBRANCH   6  10
TORSDOF 2
ENDMDL
MODEL      244
REMARK 921   NORMALIZED FREE ENERGY PREDICTED BY IDOCK:   -3.84 KCAL/MOL
REMARK 922        TOTAL FREE ENERGY PREDICTED BY IDOCK:   -4.60 KCAL/MOL
REMARK 923 INTER-LIGAND FREE ENERGY PREDICTED BY IDOCK:   -3.85 KCAL/MOL
REMARK 924 INTRA-LIGAND FREE ENERGY PREDICTED BY IDOCK:   -0.75 KCAL/MOL
REMARK 927      BINDING AFFINITY PREDICTED BY RF-SCORE:    0.00 PKD
ROOT
HETATM    1  C   UNL     1     -12.943   8.608  71.903  1.00  0.00    -0.372 C  
HETATM    2  N   UNL     1     -11.840   8.843  71.005  1.00  0.00    -0.285 NA 
HETATM    3  C   UNL     1     -11.333  10.111  70.833  1.00  0.00    -0.340 A  
HETATM    4  N   UNL     1     -10.285  10.116  70.051  1.00  0.00    -0.248 NA 
HETATM    5  C   UNL     1     -10.089   8.791  69.710  1.00  0.00    -0.196 A  
HETATM    6  C   UNL     1     -11.066   7.963  70.275  1.00  0.00    -0.229 A  
HETATM    7  N   UNL     1      -8.915   8.456  68.925  1.00  0.00    -0.146 N  
HETATM    8  O   UNL     1      -8.116   9.365  68.670  1.00  0.00    -0.101 OA 
HETATM    9  O   UNL     1      -8.785   7.275  68.561  1.00  0.00    -0.124 OA 
ENDROOT
BRANCH   6  10
HETATM   10  S   UNL     1     -11.154   6.215  70.334  1.00  0.00    -0.347 SA 
BRANCH  10  11
HETATM   11  C   UNL     1     -10.426   5.637  71.843  1.00  0.00    -0.225 A  
HETATM   12  N   UNL     1     -11.202   5.303  72.898  1.00  0.00    -0.300 NA 
HETATM   13  C   UNL     1     -10.613   5.085  74.095  1.00  0.00    -0.288 A  
HETATM   14  N   UNL     1      -9.314   5.114  74.389  1.00  0.00    -0.121 NA 
HETATM   15  C   UNL     1      -8.552   5.460  73.339  1.00  0.00    -0.116 A  
HETATM   16  C   UNL     1      -9.064   5.754  72.085  1.00  0.00    -0.143 A  
HETATM   17  N   UNL     1      -7.967   6.176  71.374  1.00  0.00    -0.111 NA 
HETATM   18  H   UNL     1      -7.969   6.531  70.418  1.00  0.00     0.000 HD 
HETATM   19  C   UNL     1      -6.866   6.032  72.181  1.00  0.00    -0.073 A  
HETATM   20  N   UNL     1      -7.195   5.611  73.381  1.00  0.00    -0.086 NA 
ENDBRANCH  10  11
ENDBRANCH   6  10
TORSDOF 2
ENDMDL
MODEL      245
REMARK 921   NORMALIZED FREE ENERGY PREDICTED BY IDOCK:   -3.83 KCAL/MOL
REMARK 922        TOTAL FREE ENERGY PREDICTED BY IDOCK:   -4.59 KCAL/MOL
REMARK 923 INTER-LIGAND FREE ENERGY PREDICTED BY IDOCK:   -4.25 KCAL/MOL
REMARK 924 INTRA-LIGAND FREE ENERGY PREDICTED BY IDOCK:   -0.34 KCAL/MOL
REMARK 927      BINDING AFFINITY PREDICTED BY RF-SCORE:    0.00 PKD
ROOT
HETATM    1  C   UNL     1      -7.274   9.421  67.415  1.00  0.00    -0.087 C  
HETATM    2  N   UNL     1      -8.429  10.211  67.065  1.00  0.00    -0.129 NA 
HETATM    3  C   UNL     1      -8.595  10.679  65.782  1.00  0.00    -0.181 A  
HETATM    4  N   UNL     1      -9.737  11.298  65.631  1.00  0.00    -0.220 NA 
HETATM    5  C   UNL     1     -10.351  11.216  66.867  1.00  0.00    -0.231 A  
HETATM    6  C   UNL     1      -9.544  10.557  67.801  1.00  0.00    -0.156 A  
HETATM    7  N   UNL     1     -11.705  11.725  66.991  1.00  0.00    -0.248 N  
HETATM    8  O   UNL     1     -12.260  12.134  65.964  1.00  0.00    -0.609 OA 
HETATM    9  O   UNL     1     -12.222  11.714  68.119  1.00  0.00    -0.537 OA 
ENDROOT
BRANCH   6  10
HETATM   10  S   UNL     1      -9.926  10.007  69.420  1.00  0.00    -0.235 SA 
BRANCH  10  11
HETATM   11  C   UNL     1     -10.002   8.236  69.439  1.00  0.00    -0.188 A  
HETATM   12  N   UNL     1     -10.875   7.576  68.646  1.00  0.00    -0.076 NA 
HETATM   13  C   UNL     1     -11.064   6.253  68.847  1.00  0.00    -0.362 A  
HETATM   14  N   UNL     1     -10.456   5.461  69.730  1.00  0.00    -0.307 NA 
HETATM   15  C   UNL     1      -9.602   6.128  70.522  1.00  0.00    -0.168 A  
HETATM   16  C   UNL     1      -9.377   7.492  70.431  1.00  0.00    -0.161 A  
HETATM   17  N   UNL     1      -8.551   7.761  71.495  1.00  0.00    -0.114 NA 
HETATM   18  H   UNL     1      -8.219   8.682  71.782  1.00  0.00     0.000 HD 
HETATM   19  C   UNL     1      -8.254   6.568  72.104  1.00  0.00    -0.107 A  
HETATM   20  N   UNL     1      -8.887   5.564  71.541  1.00  0.00    -0.135 NA 
ENDBRANCH  10  11
ENDBRANCH   6  10
TORSDOF 2
ENDMDL
MODEL      246
REMARK 921   NORMALIZED FREE ENERGY PREDICTED BY IDOCK:   -3.81 KCAL/MOL
REMARK 922        TOTAL FREE ENERGY PREDICTED BY IDOCK:   -4.58 KCAL/MOL
REMARK 923 INTER-LIGAND FREE ENERGY PREDICTED BY IDOCK:   -4.15 KCAL/MOL
REMARK 924 INTRA-LIGAND FREE ENERGY PREDICTED BY IDOCK:   -0.43 KCAL/MOL
REMARK 927      BINDING AFFINITY PREDICTED BY RF-SCORE:    0.00 PKD
ROOT
HETATM    1  C   UNL     1     -11.673  15.037  64.914  1.00  0.00    -0.336 C  
HETATM    2  N   UNL     1     -10.688  15.539  65.840  1.00  0.00    -0.331 NA 
HETATM    3  C   UNL     1     -10.156  16.798  65.684  1.00  0.00    -0.189 A  
HETATM    4  N   UNL     1      -9.348  17.113  66.663  1.00  0.00    -0.250 NA 
HETATM    5  C   UNL     1      -9.366  16.016  67.504  1.00  0.00    -0.217 A  
HETATM    6  C   UNL     1     -10.182  14.995  67.004  1.00  0.00    -0.257 A  
HETATM    7  N   UNL     1      -8.640  16.107  68.758  1.00  0.00    -0.223 N  
HETATM    8  O   UNL     1      -8.109  17.189  69.037  1.00  0.00    -0.220 OA 
HETATM    9  O   UNL     1      -8.600  15.094  69.474  1.00  0.00    -0.215 OA 
ENDROOT
BRANCH   6  10
HETATM   10  S   UNL     1     -10.713  13.511  67.768  1.00  0.00    -0.256 SA 
BRANCH  10  11
HETATM   11  C   UNL     1      -9.778  12.149  67.126  1.00  0.00    -0.199 A  
HETATM   12  N   UNL     1      -9.959  11.729  65.853  1.00  0.00    -0.229 NA 
HETATM   13  C   UNL     1      -9.401  10.560  65.470  1.00  0.00    -0.202 A  
HETATM   14  N   UNL     1      -8.631   9.742  66.187  1.00  0.00    -0.126 NA 
HETATM   15  C   UNL     1      -8.469  10.160  67.452  1.00  0.00    -0.122 A  
HETATM   16  C   UNL     1      -9.042  11.317  67.957  1.00  0.00    -0.156 A  
HETATM   17  N   UNL     1      -8.729  11.281  69.294  1.00  0.00    -0.370 NA 
HETATM   18  H   UNL     1      -9.035  11.949  70.002  1.00  0.00     0.000 HD 
HETATM   19  C   UNL     1      -7.930  10.185  69.507  1.00  0.00    -0.165 A  
HETATM   20  N   UNL     1      -7.767   9.483  68.409  1.00  0.00    -0.085 NA 
ENDBRANCH  10  11
ENDBRANCH   6  10
TORSDOF 2
ENDMDL
MODEL      247
REMARK 921   NORMALIZED FREE ENERGY PREDICTED BY IDOCK:   -3.81 KCAL/MOL
REMARK 922        TOTAL FREE ENERGY PREDICTED BY IDOCK:   -4.57 KCAL/MOL
REMARK 923 INTER-LIGAND FREE ENERGY PREDICTED BY IDOCK:   -4.34 KCAL/MOL
REMARK 924 INTRA-LIGAND FREE ENERGY PREDICTED BY IDOCK:   -0.23 KCAL/MOL
REMARK 927      BINDING AFFINITY PREDICTED BY RF-SCORE:    0.00 PKD
ROOT
HETATM    1  C   UNL     1     -11.503  11.158  66.737  1.00  0.00     0.085 C  
HETATM    2  N   UNL     1     -11.306  12.542  66.382  1.00  0.00    -0.310 NA 
HETATM    3  C   UNL     1     -11.939  13.081  65.285  1.00  0.00    -0.407 A  
HETATM    4  N   UNL     1     -11.711  14.364  65.170  1.00  0.00    -0.358 NA 
HETATM    5  C   UNL     1     -10.907  14.679  66.249  1.00  0.00    -0.321 A  
HETATM    6  C   UNL     1     -10.612  13.550  67.021  1.00  0.00    -0.269 A  
HETATM    7  N   UNL     1     -10.567  16.075  66.461  1.00  0.00    -0.305 N  
HETATM    8  O   UNL     1     -11.081  16.911  65.709  1.00  0.00     0.006 OA 
HETATM    9  O   UNL     1      -9.786  16.342  67.389  1.00  0.00    -0.230 OA 
ENDROOT
BRANCH   6  10
HETATM   10  S   UNL     1      -9.828  13.435  68.583  1.00  0.00    -0.041 SA 
BRANCH  10  11
HETATM   11  C   UNL     1     -11.025  12.993  69.814  1.00  0.00     0.306 A  
HETATM   12  N   UNL     1     -11.463  11.718  69.923  1.00  0.00    -0.248 NA 
HETATM   13  C   UNL     1     -12.529  11.463  70.712  1.00  0.00    -0.365 A  
HETATM   14  N   UNL     1     -13.220  12.319  71.463  1.00  0.00    -0.276 NA 
HETATM   15  C   UNL     1     -12.787  13.584  71.338  1.00  0.00    -0.355 A  
HETATM   16  C   UNL     1     -11.736  13.957  70.516  1.00  0.00    -0.160 A  
HETATM   17  N   UNL     1     -11.728  15.328  70.595  1.00  0.00    -0.302 NA 
HETATM   18  H   UNL     1     -11.119  15.957  70.072  1.00  0.00     0.000 HD 
HETATM   19  C   UNL     1     -12.686  15.699  71.504  1.00  0.00    -0.457 A  
HETATM   20  N   UNL     1     -13.350  14.662  71.961  1.00  0.00    -0.337 NA 
ENDBRANCH  10  11
ENDBRANCH   6  10
TORSDOF 2
ENDMDL
MODEL      248
REMARK 921   NORMALIZED FREE ENERGY PREDICTED BY IDOCK:   -3.81 KCAL/MOL
REMARK 922        TOTAL FREE ENERGY PREDICTED BY IDOCK:   -4.57 KCAL/MOL
REMARK 923 INTER-LIGAND FREE ENERGY PREDICTED BY IDOCK:   -4.16 KCAL/MOL
REMARK 924 INTRA-LIGAND FREE ENERGY PREDICTED BY IDOCK:   -0.40 KCAL/MOL
REMARK 927      BINDING AFFINITY PREDICTED BY RF-SCORE:    0.00 PKD
ROOT
HETATM    1  C   UNL     1      -9.946   4.503  70.146  1.00  0.00    -0.208 C  
HETATM    2  N   UNL     1      -9.956   5.943  70.059  1.00  0.00    -0.173 NA 
HETATM    3  C   UNL     1      -9.368   6.709  71.040  1.00  0.00    -0.160 A  
HETATM    4  N   UNL     1      -9.399   7.983  70.750  1.00  0.00    -0.156 NA 
HETATM    5  C   UNL     1     -10.020   8.052  69.517  1.00  0.00    -0.186 A  
HETATM    6  C   UNL     1     -10.407   6.785  69.063  1.00  0.00    -0.195 A  
HETATM    7  N   UNL     1     -10.107   9.347  68.868  1.00  0.00    -0.183 N  
HETATM    8  O   UNL     1      -9.551  10.304  69.420  1.00  0.00    -0.213 OA 
HETATM    9  O   UNL     1     -10.731   9.413  67.796  1.00  0.00    -0.265 OA 
ENDROOT
BRANCH   6  10
HETATM   10  S   UNL     1     -11.025   6.298  67.498  1.00  0.00    -0.287 SA 
BRANCH  10  11
HETATM   11  C   UNL     1      -9.746   5.474  66.588  1.00  0.00    -0.159 A  
HETATM   12  N   UNL     1      -8.447   5.793  66.784  1.00  0.00    -0.112 NA 
HETATM   13  C   UNL     1      -7.523   5.314  65.922  1.00  0.00    -0.082 A  
HETATM   14  N   UNL     1      -7.712   4.501  64.883  1.00  0.00    -0.080 NA 
HETATM   15  C   UNL     1      -9.005   4.201  64.688  1.00  0.00    -0.141 A  
HETATM   16  C   UNL     1     -10.033   4.684  65.483  1.00  0.00    -0.183 A  
HETATM   17  N   UNL     1     -11.170   4.241  64.854  1.00  0.00    -1.021 NA 
HETATM   18  H   UNL     1     -12.130   4.454  65.126  1.00  0.00     0.000 HD 
HETATM   19  C   UNL     1     -10.784   3.459  63.795  1.00  0.00    -0.244 A  
HETATM   20  N   UNL     1      -9.478   3.428  63.665  1.00  0.00    -0.116 NA 
ENDBRANCH  10  11
ENDBRANCH   6  10
TORSDOF 2
ENDMDL
MODEL      249
REMARK 921   NORMALIZED FREE ENERGY PREDICTED BY IDOCK:   -3.79 KCAL/MOL
REMARK 922        TOTAL FREE ENERGY PREDICTED BY IDOCK:   -4.56 KCAL/MOL
REMARK 923 INTER-LIGAND FREE ENERGY PREDICTED BY IDOCK:   -4.14 KCAL/MOL
REMARK 924 INTRA-LIGAND FREE ENERGY PREDICTED BY IDOCK:   -0.42 KCAL/MOL
REMARK 927      BINDING AFFINITY PREDICTED BY RF-SCORE:    0.00 PKD
ROOT
HETATM    1  C   UNL     1      -6.974  10.539  69.055  1.00  0.00    -0.076 C  
HETATM    2  N   UNL     1      -8.413  10.501  69.149  1.00  0.00    -0.154 NA 
HETATM    3  C   UNL     1      -9.032   9.804  70.161  1.00  0.00    -0.195 A  
HETATM    4  N   UNL     1     -10.330   9.954  70.136  1.00  0.00    -0.270 NA 
HETATM    5  C   UNL     1     -10.569  10.799  69.068  1.00  0.00    -0.219 A  
HETATM    6  C   UNL     1      -9.385  11.144  68.408  1.00  0.00    -0.185 A  
HETATM    7  N   UNL     1     -11.932  11.248  68.846  1.00  0.00    -0.344 N  
HETATM    8  O   UNL     1     -12.790  10.909  69.670  1.00  0.00    -0.197 OA 
HETATM    9  O   UNL     1     -12.150  11.947  67.843  1.00  0.00    -0.558 OA 
ENDROOT
BRANCH   6  10
HETATM   10  S   UNL     1      -9.109  12.334  67.153  1.00  0.00    -0.199 SA 
BRANCH  10  11
HETATM   11  C   UNL     1      -9.050  13.953  67.875  1.00  0.00    -0.194 A  
HETATM   12  N   UNL     1     -10.163  14.515  68.395  1.00  0.00    -0.233 NA 
HETATM   13  C   UNL     1     -10.135  15.824  68.730  1.00  0.00    -0.215 A  
HETATM   14  N   UNL     1      -9.107  16.669  68.654  1.00  0.00    -0.237 NA 
HETATM   15  C   UNL     1      -8.011  16.106  68.123  1.00  0.00    -0.148 A  
HETATM   16  C   UNL     1      -7.954  14.787  67.701  1.00  0.00    -0.176 A  
HETATM   17  N   UNL     1      -6.715  14.682  67.117  1.00  0.00    -0.348 NA 
HETATM   18  H   UNL     1      -6.342  13.861  66.640  1.00  0.00     0.000 HD 
HETATM   19  C   UNL     1      -6.068  15.880  67.293  1.00  0.00    -0.051 A  
HETATM   20  N   UNL     1      -6.836  16.763  67.889  1.00  0.00    -0.140 NA 
ENDBRANCH  10  11
ENDBRANCH   6  10
TORSDOF 2
ENDMDL
MODEL      250
REMARK 921   NORMALIZED FREE ENERGY PREDICTED BY IDOCK:   -3.79 KCAL/MOL
REMARK 922        TOTAL FREE ENERGY PREDICTED BY IDOCK:   -4.55 KCAL/MOL
REMARK 923 INTER-LIGAND FREE ENERGY PREDICTED BY IDOCK:   -4.11 KCAL/MOL
REMARK 924 INTRA-LIGAND FREE ENERGY PREDICTED BY IDOCK:   -0.44 KCAL/MOL
REMARK 927      BINDING AFFINITY PREDICTED BY RF-SCORE:    0.00 PKD
ROOT
HETATM    1  C   UNL     1     -10.795  17.217  67.424  1.00  0.00    -0.164 C  
HETATM    2  N   UNL     1      -9.602  16.516  67.831  1.00  0.00    -0.231 NA 
HETATM    3  C   UNL     1      -8.872  16.946  68.915  1.00  0.00    -0.216 A  
HETATM    4  N   UNL     1      -7.878  16.141  69.186  1.00  0.00    -0.231 NA 
HETATM    5  C   UNL     1      -7.973  15.131  68.246  1.00  0.00    -0.129 A  
HETATM    6  C   UNL     1      -9.035  15.349  67.361  1.00  0.00    -0.191 A  
HETATM    7  N   UNL     1      -7.057  14.010  68.356  1.00  0.00    -0.092 N  
HETATM    8  O   UNL     1      -6.295  13.985  69.330  1.00  0.00    -0.098 OA 
HETATM    9  O   UNL     1      -7.100  13.144  67.467  1.00  0.00    -0.148 OA 
ENDROOT
BRANCH   6  10
HETATM   10  S   UNL     1      -9.712  14.287  66.144  1.00  0.00    -0.279 SA 
BRANCH  10  11
HETATM   11  C   UNL     1     -10.309  12.807  66.916  1.00  0.00    -0.238 A  
HETATM   12  N   UNL     1     -10.313  11.634  66.246  1.00  0.00    -0.227 NA 
HETATM   13  C   UNL     1     -10.976  10.584  66.778  1.00  0.00    -0.080 A  
HETATM   14  N   UNL     1     -11.623  10.524  67.941  1.00  0.00    -0.428 NA 
HETATM   15  C   UNL     1     -11.626  11.697  68.593  1.00  0.00    -0.312 A  
HETATM   16  C   UNL     1     -11.020  12.845  68.108  1.00  0.00    -0.248 A  
HETATM   17  N   UNL     1     -11.378  13.813  69.014  1.00  0.00    -0.272 NA 
HETATM   18  H   UNL     1     -11.158  14.808  68.951  1.00  0.00     0.000 HD 
HETATM   19  C   UNL     1     -12.084  13.203  70.020  1.00  0.00    -0.305 A  
HETATM   20  N   UNL     1     -12.258  11.923  69.783  1.00  0.00    -0.219 NA 
ENDBRANCH  10  11
ENDBRANCH   6  10
TORSDOF 2
ENDMDL
MODEL      251
REMARK 921   NORMALIZED FREE ENERGY PREDICTED BY IDOCK:   -3.79 KCAL/MOL
REMARK 922        TOTAL FREE ENERGY PREDICTED BY IDOCK:   -4.55 KCAL/MOL
REMARK 923 INTER-LIGAND FREE ENERGY PREDICTED BY IDOCK:   -4.05 KCAL/MOL
REMARK 924 INTRA-LIGAND FREE ENERGY PREDICTED BY IDOCK:   -0.50 KCAL/MOL
REMARK 927      BINDING AFFINITY PREDICTED BY RF-SCORE:    0.00 PKD
ROOT
HETATM    1  C   UNL     1     -10.401   9.195  71.098  1.00  0.00    -0.317 C  
HETATM    2  N   UNL     1     -10.880   9.825  69.892  1.00  0.00    -0.255 NA 
HETATM    3  C   UNL     1     -12.042  10.561  69.898  1.00  0.00    -0.245 A  
HETATM    4  N   UNL     1     -12.270  11.125  68.741  1.00  0.00    -0.535 NA 
HETATM    5  C   UNL     1     -11.200  10.754  67.948  1.00  0.00    -0.318 A  
HETATM    6  C   UNL     1     -10.316   9.914  68.635  1.00  0.00    -0.195 A  
HETATM    7  N   UNL     1     -11.110  11.323  66.615  1.00  0.00    -0.273 N  
HETATM    8  O   UNL     1     -11.955  12.167  66.293  1.00  0.00    -0.605 OA 
HETATM    9  O   UNL     1     -10.187  10.929  65.884  1.00  0.00    -0.242 OA 
ENDROOT
BRANCH   6  10
HETATM   10  S   UNL     1      -8.725   9.346  68.172  1.00  0.00    -0.124 SA 
BRANCH  10  11
HETATM   11  C   UNL     1      -7.493  10.203  69.116  1.00  0.00    -0.098 A  
HETATM   12  N   UNL     1      -6.942   9.631  70.209  1.00  0.00    -0.103 NA 
HETATM   13  C   UNL     1      -6.181  10.392  71.026  1.00  0.00     0.111 A  
HETATM   14  N   UNL     1      -5.848  11.674  70.882  1.00  0.00    -0.361 NA 
HETATM   15  C   UNL     1      -6.411  12.237  69.802  1.00  0.00    -0.038 A  
HETATM   16  C   UNL     1      -7.248  11.557  68.931  1.00  0.00    -0.117 A  
HETATM   17  N   UNL     1      -7.688  12.533  68.070  1.00  0.00    -0.128 NA 
HETATM   18  H   UNL     1      -8.371  12.412  67.322  1.00  0.00     0.000 HD 
HETATM   19  C   UNL     1      -7.044  13.700  68.397  1.00  0.00    -0.107 A  
HETATM   20  N   UNL     1      -6.274  13.550  69.450  1.00  0.00    -0.102 NA 
ENDBRANCH  10  11
ENDBRANCH   6  10
TORSDOF 2
ENDMDL
MODEL      252
REMARK 921   NORMALIZED FREE ENERGY PREDICTED BY IDOCK:   -3.78 KCAL/MOL
REMARK 922        TOTAL FREE ENERGY PREDICTED BY IDOCK:   -4.54 KCAL/MOL
REMARK 923 INTER-LIGAND FREE ENERGY PREDICTED BY IDOCK:   -4.27 KCAL/MOL
REMARK 924 INTRA-LIGAND FREE ENERGY PREDICTED BY IDOCK:   -0.28 KCAL/MOL
REMARK 927      BINDING AFFINITY PREDICTED BY RF-SCORE:    0.00 PKD
ROOT
HETATM    1  C   UNL     1      -8.413   9.906  63.547  1.00  0.00    -0.183 C  
HETATM    2  N   UNL     1      -9.208  10.883  64.250  1.00  0.00    -0.209 NA 
HETATM    3  C   UNL     1      -9.958  11.806  63.557  1.00  0.00    -0.408 A  
HETATM    4  N   UNL     1     -10.677  12.550  64.356  1.00  0.00    -0.325 NA 
HETATM    5  C   UNL     1     -10.396  12.082  65.626  1.00  0.00    -0.253 A  
HETATM    6  C   UNL     1      -9.455  11.047  65.598  1.00  0.00    -0.217 A  
HETATM    7  N   UNL     1     -11.136  12.646  66.740  1.00  0.00    -0.266 N  
HETATM    8  O   UNL     1     -12.032  13.459  66.481  1.00  0.00    -0.374 OA 
HETATM    9  O   UNL     1     -10.827  12.274  67.884  1.00  0.00    -0.205 OA 
ENDROOT
BRANCH   6  10
HETATM   10  S   UNL     1      -8.923   9.982  66.883  1.00  0.00    -0.135 SA 
BRANCH  10  11
HETATM   11  C   UNL     1      -9.512   8.339  66.571  1.00  0.00    -0.220 A  
HETATM   12  N   UNL     1     -10.701   7.928  67.065  1.00  0.00    -0.306 NA 
HETATM   13  C   UNL     1     -11.012   6.615  67.000  1.00  0.00    -0.393 A  
HETATM   14  N   UNL     1     -10.300   5.627  66.458  1.00  0.00    -0.232 NA 
HETATM   15  C   UNL     1      -9.116   6.042  65.983  1.00  0.00    -0.129 A  
HETATM   16  C   UNL     1      -8.681   7.357  66.048  1.00  0.00    -0.153 A  
HETATM   17  N   UNL     1      -7.393   7.300  65.576  1.00  0.00    -0.072 NA 
HETATM   18  H   UNL     1      -6.734   8.078  65.532  1.00  0.00     0.000 HD 
HETATM   19  C   UNL     1      -7.151   6.010  65.175  1.00  0.00    -0.064 A  
HETATM   20  N   UNL     1      -8.175   5.226  65.422  1.00  0.00    -0.121 NA 
ENDBRANCH  10  11
ENDBRANCH   6  10
TORSDOF 2
ENDMDL
MODEL      253
REMARK 921   NORMALIZED FREE ENERGY PREDICTED BY IDOCK:   -3.78 KCAL/MOL
REMARK 922        TOTAL FREE ENERGY PREDICTED BY IDOCK:   -4.53 KCAL/MOL
REMARK 923 INTER-LIGAND FREE ENERGY PREDICTED BY IDOCK:   -4.01 KCAL/MOL
REMARK 924 INTRA-LIGAND FREE ENERGY PREDICTED BY IDOCK:   -0.53 KCAL/MOL
REMARK 927      BINDING AFFINITY PREDICTED BY RF-SCORE:    0.00 PKD
ROOT
HETATM    1  C   UNL     1     -11.504   8.180  72.641  1.00  0.00    -0.387 C  
HETATM    2  N   UNL     1     -10.979   7.348  71.586  1.00  0.00    -0.224 NA 
HETATM    3  C   UNL     1     -11.743   6.344  71.038  1.00  0.00    -0.296 A  
HETATM    4  N   UNL     1     -11.136   5.755  70.041  1.00  0.00    -0.328 NA 
HETATM    5  C   UNL     1      -9.928   6.416  69.922  1.00  0.00    -0.168 A  
HETATM    6  C   UNL     1      -9.785   7.411  70.896  1.00  0.00    -0.169 A  
HETATM    7  N   UNL     1      -9.062   6.057  68.814  1.00  0.00    -0.124 N  
HETATM    8  O   UNL     1      -9.488   5.234  67.994  1.00  0.00    -0.114 OA 
HETATM    9  O   UNL     1      -7.947   6.602  68.755  1.00  0.00    -0.115 OA 
ENDROOT
BRANCH   6  10
HETATM   10  S   UNL     1      -8.564   8.657  71.052  1.00  0.00    -0.190 SA 
BRANCH  10  11
HETATM   11  C   UNL     1      -8.773   9.855  69.762  1.00  0.00    -0.212 A  
HETATM   12  N   UNL     1      -7.704  10.339  69.092  1.00  0.00    -0.107 NA 
HETATM   13  C   UNL     1      -7.874  11.405  68.280  1.00  0.00    -0.132 A  
HETATM   14  N   UNL     1      -9.005  12.053  68.001  1.00  0.00    -0.181 NA 
HETATM   15  C   UNL     1     -10.059  11.574  68.681  1.00  0.00    -0.207 A  
HETATM   16  C   UNL     1      -9.978  10.519  69.576  1.00  0.00    -0.158 A  
HETATM   17  N   UNL     1     -11.235  10.458  70.125  1.00  0.00    -0.301 NA 
HETATM   18  H   UNL     1     -11.536   9.832  70.872  1.00  0.00     0.000 HD 
HETATM   19  C   UNL     1     -12.015  11.390  69.487  1.00  0.00    -0.341 A  
HETATM   20  N   UNL     1     -11.323  12.087  68.616  1.00  0.00    -0.251 NA 
ENDBRANCH  10  11
ENDBRANCH   6  10
TORSDOF 2
ENDMDL
MODEL      254
REMARK 921   NORMALIZED FREE ENERGY PREDICTED BY IDOCK:   -3.77 KCAL/MOL
REMARK 922        TOTAL FREE ENERGY PREDICTED BY IDOCK:   -4.53 KCAL/MOL
REMARK 923 INTER-LIGAND FREE ENERGY PREDICTED BY IDOCK:   -4.06 KCAL/MOL
REMARK 924 INTRA-LIGAND FREE ENERGY PREDICTED BY IDOCK:   -0.46 KCAL/MOL
REMARK 927      BINDING AFFINITY PREDICTED BY RF-SCORE:    0.00 PKD
ROOT
HETATM    1  C   UNL     1     -10.551  14.912  64.871  1.00  0.00    -0.391 C  
HETATM    2  N   UNL     1     -10.443  13.483  65.040  1.00  0.00    -0.356 NA 
HETATM    3  C   UNL     1     -10.545  12.639  63.958  1.00  0.00    -0.427 A  
HETATM    4  N   UNL     1     -10.337  11.392  64.290  1.00  0.00    -0.299 NA 
HETATM    5  C   UNL     1     -10.070  11.425  65.646  1.00  0.00    -0.248 A  
HETATM    6  C   UNL     1     -10.152  12.725  66.156  1.00  0.00    -0.266 A  
HETATM    7  N   UNL     1      -9.684  10.185  66.295  1.00  0.00    -0.206 N  
HETATM    8  O   UNL     1      -9.541   9.184  65.583  1.00  0.00    -0.262 OA 
HETATM    9  O   UNL     1      -9.517  10.208  67.526  1.00  0.00    -0.149 OA 
ENDROOT
BRANCH   6  10
HETATM   10  S   UNL     1      -9.704  13.339  67.735  1.00  0.00    -0.224 SA 
BRANCH  10  11
HETATM   11  C   UNL     1      -7.994  13.807  67.723  1.00  0.00    -0.169 A  
HETATM   12  N   UNL     1      -7.027  12.888  67.941  1.00  0.00    -0.105 NA 
HETATM   13  C   UNL     1      -5.761  13.313  68.148  1.00  0.00    -0.101 A  
HETATM   14  N   UNL     1      -5.301  14.564  68.126  1.00  0.00    -0.115 NA 
HETATM   15  C   UNL     1      -6.269  15.470  67.922  1.00  0.00    -0.150 A  
HETATM   16  C   UNL     1      -7.605  15.139  67.752  1.00  0.00    -0.155 A  
HETATM   17  N   UNL     1      -8.241  16.356  67.710  1.00  0.00    -0.153 NA 
HETATM   18  H   UNL     1      -9.248  16.506  67.650  1.00  0.00     0.000 HD 
HETATM   19  C   UNL     1      -7.278  17.333  67.763  1.00  0.00    -0.159 A  
HETATM   20  N   UNL     1      -6.076  16.822  67.904  1.00  0.00    -0.126 NA 
ENDBRANCH  10  11
ENDBRANCH   6  10
TORSDOF 2
ENDMDL
MODEL      255
REMARK 921   NORMALIZED FREE ENERGY PREDICTED BY IDOCK:   -3.74 KCAL/MOL
REMARK 922        TOTAL FREE ENERGY PREDICTED BY IDOCK:   -4.50 KCAL/MOL
REMARK 923 INTER-LIGAND FREE ENERGY PREDICTED BY IDOCK:   -3.74 KCAL/MOL
REMARK 924 INTRA-LIGAND FREE ENERGY PREDICTED BY IDOCK:   -0.75 KCAL/MOL
REMARK 927      BINDING AFFINITY PREDICTED BY RF-SCORE:    0.00 PKD
ROOT
HETATM    1  C   UNL     1     -10.193   9.167  66.718  1.00  0.00    -0.261 C  
HETATM    2  N   UNL     1      -9.178   9.592  67.651  1.00  0.00    -0.124 NA 
HETATM    3  C   UNL     1      -8.877  10.926  67.801  1.00  0.00    -0.135 A  
HETATM    4  N   UNL     1      -7.999  11.126  68.748  1.00  0.00    -0.143 NA 
HETATM    5  C   UNL     1      -7.726   9.867  69.251  1.00  0.00    -0.109 A  
HETATM    6  C   UNL     1      -8.434   8.874  68.566  1.00  0.00    -0.129 A  
HETATM    7  N   UNL     1      -6.852   9.769  70.406  1.00  0.00    -0.120 N  
HETATM    8  O   UNL     1      -6.464  10.824  70.924  1.00  0.00    -0.343 OA 
HETATM    9  O   UNL     1      -6.554   8.632  70.806  1.00  0.00    -0.038 OA 
ENDROOT
BRANCH   6  10
HETATM   10  S   UNL     1      -8.613   7.170  68.934  1.00  0.00    -0.128 SA 
BRANCH  10  11
HETATM   11  C   UNL     1      -9.965   6.948  70.058  1.00  0.00    -0.180 A  
HETATM   12  N   UNL     1     -11.217   6.734  69.595  1.00  0.00    -0.300 NA 
HETATM   13  C   UNL     1     -12.250   6.793  70.464  1.00  0.00    -0.195 A  
HETATM   14  N   UNL     1     -12.207   7.002  71.780  1.00  0.00    -0.335 NA 
HETATM   15  C   UNL     1     -10.962   7.227  72.228  1.00  0.00    -0.249 A  
HETATM   16  C   UNL     1      -9.843   7.240  71.410  1.00  0.00    -0.186 A  
HETATM   17  N   UNL     1      -8.828   7.633  72.248  1.00  0.00    -0.125 NA 
HETATM   18  H   UNL     1      -7.860   7.809  71.980  1.00  0.00     0.000 HD 
HETATM   19  C   UNL     1      -9.351   7.746  73.512  1.00  0.00    -0.290 A  
HETATM   20  N   UNL     1     -10.644   7.517  73.525  1.00  0.00    -0.354 NA 
ENDBRANCH  10  11
ENDBRANCH   6  10
TORSDOF 2
ENDMDL
MODEL      256
REMARK 921   NORMALIZED FREE ENERGY PREDICTED BY IDOCK:   -3.73 KCAL/MOL
REMARK 922        TOTAL FREE ENERGY PREDICTED BY IDOCK:   -4.49 KCAL/MOL
REMARK 923 INTER-LIGAND FREE ENERGY PREDICTED BY IDOCK:   -4.73 KCAL/MOL
REMARK 924 INTRA-LIGAND FREE ENERGY PREDICTED BY IDOCK:    0.24 KCAL/MOL
REMARK 927      BINDING AFFINITY PREDICTED BY RF-SCORE:    0.00 PKD
ROOT
HETATM    1  C   UNL     1      -7.261   9.477  67.302  1.00  0.00    -0.087 C  
HETATM    2  N   UNL     1      -8.216  10.109  66.425  1.00  0.00    -0.119 NA 
HETATM    3  C   UNL     1      -8.051  10.066  65.060  1.00  0.00    -0.145 A  
HETATM    4  N   UNL     1      -9.055  10.615  64.428  1.00  0.00    -0.205 NA 
HETATM    5  C   UNL     1      -9.923  11.019  65.424  1.00  0.00    -0.260 A  
HETATM    6  C   UNL     1      -9.415  10.738  66.697  1.00  0.00    -0.175 A  
HETATM    7  N   UNL     1     -11.204  11.575  65.027  1.00  0.00    -0.211 N  
HETATM    8  O   UNL     1     -11.478  11.584  63.821  1.00  0.00    -0.402 OA 
HETATM    9  O   UNL     1     -11.948  12.003  65.925  1.00  0.00    -0.540 OA 
ENDROOT
BRANCH   6  10
HETATM   10  S   UNL     1     -10.194  10.847  68.263  1.00  0.00    -0.181 SA 
BRANCH  10  11
HETATM   11  C   UNL     1     -10.568  12.542  68.620  1.00  0.00    -0.216 A  
HETATM   12  N   UNL     1     -11.662  12.868  69.343  1.00  0.00    -0.309 NA 
HETATM   13  C   UNL     1     -12.038  14.165  69.405  1.00  0.00    -0.328 A  
HETATM   14  N   UNL     1     -11.434  15.222  68.863  1.00  0.00    -0.312 NA 
HETATM   15  C   UNL     1     -10.356  14.887  68.136  1.00  0.00    -0.237 A  
HETATM   16  C   UNL     1      -9.920  13.582  67.968  1.00  0.00    -0.248 A  
HETATM   17  N   UNL     1      -8.893  13.694  67.063  1.00  0.00    -0.281 NA 
HETATM   18  H   UNL     1      -8.364  12.923  66.655  1.00  0.00     0.000 HD 
HETATM   19  C   UNL     1      -8.705  15.029  66.807  1.00  0.00    -0.260 A  
HETATM   20  N   UNL     1      -9.586  15.773  67.436  1.00  0.00    -0.216 NA 
ENDBRANCH  10  11
ENDBRANCH   6  10
TORSDOF 2
ENDMDL
MODEL      257
REMARK 921   NORMALIZED FREE ENERGY PREDICTED BY IDOCK:   -3.69 KCAL/MOL
REMARK 922        TOTAL FREE ENERGY PREDICTED BY IDOCK:   -4.44 KCAL/MOL
REMARK 923 INTER-LIGAND FREE ENERGY PREDICTED BY IDOCK:   -4.00 KCAL/MOL
REMARK 924 INTRA-LIGAND FREE ENERGY PREDICTED BY IDOCK:   -0.44 KCAL/MOL
REMARK 927      BINDING AFFINITY PREDICTED BY RF-SCORE:    0.00 PKD
ROOT
HETATM    1  C   UNL     1      -8.966   4.962  64.837  1.00  0.00    -0.138 C  
HETATM    2  N   UNL     1      -8.739   6.250  65.445  1.00  0.00    -0.098 NA 
HETATM    3  C   UNL     1      -7.750   7.084  64.974  1.00  0.00    -0.115 A  
HETATM    4  N   UNL     1      -7.750   8.238  65.588  1.00  0.00    -0.088 NA 
HETATM    5  C   UNL     1      -8.795   8.161  66.489  1.00  0.00    -0.149 A  
HETATM    6  C   UNL     1      -9.426   6.912  66.443  1.00  0.00    -0.120 A  
HETATM    7  N   UNL     1      -9.123   9.349  67.256  1.00  0.00    -0.133 N  
HETATM    8  O   UNL     1      -8.497  10.386  67.004  1.00  0.00    -0.126 OA 
HETATM    9  O   UNL     1     -10.014   9.251  68.115  1.00  0.00    -0.163 OA 
ENDROOT
BRANCH   6  10
HETATM   10  S   UNL     1     -10.909   6.378  67.207  1.00  0.00    -0.398 SA 
BRANCH  10  11
HETATM   11  C   UNL     1     -10.541   5.705  68.805  1.00  0.00    -0.216 A  
HETATM   12  N   UNL     1      -9.819   4.568  68.924  1.00  0.00    -0.153 NA 
HETATM   13  C   UNL     1      -9.750   3.966  70.132  1.00  0.00    -0.172 A  
HETATM   14  N   UNL     1     -10.281   4.373  71.284  1.00  0.00    -0.123 NA 
HETATM   15  C   UNL     1     -11.007   5.494  71.154  1.00  0.00    -0.125 A  
HETATM   16  C   UNL     1     -11.182   6.158  69.950  1.00  0.00    -0.414 A  
HETATM   17  N   UNL     1     -12.082   7.151  70.251  1.00  0.00    -0.588 NA 
HETATM   18  H   UNL     1     -12.493   7.811  69.591  1.00  0.00     0.000 HD 
HETATM   19  C   UNL     1     -12.327   7.098  71.600  1.00  0.00    -0.362 A  
HETATM   20  N   UNL     1     -11.697   6.095  72.168  1.00  0.00    -0.319 NA 
ENDBRANCH  10  11
ENDBRANCH   6  10
TORSDOF 2
ENDMDL
MODEL      258
REMARK 921   NORMALIZED FREE ENERGY PREDICTED BY IDOCK:   -3.68 KCAL/MOL
REMARK 922        TOTAL FREE ENERGY PREDICTED BY IDOCK:   -4.43 KCAL/MOL
REMARK 923 INTER-LIGAND FREE ENERGY PREDICTED BY IDOCK:   -3.97 KCAL/MOL
REMARK 924 INTRA-LIGAND FREE ENERGY PREDICTED BY IDOCK:   -0.46 KCAL/MOL
REMARK 927      BINDING AFFINITY PREDICTED BY RF-SCORE:    0.00 PKD
ROOT
HETATM    1  C   UNL     1      -8.064  10.034  63.429  1.00  0.00    -0.158 C  
HETATM    2  N   UNL     1      -7.374  10.038  64.696  1.00  0.00    -0.141 NA 
HETATM    3  C   UNL     1      -5.999  10.013  64.746  1.00  0.00    -0.113 A  
HETATM    4  N   UNL     1      -5.552  10.109  65.970  1.00  0.00    -0.059 NA 
HETATM    5  C   UNL     1      -6.686  10.218  66.754  1.00  0.00    -0.083 A  
HETATM    6  C   UNL     1      -7.853  10.152  65.985  1.00  0.00    -0.122 A  
HETATM    7  N   UNL     1      -6.511  10.452  68.176  1.00  0.00    -0.056 N  
HETATM    8  O   UNL     1      -5.359  10.618  68.594  1.00  0.00    -0.042 OA 
HETATM    9  O   UNL     1      -7.531  10.476  68.884  1.00  0.00    -0.087 OA 
ENDROOT
BRANCH   6  10
HETATM   10  S   UNL     1      -9.516  10.449  66.448  1.00  0.00    -0.175 SA 
BRANCH  10  11
HETATM   11  C   UNL     1      -9.874  12.178  66.287  1.00  0.00    -0.234 A  
HETATM   12  N   UNL     1      -9.526  13.047  67.263  1.00  0.00    -0.217 NA 
HETATM   13  C   UNL     1     -10.009  14.308  67.213  1.00  0.00    -0.252 A  
HETATM   14  N   UNL     1     -10.783  14.855  66.276  1.00  0.00    -0.312 NA 
HETATM   15  C   UNL     1     -11.135  13.982  65.320  1.00  0.00    -0.325 A  
HETATM   16  C   UNL     1     -10.736  12.655  65.309  1.00  0.00    -0.289 A  
HETATM   17  N   UNL     1     -11.422  12.115  64.248  1.00  0.00    -0.346 NA 
HETATM   18  H   UNL     1     -11.420  11.134  63.967  1.00  0.00     0.000 HD 
HETATM   19  C   UNL     1     -12.110  13.131  63.634  1.00  0.00    -0.513 A  
HETATM   20  N   UNL     1     -11.962  14.271  64.271  1.00  0.00    -0.446 NA 
ENDBRANCH  10  11
ENDBRANCH   6  10
TORSDOF 2
ENDMDL
MODEL      259
REMARK 921   NORMALIZED FREE ENERGY PREDICTED BY IDOCK:   -3.67 KCAL/MOL
REMARK 922        TOTAL FREE ENERGY PREDICTED BY IDOCK:   -4.42 KCAL/MOL
REMARK 923 INTER-LIGAND FREE ENERGY PREDICTED BY IDOCK:   -4.01 KCAL/MOL
REMARK 924 INTRA-LIGAND FREE ENERGY PREDICTED BY IDOCK:   -0.41 KCAL/MOL
REMARK 927      BINDING AFFINITY PREDICTED BY RF-SCORE:    0.00 PKD
ROOT
HETATM    1  C   UNL     1      -7.104  12.005  68.759  1.00  0.00    -0.111 C  
HETATM    2  N   UNL     1      -7.715  10.949  67.988  1.00  0.00    -0.099 NA 
HETATM    3  C   UNL     1      -7.472  10.837  66.638  1.00  0.00    -0.135 A  
HETATM    4  N   UNL     1      -8.038   9.775  66.127  1.00  0.00    -0.108 NA 
HETATM    5  C   UNL     1      -8.665   9.158  67.193  1.00  0.00    -0.123 A  
HETATM    6  C   UNL     1      -8.502   9.884  68.378  1.00  0.00    -0.111 A  
HETATM    7  N   UNL     1      -9.300   7.874  66.961  1.00  0.00    -0.151 N  
HETATM    8  O   UNL     1      -9.178   7.367  65.838  1.00  0.00    -0.099 OA 
HETATM    9  O   UNL     1      -9.923   7.361  67.905  1.00  0.00    -0.152 OA 
ENDROOT
BRANCH   6  10
HETATM   10  S   UNL     1      -8.903   9.444  70.026  1.00  0.00    -0.228 SA 
BRANCH  10  11
HETATM   11  C   UNL     1     -10.627   9.740  70.313  1.00  0.00    -0.292 A  
HETATM   12  N   UNL     1     -11.140  10.985  70.198  1.00  0.00    -0.185 NA 
HETATM   13  C   UNL     1     -12.397  11.214  70.639  1.00  0.00    -0.388 A  
HETATM   14  N   UNL     1     -13.256  10.338  71.159  1.00  0.00    -0.374 NA 
HETATM   15  C   UNL     1     -12.734   9.109  71.283  1.00  0.00    -0.278 A  
HETATM   16  C   UNL     1     -11.439   8.785  70.909  1.00  0.00    -0.284 A  
HETATM   17  N   UNL     1     -11.292   7.485  71.328  1.00  0.00    -0.255 NA 
HETATM   18  H   UNL     1     -10.440   6.927  71.271  1.00  0.00     0.000 HD 
HETATM   19  C   UNL     1     -12.498   7.071  71.836  1.00  0.00    -0.311 A  
HETATM   20  N   UNL     1     -13.385   8.039  71.831  1.00  0.00    -0.326 NA 
ENDBRANCH  10  11
ENDBRANCH   6  10
TORSDOF 2
ENDMDL
MODEL      260
REMARK 921   NORMALIZED FREE ENERGY PREDICTED BY IDOCK:   -3.66 KCAL/MOL
REMARK 922        TOTAL FREE ENERGY PREDICTED BY IDOCK:   -4.40 KCAL/MOL
REMARK 923 INTER-LIGAND FREE ENERGY PREDICTED BY IDOCK:   -3.71 KCAL/MOL
REMARK 924 INTRA-LIGAND FREE ENERGY PREDICTED BY IDOCK:   -0.70 KCAL/MOL
REMARK 927      BINDING AFFINITY PREDICTED BY RF-SCORE:    0.00 PKD
ROOT
HETATM    1  C   UNL     1      -8.811  10.208  64.658  1.00  0.00    -0.196 C  
HETATM    2  N   UNL     1      -8.717   9.189  65.674  1.00  0.00    -0.163 NA 
HETATM    3  C   UNL     1      -8.680   7.857  65.331  1.00  0.00    -0.046 A  
HETATM    4  N   UNL     1      -8.507   7.088  66.374  1.00  0.00    -0.124 NA 
HETATM    5  C   UNL     1      -8.411   7.957  67.444  1.00  0.00    -0.123 A  
HETATM    6  C   UNL     1      -8.563   9.289  67.042  1.00  0.00    -0.124 A  
HETATM    7  N   UNL     1      -8.102   7.400  68.749  1.00  0.00    -0.126 N  
HETATM    8  O   UNL     1      -7.866   6.188  68.814  1.00  0.00    -0.098 OA 
HETATM    9  O   UNL     1      -8.090   8.177  69.717  1.00  0.00    -0.112 OA 
ENDROOT
BRANCH   6  10
HETATM   10  S   UNL     1      -8.317  10.767  67.950  1.00  0.00    -0.120 SA 
BRANCH  10  11
HETATM   11  C   UNL     1      -9.882  11.381  68.514  1.00  0.00    -0.198 A  
HETATM   12  N   UNL     1     -10.296  12.623  68.176  1.00  0.00    -0.227 NA 
HETATM   13  C   UNL     1     -11.377  13.139  68.801  1.00  0.00    -0.291 A  
HETATM   14  N   UNL     1     -12.153  12.558  69.715  1.00  0.00    -0.264 NA 
HETATM   15  C   UNL     1     -11.727  11.332  70.054  1.00  0.00    -0.346 A  
HETATM   16  C   UNL     1     -10.600  10.735  69.510  1.00  0.00    -0.196 A  
HETATM   17  N   UNL     1     -10.468   9.570  70.226  1.00  0.00    -0.246 NA 
HETATM   18  H   UNL     1      -9.710   8.893  70.140  1.00  0.00     0.000 HD 
HETATM   19  C   UNL     1     -11.540   9.480  71.078  1.00  0.00    -0.344 A  
HETATM   20  N   UNL     1     -12.312  10.540  71.001  1.00  0.00    -0.362 NA 
ENDBRANCH  10  11
ENDBRANCH   6  10
TORSDOF 2
ENDMDL
MODEL      261
REMARK 921   NORMALIZED FREE ENERGY PREDICTED BY IDOCK:   -3.65 KCAL/MOL
REMARK 922        TOTAL FREE ENERGY PREDICTED BY IDOCK:   -4.39 KCAL/MOL
REMARK 923 INTER-LIGAND FREE ENERGY PREDICTED BY IDOCK:   -4.40 KCAL/MOL
REMARK 924 INTRA-LIGAND FREE ENERGY PREDICTED BY IDOCK:    0.00 KCAL/MOL
REMARK 927      BINDING AFFINITY PREDICTED BY RF-SCORE:    0.00 PKD
ROOT
HETATM    1  C   UNL     1      -9.936   9.161  66.061  1.00  0.00    -0.223 C  
HETATM    2  N   UNL     1     -10.257   8.349  67.209  1.00  0.00    -0.252 NA 
HETATM    3  C   UNL     1     -10.890   7.137  67.055  1.00  0.00    -0.312 A  
HETATM    4  N   UNL     1     -11.021   6.506  68.192  1.00  0.00    -0.291 NA 
HETATM    5  C   UNL     1     -10.433   7.335  69.129  1.00  0.00    -0.215 A  
HETATM    6  C   UNL     1      -9.962   8.518  68.547  1.00  0.00    -0.184 A  
HETATM    7  N   UNL     1     -10.322   6.853  70.493  1.00  0.00    -0.203 N  
HETATM    8  O   UNL     1     -10.690   5.695  70.724  1.00  0.00    -0.260 OA 
HETATM    9  O   UNL     1      -9.859   7.631  71.343  1.00  0.00    -0.173 OA 
ENDROOT
BRANCH   6  10
HETATM   10  S   UNL     1      -8.965   9.784  69.234  1.00  0.00    -0.186 SA 
BRANCH  10  11
HETATM   11  C   UNL     1      -9.210  11.287  68.327  1.00  0.00    -0.176 A  
HETATM   12  N   UNL     1      -8.274  11.727  67.456  1.00  0.00    -0.144 NA 
HETATM   13  C   UNL     1      -8.388  12.977  66.956  1.00  0.00    -0.095 A  
HETATM   14  N   UNL     1      -9.357  13.865  67.177  1.00  0.00    -0.233 NA 
HETATM   15  C   UNL     1     -10.275  13.425  68.052  1.00  0.00    -0.243 A  
HETATM   16  C   UNL     1     -10.219  12.181  68.660  1.00  0.00    -0.174 A  
HETATM   17  N   UNL     1     -11.259  12.207  69.557  1.00  0.00    -0.450 NA 
HETATM   18  H   UNL     1     -11.493  11.476  70.229  1.00  0.00     0.000 HD 
HETATM   19  C   UNL     1     -11.927  13.394  69.387  1.00  0.00    -0.315 A  
HETATM   20  N   UNL     1     -11.344  14.155  68.489  1.00  0.00    -0.266 NA 
ENDBRANCH  10  11
ENDBRANCH   6  10
TORSDOF 2
ENDMDL
MODEL      262
REMARK 921   NORMALIZED FREE ENERGY PREDICTED BY IDOCK:   -3.64 KCAL/MOL
REMARK 922        TOTAL FREE ENERGY PREDICTED BY IDOCK:   -4.38 KCAL/MOL
REMARK 923 INTER-LIGAND FREE ENERGY PREDICTED BY IDOCK:   -3.97 KCAL/MOL
REMARK 924 INTRA-LIGAND FREE ENERGY PREDICTED BY IDOCK:   -0.42 KCAL/MOL
REMARK 927      BINDING AFFINITY PREDICTED BY RF-SCORE:    0.00 PKD
ROOT
HETATM    1  C   UNL     1      -9.879  10.096  64.224  1.00  0.00    -0.200 C  
HETATM    2  N   UNL     1     -10.257  11.362  64.801  1.00  0.00    -0.267 NA 
HETATM    3  C   UNL     1     -10.309  12.499  64.027  1.00  0.00    -0.404 A  
HETATM    4  N   UNL     1     -10.753  13.529  64.699  1.00  0.00    -0.396 NA 
HETATM    5  C   UNL     1     -11.019  13.039  65.964  1.00  0.00    -0.275 A  
HETATM    6  C   UNL     1     -10.695  11.682  66.071  1.00  0.00    -0.280 A  
HETATM    7  N   UNL     1     -11.638  13.934  66.925  1.00  0.00    -0.357 N  
HETATM    8  O   UNL     1     -11.963  15.061  66.534  1.00  0.00    -0.158 OA 
HETATM    9  O   UNL     1     -11.807  13.509  68.080  1.00  0.00    -0.339 OA 
ENDROOT
BRANCH   6  10
HETATM   10  S   UNL     1     -11.031  10.549  67.364  1.00  0.00    -0.249 SA 
BRANCH  10  11
HETATM   11  C   UNL     1      -9.506  10.020  68.098  1.00  0.00    -0.138 A  
HETATM   12  N   UNL     1      -8.786  10.862  68.873  1.00  0.00    -0.160 NA 
HETATM   13  C   UNL     1      -7.532  10.507  69.227  1.00  0.00    -0.122 A  
HETATM   14  N   UNL     1      -6.887   9.377  68.942  1.00  0.00    -0.055 NA 
HETATM   15  C   UNL     1      -7.603   8.553  68.161  1.00  0.00    -0.098 A  
HETATM   16  C   UNL     1      -8.877   8.848  67.701  1.00  0.00    -0.134 A  
HETATM   17  N   UNL     1      -9.166   7.811  66.849  1.00  0.00    -0.144 NA 
HETATM   18  H   UNL     1     -10.006   7.718  66.277  1.00  0.00     0.000 HD 
HETATM   19  C   UNL     1      -8.123   6.921  66.904  1.00  0.00    -0.109 A  
HETATM   20  N   UNL     1      -7.157   7.353  67.683  1.00  0.00    -0.082 NA 
ENDBRANCH  10  11
ENDBRANCH   6  10
TORSDOF 2
ENDMDL
MODEL      263
REMARK 921   NORMALIZED FREE ENERGY PREDICTED BY IDOCK:   -3.63 KCAL/MOL
REMARK 922        TOTAL FREE ENERGY PREDICTED BY IDOCK:   -4.38 KCAL/MOL
REMARK 923 INTER-LIGAND FREE ENERGY PREDICTED BY IDOCK:   -3.92 KCAL/MOL
REMARK 924 INTRA-LIGAND FREE ENERGY PREDICTED BY IDOCK:   -0.46 KCAL/MOL
REMARK 927      BINDING AFFINITY PREDICTED BY RF-SCORE:    0.00 PKD
ROOT
HETATM    1  C   UNL     1      -6.071  13.853  70.149  1.00  0.00    -0.147 C  
HETATM    2  N   UNL     1      -5.960  15.289  70.067  1.00  0.00    -0.136 NA 
HETATM    3  C   UNL     1      -5.462  16.015  71.124  1.00  0.00     0.104 A  
HETATM    4  N   UNL     1      -5.355  17.286  70.837  1.00  0.00    -0.216 NA 
HETATM    5  C   UNL     1      -5.788  17.392  69.528  1.00  0.00    -0.238 A  
HETATM    6  C   UNL     1      -6.200  16.156  69.019  1.00  0.00    -0.139 A  
HETATM    7  N   UNL     1      -5.683  18.686  68.878  1.00  0.00    -0.203 N  
HETATM    8  O   UNL     1      -5.141  19.603  69.508  1.00  0.00    -0.175 OA 
HETATM    9  O   UNL     1      -6.141  18.791  67.729  1.00  0.00    -0.190 OA 
ENDROOT
BRANCH   6  10
HETATM   10  S   UNL     1      -6.624  15.704  67.381  1.00  0.00    -0.103 SA 
BRANCH  10  11
HETATM   11  C   UNL     1      -8.352  15.995  67.116  1.00  0.00    -0.199 A  
HETATM   12  N   UNL     1      -8.779  16.658  66.018  1.00  0.00    -0.486 NA 
HETATM   13  C   UNL     1     -10.069  17.057  65.960  1.00  0.00    -0.302 A  
HETATM   14  N   UNL     1     -11.035  16.845  66.853  1.00  0.00    -0.002 NA 
HETATM   15  C   UNL     1     -10.599  16.198  67.945  1.00  0.00    -0.309 A  
HETATM   16  C   UNL     1      -9.286  15.794  68.124  1.00  0.00    -0.189 A  
HETATM   17  N   UNL     1      -9.265  15.305  69.407  1.00  0.00    -0.338 NA 
HETATM   18  H   UNL     1      -8.443  14.967  69.909  1.00  0.00     0.000 HD 
HETATM   19  C   UNL     1     -10.547  15.352  69.893  1.00  0.00    -0.303 A  
HETATM   20  N   UNL     1     -11.373  15.900  69.031  1.00  0.00    -0.347 NA 
ENDBRANCH  10  11
ENDBRANCH   6  10
TORSDOF 2
ENDMDL
MODEL      264
REMARK 921   NORMALIZED FREE ENERGY PREDICTED BY IDOCK:   -3.62 KCAL/MOL
REMARK 922        TOTAL FREE ENERGY PREDICTED BY IDOCK:   -4.37 KCAL/MOL
REMARK 923 INTER-LIGAND FREE ENERGY PREDICTED BY IDOCK:   -4.15 KCAL/MOL
REMARK 924 INTRA-LIGAND FREE ENERGY PREDICTED BY IDOCK:   -0.21 KCAL/MOL
REMARK 927      BINDING AFFINITY PREDICTED BY RF-SCORE:    0.00 PKD
ROOT
HETATM    1  C   UNL     1     -10.733  16.059  65.988  1.00  0.00    -0.267 C  
HETATM    2  N   UNL     1      -9.648  15.562  66.798  1.00  0.00    -0.226 NA 
HETATM    3  C   UNL     1      -9.032  14.370  66.491  1.00  0.00    -0.160 A  
HETATM    4  N   UNL     1      -8.020  14.125  67.280  1.00  0.00    -0.177 NA 
HETATM    5  C   UNL     1      -7.961  15.213  68.131  1.00  0.00    -0.125 A  
HETATM    6  C   UNL     1      -8.988  16.127  67.871  1.00  0.00    -0.183 A  
HETATM    7  N   UNL     1      -6.856  15.287  69.069  1.00  0.00    -0.121 N  
HETATM    8  O   UNL     1      -5.986  14.410  69.001  1.00  0.00    -0.086 OA 
HETATM    9  O   UNL     1      -6.850  16.228  69.878  1.00  0.00    -0.120 OA 
ENDROOT
BRANCH   6  10
HETATM   10  S   UNL     1      -9.236  17.742  68.502  1.00  0.00    -0.265 SA 
BRANCH  10  11
HETATM   11  C   UNL     1      -7.750  18.689  68.305  1.00  0.00    -0.298 A  
HETATM   12  N   UNL     1      -7.283  19.455  69.316  1.00  0.00    -0.335 NA 
HETATM   13  C   UNL     1      -6.285  20.329  69.060  1.00  0.00    -0.331 A  
HETATM   14  N   UNL     1      -5.638  20.525  67.911  1.00  0.00    -0.210 NA 
HETATM   15  C   UNL     1      -6.118  19.770  66.911  1.00  0.00    -0.175 A  
HETATM   16  C   UNL     1      -7.172  18.882  67.058  1.00  0.00    -0.209 A  
HETATM   17  N   UNL     1      -7.407  18.437  65.780  1.00  0.00    -0.509 NA 
HETATM   18  H   UNL     1      -8.156  17.808  65.490  1.00  0.00     0.000 HD 
HETATM   19  C   UNL     1      -6.453  18.991  64.963  1.00  0.00    -0.190 A  
HETATM   20  N   UNL     1      -5.667  19.811  65.621  1.00  0.00    -0.167 NA 
ENDBRANCH  10  11
ENDBRANCH   6  10
TORSDOF 2
ENDMDL
MODEL      265
REMARK 921   NORMALIZED FREE ENERGY PREDICTED BY IDOCK:   -3.62 KCAL/MOL
REMARK 922        TOTAL FREE ENERGY PREDICTED BY IDOCK:   -4.36 KCAL/MOL
REMARK 923 INTER-LIGAND FREE ENERGY PREDICTED BY IDOCK:   -3.95 KCAL/MOL
REMARK 924 INTRA-LIGAND FREE ENERGY PREDICTED BY IDOCK:   -0.41 KCAL/MOL
REMARK 927      BINDING AFFINITY PREDICTED BY RF-SCORE:    0.00 PKD
ROOT
HETATM    1  C   UNL     1      -9.974   9.623  67.295  1.00  0.00    -0.197 C  
HETATM    2  N   UNL     1     -10.725   9.940  68.485  1.00  0.00    -0.223 NA 
HETATM    3  C   UNL     1     -11.233  11.204  68.678  1.00  0.00    -0.255 A  
HETATM    4  N   UNL     1     -11.955  11.280  69.765  1.00  0.00    -0.336 NA 
HETATM    5  C   UNL     1     -11.931  10.005  70.297  1.00  0.00    -0.187 A  
HETATM    6  C   UNL     1     -11.145   9.139  69.528  1.00  0.00    -0.051 A  
HETATM    7  N   UNL     1     -12.746   9.740  71.469  1.00  0.00    -0.374 N  
HETATM    8  O   UNL     1     -13.475  10.651  71.879  1.00  0.00    -0.358 OA 
HETATM    9  O   UNL     1     -12.663   8.613  71.984  1.00  0.00    -0.332 OA 
ENDROOT
BRANCH   6  10
HETATM   10  S   UNL     1     -10.959   7.401  69.637  1.00  0.00    -0.117 SA 
BRANCH  10  11
HETATM   11  C   UNL     1      -9.801   7.010  70.921  1.00  0.00    -0.185 A  
HETATM   12  N   UNL     1      -8.499   7.356  70.803  1.00  0.00    -0.130 NA 
HETATM   13  C   UNL     1      -7.610   6.850  71.685  1.00  0.00    -0.090 A  
HETATM   14  N   UNL     1      -7.848   6.054  72.727  1.00  0.00    -0.106 NA 
HETATM   15  C   UNL     1      -9.140   5.705  72.828  1.00  0.00    -0.130 A  
HETATM   16  C   UNL     1     -10.120   6.128  71.944  1.00  0.00    -0.189 A  
HETATM   17  N   UNL     1     -11.239   5.437  72.341  1.00  0.00    -0.238 NA 
HETATM   18  H   UNL     1     -12.150   5.453  71.881  1.00  0.00     0.000 HD 
HETATM   19  C   UNL     1     -10.913   4.724  73.466  1.00  0.00    -0.324 A  
HETATM   20  N   UNL     1      -9.644   4.859  73.776  1.00  0.00    -0.128 NA 
ENDBRANCH  10  11
ENDBRANCH   6  10
TORSDOF 2
ENDMDL
MODEL      266
REMARK 921   NORMALIZED FREE ENERGY PREDICTED BY IDOCK:   -3.61 KCAL/MOL
REMARK 922        TOTAL FREE ENERGY PREDICTED BY IDOCK:   -4.35 KCAL/MOL
REMARK 923 INTER-LIGAND FREE ENERGY PREDICTED BY IDOCK:   -3.61 KCAL/MOL
REMARK 924 INTRA-LIGAND FREE ENERGY PREDICTED BY IDOCK:   -0.74 KCAL/MOL
REMARK 927      BINDING AFFINITY PREDICTED BY RF-SCORE:    0.00 PKD
ROOT
HETATM    1  C   UNL     1      -6.500  10.500  70.304  1.00  0.00    -0.140 C  
HETATM    2  N   UNL     1      -7.123  10.250  69.027  1.00  0.00    -0.066 NA 
HETATM    3  C   UNL     1      -6.378   9.811  67.957  1.00  0.00    -0.056 A  
HETATM    4  N   UNL     1      -7.124   9.556  66.913  1.00  0.00    -0.085 NA 
HETATM    5  C   UNL     1      -8.416   9.825  67.326  1.00  0.00    -0.125 A  
HETATM    6  C   UNL     1      -8.449  10.288  68.646  1.00  0.00    -0.127 A  
HETATM    7  N   UNL     1      -9.500   9.529  66.408  1.00  0.00    -0.180 N  
HETATM    8  O   UNL     1      -9.212   8.981  65.337  1.00  0.00    -0.220 OA 
HETATM    9  O   UNL     1     -10.650   9.841  66.757  1.00  0.00    -0.206 OA 
ENDROOT
BRANCH   6  10
HETATM   10  S   UNL     1      -9.821  10.561  69.702  1.00  0.00     0.017 SA 
BRANCH  10  11
HETATM   11  C   UNL     1     -10.102   9.118  70.692  1.00  0.00    -0.247 A  
HETATM   12  N   UNL     1      -9.666   9.064  71.970  1.00  0.00    -0.288 NA 
HETATM   13  C   UNL     1      -9.696   7.879  72.618  1.00  0.00    -0.240 A  
HETATM   14  N   UNL     1     -10.151   6.709  72.170  1.00  0.00    -0.179 NA 
HETATM   15  C   UNL     1     -10.569   6.768  70.896  1.00  0.00    -0.220 A  
HETATM   16  C   UNL     1     -10.530   7.923  70.130  1.00  0.00    -0.231 A  
HETATM   17  N   UNL     1     -10.918   7.501  68.881  1.00  0.00    -0.424 NA 
HETATM   18  H   UNL     1     -10.954   8.073  68.037  1.00  0.00     0.000 HD 
HETATM   19  C   UNL     1     -11.250   6.173  68.974  1.00  0.00    -0.304 A  
HETATM   20  N   UNL     1     -11.036   5.702  70.181  1.00  0.00    -0.290 NA 
ENDBRANCH  10  11
ENDBRANCH   6  10
TORSDOF 2
ENDMDL
MODEL      267
REMARK 921   NORMALIZED FREE ENERGY PREDICTED BY IDOCK:   -3.61 KCAL/MOL
REMARK 922        TOTAL FREE ENERGY PREDICTED BY IDOCK:   -4.35 KCAL/MOL
REMARK 923 INTER-LIGAND FREE ENERGY PREDICTED BY IDOCK:   -4.28 KCAL/MOL
REMARK 924 INTRA-LIGAND FREE ENERGY PREDICTED BY IDOCK:   -0.07 KCAL/MOL
REMARK 927      BINDING AFFINITY PREDICTED BY RF-SCORE:    0.00 PKD
ROOT
HETATM    1  C   UNL     1      -8.849   7.075  67.224  1.00  0.00    -0.119 C  
HETATM    2  N   UNL     1      -8.803   8.501  67.011  1.00  0.00    -0.130 NA 
HETATM    3  C   UNL     1      -8.895   9.023  65.741  1.00  0.00    -0.179 A  
HETATM    4  N   UNL     1      -8.922  10.330  65.750  1.00  0.00    -0.155 NA 
HETATM    5  C   UNL     1      -8.862  10.677  67.087  1.00  0.00    -0.137 A  
HETATM    6  C   UNL     1      -8.762   9.548  67.909  1.00  0.00    -0.119 A  
HETATM    7  N   UNL     1      -8.985  12.081  67.434  1.00  0.00    -0.170 N  
HETATM    8  O   UNL     1      -9.215  12.880  66.518  1.00  0.00    -0.235 OA 
HETATM    9  O   UNL     1      -8.857  12.391  68.629  1.00  0.00    -0.096 OA 
ENDROOT
BRANCH   6  10
HETATM   10  S   UNL     1      -8.869   9.420  69.653  1.00  0.00    -0.188 SA 
BRANCH  10  11
HETATM   11  C   UNL     1     -10.522   9.797  70.172  1.00  0.00    -0.286 A  
HETATM   12  N   UNL     1     -11.128  10.935  69.766  1.00  0.00    -0.269 NA 
HETATM   13  C   UNL     1     -12.289  11.298  70.354  1.00  0.00    -0.329 A  
HETATM   14  N   UNL     1     -12.974  10.646  71.292  1.00  0.00    -0.400 NA 
HETATM   15  C   UNL     1     -12.358   9.525  71.699  1.00  0.00    -0.398 A  
HETATM   16  C   UNL     1     -11.141   9.094  71.196  1.00  0.00    -0.323 A  
HETATM   17  N   UNL     1     -10.832   8.005  71.974  1.00  0.00    -0.253 NA 
HETATM   18  H   UNL     1      -9.972   7.458  71.929  1.00  0.00     0.000 HD 
HETATM   19  C   UNL     1     -11.888   7.783  72.821  1.00  0.00    -0.194 A  
HETATM   20  N   UNL     1     -12.821   8.698  72.683  1.00  0.00    -0.301 NA 
ENDBRANCH  10  11
ENDBRANCH   6  10
TORSDOF 2
ENDMDL
MODEL      268
REMARK 921   NORMALIZED FREE ENERGY PREDICTED BY IDOCK:   -3.60 KCAL/MOL
REMARK 922        TOTAL FREE ENERGY PREDICTED BY IDOCK:   -4.34 KCAL/MOL
REMARK 923 INTER-LIGAND FREE ENERGY PREDICTED BY IDOCK:   -3.94 KCAL/MOL
REMARK 924 INTRA-LIGAND FREE ENERGY PREDICTED BY IDOCK:   -0.40 KCAL/MOL
REMARK 927      BINDING AFFINITY PREDICTED BY RF-SCORE:    0.00 PKD
ROOT
HETATM    1  C   UNL     1     -11.143  11.636  68.361  1.00  0.00    -0.234 C  
HETATM    2  N   UNL     1     -10.452  10.797  67.412  1.00  0.00    -0.211 NA 
HETATM    3  C   UNL     1     -10.622  10.983  66.059  1.00  0.00    -0.213 A  
HETATM    4  N   UNL     1      -9.854  10.191  65.357  1.00  0.00    -0.289 NA 
HETATM    5  C   UNL     1      -9.139   9.468  66.293  1.00  0.00    -0.163 A  
HETATM    6  C   UNL     1      -9.509   9.807  67.600  1.00  0.00    -0.144 A  
HETATM    7  N   UNL     1      -8.107   8.566  65.815  1.00  0.00    -0.109 N  
HETATM    8  O   UNL     1      -7.873   8.554  64.600  1.00  0.00    -0.115 OA 
HETATM    9  O   UNL     1      -7.520   7.866  66.656  1.00  0.00    -0.086 OA 
ENDROOT
BRANCH   6  10
HETATM   10  S   UNL     1      -8.776   9.353  69.124  1.00  0.00    -0.149 SA 
BRANCH  10  11
HETATM   11  C   UNL     1      -9.729   8.061  69.877  1.00  0.00    -0.180 A  
HETATM   12  N   UNL     1     -10.640   7.369  69.157  1.00  0.00    -0.218 NA 
HETATM   13  C   UNL     1     -11.499   6.554  69.807  1.00  0.00    -0.379 A  
HETATM   14  N   UNL     1     -11.554   6.293  71.113  1.00  0.00    -0.310 NA 
HETATM   15  C   UNL     1     -10.656   6.995  71.821  1.00  0.00    -0.210 A  
HETATM   16  C   UNL     1      -9.767   7.894  71.254  1.00  0.00    -0.157 A  
HETATM   17  N   UNL     1      -9.145   8.467  72.337  1.00  0.00    -0.239 NA 
HETATM   18  H   UNL     1      -8.460   9.222  72.307  1.00  0.00     0.000 HD 
HETATM   19  C   UNL     1      -9.609   7.839  73.465  1.00  0.00    -0.270 A  
HETATM   20  N   UNL     1     -10.534   6.951  73.181  1.00  0.00    -0.259 NA 
ENDBRANCH  10  11
ENDBRANCH   6  10
TORSDOF 2
ENDMDL
MODEL      269
REMARK 921   NORMALIZED FREE ENERGY PREDICTED BY IDOCK:   -3.59 KCAL/MOL
REMARK 922        TOTAL FREE ENERGY PREDICTED BY IDOCK:   -4.33 KCAL/MOL
REMARK 923 INTER-LIGAND FREE ENERGY PREDICTED BY IDOCK:   -4.01 KCAL/MOL
REMARK 924 INTRA-LIGAND FREE ENERGY PREDICTED BY IDOCK:   -0.32 KCAL/MOL
REMARK 927      BINDING AFFINITY PREDICTED BY RF-SCORE:    0.00 PKD
ROOT
HETATM    1  C   UNL     1     -10.461  14.112  67.290  1.00  0.00    -0.272 C  
HETATM    2  N   UNL     1     -10.939  13.387  68.442  1.00  0.00    -0.256 NA 
HETATM    3  C   UNL     1     -11.786  13.986  69.346  1.00  0.00    -0.333 A  
HETATM    4  N   UNL     1     -12.181  13.153  70.273  1.00  0.00    -0.333 NA 
HETATM    5  C   UNL     1     -11.577  11.951  69.951  1.00  0.00    -0.256 A  
HETATM    6  C   UNL     1     -10.767  12.069  68.816  1.00  0.00    -0.220 A  
HETATM    7  N   UNL     1     -11.914  10.784  70.745  1.00  0.00    -0.348 N  
HETATM    8  O   UNL     1     -12.782  10.914  71.617  1.00  0.00    -0.405 OA 
HETATM    9  O   UNL     1     -11.313   9.726  70.497  1.00  0.00    -0.269 OA 
ENDROOT
BRANCH   6  10
HETATM   10  S   UNL     1      -9.966  10.825  67.878  1.00  0.00    -0.179 SA 
BRANCH  10  11
HETATM   11  C   UNL     1      -8.541  10.246  68.760  1.00  0.00    -0.139 A  
HETATM   12  N   UNL     1      -8.482   8.974  69.215  1.00  0.00    -0.125 NA 
HETATM   13  C   UNL     1      -7.493   8.634  70.069  1.00  0.00    -0.056 A  
HETATM   14  N   UNL     1      -6.497   9.398  70.518  1.00  0.00    -0.068 NA 
HETATM   15  C   UNL     1      -6.571  10.662  70.073  1.00  0.00    -0.149 A  
HETATM   16  C   UNL     1      -7.575  11.122  69.236  1.00  0.00    -0.055 A  
HETATM   17  N   UNL     1      -7.336  12.472  69.148  1.00  0.00    -0.315 NA 
HETATM   18  H   UNL     1      -7.913  13.154  68.657  1.00  0.00     0.000 HD 
HETATM   19  C   UNL     1      -6.181  12.737  69.841  1.00  0.00    -0.084 A  
HETATM   20  N   UNL     1      -5.704  11.659  70.420  1.00  0.00    -0.148 NA 
ENDBRANCH  10  11
ENDBRANCH   6  10
TORSDOF 2
ENDMDL
MODEL      270
REMARK 921   NORMALIZED FREE ENERGY PREDICTED BY IDOCK:   -3.58 KCAL/MOL
REMARK 922        TOTAL FREE ENERGY PREDICTED BY IDOCK:   -4.31 KCAL/MOL
REMARK 923 INTER-LIGAND FREE ENERGY PREDICTED BY IDOCK:   -3.88 KCAL/MOL
REMARK 924 INTRA-LIGAND FREE ENERGY PREDICTED BY IDOCK:   -0.43 KCAL/MOL
REMARK 927      BINDING AFFINITY PREDICTED BY RF-SCORE:    0.00 PKD
ROOT
HETATM    1  C   UNL     1      -6.627   7.117  69.130  1.00  0.00    -0.044 C  
HETATM    2  N   UNL     1      -7.768   7.139  70.013  1.00  0.00    -0.101 NA 
HETATM    3  C   UNL     1      -7.599   7.242  71.374  1.00  0.00    -0.083 A  
HETATM    4  N   UNL     1      -8.742   7.333  72.003  1.00  0.00    -0.117 NA 
HETATM    5  C   UNL     1      -9.699   7.304  71.006  1.00  0.00    -0.169 A  
HETATM    6  C   UNL     1      -9.121   7.158  69.740  1.00  0.00    -0.141 A  
HETATM    7  N   UNL     1     -11.086   7.500  71.387  1.00  0.00    -0.236 N  
HETATM    8  O   UNL     1     -11.325   7.759  72.573  1.00  0.00    -0.320 OA 
HETATM    9  O   UNL     1     -11.946   7.400  70.497  1.00  0.00    -0.223 OA 
ENDROOT
BRANCH   6  10
HETATM   10  S   UNL     1      -9.855   7.279  68.154  1.00  0.00    -0.154 SA 
BRANCH  10  11
HETATM   11  C   UNL     1     -10.075   8.987  67.733  1.00  0.00    -0.208 A  
HETATM   12  N   UNL     1     -10.615   9.850  68.622  1.00  0.00    -0.209 NA 
HETATM   13  C   UNL     1     -10.975  11.081  68.195  1.00  0.00    -0.247 A  
HETATM   14  N   UNL     1     -10.829  11.604  66.978  1.00  0.00    -0.252 NA 
HETATM   15  C   UNL     1     -10.305  10.735  66.100  1.00  0.00    -0.239 A  
HETATM   16  C   UNL     1      -9.953   9.435  66.425  1.00  0.00    -0.276 A  
HETATM   17  N   UNL     1      -9.594   8.881  65.220  1.00  0.00    -0.425 NA 
HETATM   18  H   UNL     1      -9.328   7.909  65.060  1.00  0.00     0.000 HD 
HETATM   19  C   UNL     1      -9.658   9.870  64.271  1.00  0.00    -0.151 A  
HETATM   20  N   UNL     1     -10.097  11.000  64.776  1.00  0.00    -0.283 NA 
ENDBRANCH  10  11
ENDBRANCH   6  10
TORSDOF 2
ENDMDL
MODEL      271
REMARK 921   NORMALIZED FREE ENERGY PREDICTED BY IDOCK:   -3.57 KCAL/MOL
REMARK 922        TOTAL FREE ENERGY PREDICTED BY IDOCK:   -4.30 KCAL/MOL
REMARK 923 INTER-LIGAND FREE ENERGY PREDICTED BY IDOCK:   -3.86 KCAL/MOL
REMARK 924 INTRA-LIGAND FREE ENERGY PREDICTED BY IDOCK:   -0.44 KCAL/MOL
REMARK 927      BINDING AFFINITY PREDICTED BY RF-SCORE:    0.00 PKD
ROOT
HETATM    1  C   UNL     1      -7.677   4.539  68.973  1.00  0.00    -0.070 C  
HETATM    2  N   UNL     1      -7.946   5.787  68.301  1.00  0.00    -0.103 NA 
HETATM    3  C   UNL     1      -6.973   6.400  67.545  1.00  0.00    -0.078 A  
HETATM    4  N   UNL     1      -7.424   7.471  66.944  1.00  0.00    -0.095 NA 
HETATM    5  C   UNL     1      -8.754   7.550  67.311  1.00  0.00    -0.121 A  
HETATM    6  C   UNL     1      -9.111   6.518  68.185  1.00  0.00    -0.114 A  
HETATM    7  N   UNL     1      -9.567   8.590  66.706  1.00  0.00    -0.190 N  
HETATM    8  O   UNL     1      -9.041   9.298  65.838  1.00  0.00    -0.168 OA 
HETATM    9  O   UNL     1     -10.741   8.701  67.094  1.00  0.00    -0.270 OA 
ENDROOT
BRANCH   6  10
HETATM   10  S   UNL     1     -10.693   6.041  68.768  1.00  0.00    -0.313 SA 
BRANCH  10  11
HETATM   11  C   UNL     1     -10.975   6.759  70.364  1.00  0.00    -0.283 A  
HETATM   12  N   UNL     1     -11.081   8.099  70.508  1.00  0.00    -0.255 NA 
HETATM   13  C   UNL     1     -11.070   8.621  71.754  1.00  0.00    -0.326 A  
HETATM   14  N   UNL     1     -11.007   7.973  72.916  1.00  0.00    -0.377 NA 
HETATM   15  C   UNL     1     -10.889   6.645  72.764  1.00  0.00    -0.251 A  
HETATM   16  C   UNL     1     -10.838   6.017  71.529  1.00  0.00    -0.266 A  
HETATM   17  N   UNL     1     -10.585   4.703  71.840  1.00  0.00    -0.101 NA 
HETATM   18  H   UNL     1     -10.425   3.947  71.174  1.00  0.00     0.000 HD 
HETATM   19  C   UNL     1     -10.587   4.589  73.208  1.00  0.00    -0.216 A  
HETATM   20  N   UNL     1     -10.758   5.753  73.791  1.00  0.00    -0.261 NA 
ENDBRANCH  10  11
ENDBRANCH   6  10
TORSDOF 2
ENDMDL
MODEL      272
REMARK 921   NORMALIZED FREE ENERGY PREDICTED BY IDOCK:   -3.55 KCAL/MOL
REMARK 922        TOTAL FREE ENERGY PREDICTED BY IDOCK:   -4.28 KCAL/MOL
REMARK 923 INTER-LIGAND FREE ENERGY PREDICTED BY IDOCK:   -3.87 KCAL/MOL
REMARK 924 INTRA-LIGAND FREE ENERGY PREDICTED BY IDOCK:   -0.41 KCAL/MOL
REMARK 927      BINDING AFFINITY PREDICTED BY RF-SCORE:    0.00 PKD
ROOT
HETATM    1  C   UNL     1      -6.649   7.416  70.024  1.00  0.00    -0.046 C  
HETATM    2  N   UNL     1      -8.036   7.154  70.320  1.00  0.00    -0.117 NA 
HETATM    3  C   UNL     1      -8.430   5.929  70.809  1.00  0.00    -0.129 A  
HETATM    4  N   UNL     1      -9.705   5.905  71.098  1.00  0.00    -0.172 NA 
HETATM    5  C   UNL     1     -10.161   7.175  70.800  1.00  0.00    -0.190 A  
HETATM    6  C   UNL     1      -9.140   7.982  70.284  1.00  0.00    -0.148 A  
HETATM    7  N   UNL     1     -11.539   7.498  71.122  1.00  0.00    -0.276 N  
HETATM    8  O   UNL     1     -12.205   6.642  71.716  1.00  0.00    -0.339 OA 
HETATM    9  O   UNL     1     -11.961   8.616  70.785  1.00  0.00    -0.240 OA 
ENDROOT
BRANCH   6  10
HETATM   10  S   UNL     1      -9.131   9.703  69.955  1.00  0.00    -0.230 SA 
BRANCH  10  11
HETATM   11  C   UNL     1      -9.653   9.987  68.285  1.00  0.00    -0.140 A  
HETATM   12  N   UNL     1      -9.815   8.954  67.428  1.00  0.00    -0.179 NA 
HETATM   13  C   UNL     1      -9.991   9.219  66.116  1.00  0.00    -0.277 A  
HETATM   14  N   UNL     1     -10.073  10.410  65.522  1.00  0.00    -0.287 NA 
HETATM   15  C   UNL     1      -9.897  11.429  66.377  1.00  0.00    -0.211 A  
HETATM   16  C   UNL     1      -9.657  11.260  67.732  1.00  0.00    -0.174 A  
HETATM   17  N   UNL     1      -9.412  12.535  68.183  1.00  0.00    -0.211 NA 
HETATM   18  H   UNL     1      -9.140  12.796  69.130  1.00  0.00     0.000 HD 
HETATM   19  C   UNL     1      -9.601  13.394  67.129  1.00  0.00    -0.241 A  
HETATM   20  N   UNL     1      -9.883  12.748  66.021  1.00  0.00    -0.264 NA 
ENDBRANCH  10  11
ENDBRANCH   6  10
TORSDOF 2
ENDMDL
MODEL      273
REMARK 921   NORMALIZED FREE ENERGY PREDICTED BY IDOCK:   -3.55 KCAL/MOL
REMARK 922        TOTAL FREE ENERGY PREDICTED BY IDOCK:   -4.28 KCAL/MOL
REMARK 923 INTER-LIGAND FREE ENERGY PREDICTED BY IDOCK:   -3.83 KCAL/MOL
REMARK 924 INTRA-LIGAND FREE ENERGY PREDICTED BY IDOCK:   -0.45 KCAL/MOL
REMARK 927      BINDING AFFINITY PREDICTED BY RF-SCORE:    0.00 PKD
ROOT
HETATM    1  C   UNL     1      -7.646   7.199  65.818  1.00  0.00    -0.094 C  
HETATM    2  N   UNL     1      -8.299   8.481  65.920  1.00  0.00    -0.130 NA 
HETATM    3  C   UNL     1      -7.859   9.553  65.178  1.00  0.00    -0.113 A  
HETATM    4  N   UNL     1      -8.622  10.603  65.334  1.00  0.00    -0.180 NA 
HETATM    5  C   UNL     1      -9.615  10.193  66.204  1.00  0.00    -0.203 A  
HETATM    6  C   UNL     1      -9.428   8.867  66.613  1.00  0.00    -0.202 A  
HETATM    7  N   UNL     1     -10.695  11.120  66.492  1.00  0.00    -0.267 N  
HETATM    8  O   UNL     1     -10.706  12.195  65.881  1.00  0.00    -0.251 OA 
HETATM    9  O   UNL     1     -11.543  10.772  67.330  1.00  0.00    -0.485 OA 
ENDROOT
BRANCH   6  10
HETATM   10  S   UNL     1     -10.494   7.815  67.522  1.00  0.00    -0.258 SA 
BRANCH  10  11
HETATM   11  C   UNL     1     -10.212   8.045  69.257  1.00  0.00    -0.213 A  
HETATM   12  N   UNL     1     -10.946   8.935  69.962  1.00  0.00    -0.230 NA 
HETATM   13  C   UNL     1     -10.558   9.245  71.218  1.00  0.00    -0.347 A  
HETATM   14  N   UNL     1      -9.533   8.748  71.909  1.00  0.00    -0.295 NA 
HETATM   15  C   UNL     1      -8.802   7.876  71.196  1.00  0.00    -0.138 A  
HETATM   16  C   UNL     1      -9.086   7.531  69.884  1.00  0.00    -0.144 A  
HETATM   17  N   UNL     1      -8.028   6.734  69.519  1.00  0.00    -0.122 NA 
HETATM   18  H   UNL     1      -7.865   6.337  68.594  1.00  0.00     0.000 HD 
HETATM   19  C   UNL     1      -7.230   6.568  70.623  1.00  0.00    -0.074 A  
HETATM   20  N   UNL     1      -7.670   7.259  71.649  1.00  0.00    -0.086 NA 
ENDBRANCH  10  11
ENDBRANCH   6  10
TORSDOF 2
ENDMDL
MODEL      274
REMARK 921   NORMALIZED FREE ENERGY PREDICTED BY IDOCK:   -3.54 KCAL/MOL
REMARK 922        TOTAL FREE ENERGY PREDICTED BY IDOCK:   -4.27 KCAL/MOL
REMARK 923 INTER-LIGAND FREE ENERGY PREDICTED BY IDOCK:   -3.50 KCAL/MOL
REMARK 924 INTRA-LIGAND FREE ENERGY PREDICTED BY IDOCK:   -0.77 KCAL/MOL
REMARK 927      BINDING AFFINITY PREDICTED BY RF-SCORE:    0.00 PKD
ROOT
HETATM    1  C   UNL     1     -10.709   9.638  68.661  1.00  0.00    -0.201 C  
HETATM    2  N   UNL     1     -10.694   9.191  70.033  1.00  0.00    -0.226 NA 
HETATM    3  C   UNL     1     -11.805   9.341  70.831  1.00  0.00    -0.282 A  
HETATM    4  N   UNL     1     -11.636   8.802  72.010  1.00  0.00    -0.355 NA 
HETATM    5  C   UNL     1     -10.365   8.261  71.975  1.00  0.00    -0.279 A  
HETATM    6  C   UNL     1      -9.733   8.508  70.751  1.00  0.00    -0.183 A  
HETATM    7  N   UNL     1      -9.921   7.486  73.119  1.00  0.00    -0.260 N  
HETATM    8  O   UNL     1     -10.735   7.289  74.030  1.00  0.00    -0.288 OA 
HETATM    9  O   UNL     1      -8.753   7.065  73.111  1.00  0.00    -0.122 OA 
ENDROOT
BRANCH   6  10
HETATM   10  S   UNL     1      -8.229   7.870  70.118  1.00  0.00    -0.127 SA 
BRANCH  10  11
HETATM   11  C   UNL     1      -8.556   6.396  69.190  1.00  0.00    -0.125 A  
HETATM   12  N   UNL     1      -8.723   6.449  67.850  1.00  0.00    -0.116 NA 
HETATM   13  C   UNL     1      -9.190   5.354  67.210  1.00  0.00    -0.111 A  
HETATM   14  N   UNL     1      -9.485   4.163  67.728  1.00  0.00    -0.172 NA 
HETATM   15  C   UNL     1      -9.330   4.124  69.061  1.00  0.00    -0.165 A  
HETATM   16  C   UNL     1      -8.907   5.207  69.815  1.00  0.00    -0.106 A  
HETATM   17  N   UNL     1      -9.019   4.767  71.111  1.00  0.00    -0.128 NA 
HETATM   18  H   UNL     1      -8.846   5.320  71.951  1.00  0.00     0.000 HD 
HETATM   19  C   UNL     1      -9.403   3.450  71.074  1.00  0.00    -0.142 A  
HETATM   20  N   UNL     1      -9.610   3.040  69.844  1.00  0.00    -0.112 NA 
ENDBRANCH  10  11
ENDBRANCH   6  10
TORSDOF 2
ENDMDL
MODEL      275
REMARK 921   NORMALIZED FREE ENERGY PREDICTED BY IDOCK:   -3.53 KCAL/MOL
REMARK 922        TOTAL FREE ENERGY PREDICTED BY IDOCK:   -4.26 KCAL/MOL
REMARK 923 INTER-LIGAND FREE ENERGY PREDICTED BY IDOCK:   -3.83 KCAL/MOL
REMARK 924 INTRA-LIGAND FREE ENERGY PREDICTED BY IDOCK:   -0.43 KCAL/MOL
REMARK 927      BINDING AFFINITY PREDICTED BY RF-SCORE:    0.00 PKD
ROOT
HETATM    1  C   UNL     1      -8.117   9.100  70.603  1.00  0.00    -0.172 C  
HETATM    2  N   UNL     1      -8.187   9.116  69.162  1.00  0.00    -0.114 NA 
HETATM    3  C   UNL     1      -7.238   8.465  68.407  1.00  0.00    -0.085 A  
HETATM    4  N   UNL     1      -7.512   8.515  67.130  1.00  0.00    -0.084 NA 
HETATM    5  C   UNL     1      -8.701   9.215  67.048  1.00  0.00    -0.123 A  
HETATM    6  C   UNL     1      -9.142   9.630  68.309  1.00  0.00    -0.123 A  
HETATM    7  N   UNL     1      -9.328   9.343  65.745  1.00  0.00    -0.221 N  
HETATM    8  O   UNL     1      -8.803   8.752  64.794  1.00  0.00    -0.154 OA 
HETATM    9  O   UNL     1     -10.357  10.035  65.668  1.00  0.00    -0.233 OA 
ENDROOT
BRANCH   6  10
HETATM   10  S   UNL     1     -10.669  10.348  68.780  1.00  0.00    -0.241 SA 
BRANCH  10  11
HETATM   11  C   UNL     1     -10.603  12.101  68.519  1.00  0.00    -0.233 A  
HETATM   12  N   UNL     1      -9.623  12.648  67.766  1.00  0.00    -0.191 NA 
HETATM   13  C   UNL     1      -9.472  13.991  67.773  1.00  0.00    -0.209 A  
HETATM   14  N   UNL     1     -10.209  14.897  68.413  1.00  0.00    -0.226 NA 
HETATM   15  C   UNL     1     -11.171  14.344  69.169  1.00  0.00    -0.272 A  
HETATM   16  C   UNL     1     -11.374  12.977  69.270  1.00  0.00    -0.251 A  
HETATM   17  N   UNL     1     -12.350  12.861  70.230  1.00  0.00    -0.269 NA 
HETATM   18  H   UNL     1     -12.718  11.990  70.611  1.00  0.00     0.000 HD 
HETATM   19  C   UNL     1     -12.741  14.128  70.583  1.00  0.00    -0.321 A  
HETATM   20  N   UNL     1     -12.033  15.045  69.963  1.00  0.00    -0.311 NA 
ENDBRANCH  10  11
ENDBRANCH   6  10
TORSDOF 2
ENDMDL
MODEL      276
REMARK 921   NORMALIZED FREE ENERGY PREDICTED BY IDOCK:   -3.50 KCAL/MOL
REMARK 922        TOTAL FREE ENERGY PREDICTED BY IDOCK:   -4.23 KCAL/MOL
REMARK 923 INTER-LIGAND FREE ENERGY PREDICTED BY IDOCK:   -3.82 KCAL/MOL
REMARK 924 INTRA-LIGAND FREE ENERGY PREDICTED BY IDOCK:   -0.40 KCAL/MOL
REMARK 927      BINDING AFFINITY PREDICTED BY RF-SCORE:    0.00 PKD
ROOT
HETATM    1  C   UNL     1     -11.152   9.901  70.126  1.00  0.00    -0.296 C  
HETATM    2  N   UNL     1     -11.328  10.920  69.120  1.00  0.00    -0.258 NA 
HETATM    3  C   UNL     1     -11.697  12.198  69.474  1.00  0.00    -0.336 A  
HETATM    4  N   UNL     1     -11.723  13.002  68.444  1.00  0.00    -0.331 NA 
HETATM    5  C   UNL     1     -11.337  12.219  67.372  1.00  0.00    -0.325 A  
HETATM    6  C   UNL     1     -11.103  10.894  67.759  1.00  0.00    -0.309 A  
HETATM    7  N   UNL     1     -11.161  12.864  66.084  1.00  0.00    -0.283 N  
HETATM    8  O   UNL     1     -11.292  14.094  66.035  1.00  0.00    -0.318 OA 
HETATM    9  O   UNL     1     -10.886  12.143  65.112  1.00  0.00    -0.282 OA 
ENDROOT
BRANCH   6  10
HETATM   10  S   UNL     1     -10.401   9.570  66.851  1.00  0.00    -0.216 SA 
BRANCH  10  11
HETATM   11  C   UNL     1      -8.732   9.307  67.388  1.00  0.00    -0.118 A  
HETATM   12  N   UNL     1      -7.708   9.971  66.806  1.00  0.00    -0.102 NA 
HETATM   13  C   UNL     1      -6.443   9.584  67.081  1.00  0.00    -0.066 A  
HETATM   14  N   UNL     1      -6.039   8.624  67.912  1.00  0.00    -0.050 NA 
HETATM   15  C   UNL     1      -7.062   7.961  68.474  1.00  0.00    -0.076 A  
HETATM   16  C   UNL     1      -8.394   8.246  68.217  1.00  0.00    -0.132 A  
HETATM   17  N   UNL     1      -9.075   7.258  68.886  1.00  0.00    -0.133 NA 
HETATM   18  H   UNL     1     -10.085   7.112  68.878  1.00  0.00     0.000 HD 
HETATM   19  C   UNL     1      -8.154   6.503  69.567  1.00  0.00    -0.118 A  
HETATM   20  N   UNL     1      -6.926   6.901  69.325  1.00  0.00    -0.071 NA 
ENDBRANCH  10  11
ENDBRANCH   6  10
TORSDOF 2
ENDMDL
MODEL      277
REMARK 921   NORMALIZED FREE ENERGY PREDICTED BY IDOCK:   -3.47 KCAL/MOL
REMARK 922        TOTAL FREE ENERGY PREDICTED BY IDOCK:   -4.19 KCAL/MOL
REMARK 923 INTER-LIGAND FREE ENERGY PREDICTED BY IDOCK:   -3.78 KCAL/MOL
REMARK 924 INTRA-LIGAND FREE ENERGY PREDICTED BY IDOCK:   -0.41 KCAL/MOL
REMARK 927      BINDING AFFINITY PREDICTED BY RF-SCORE:    0.00 PKD
ROOT
HETATM    1  C   UNL     1     -11.410   6.793  71.755  1.00  0.00    -0.269 C  
HETATM    2  N   UNL     1     -10.675   5.773  71.048  1.00  0.00    -0.259 NA 
HETATM    3  C   UNL     1     -10.140   4.699  71.723  1.00  0.00    -0.191 A  
HETATM    4  N   UNL     1      -9.587   3.837  70.910  1.00  0.00    -0.176 NA 
HETATM    5  C   UNL     1      -9.785   4.363  69.647  1.00  0.00    -0.219 A  
HETATM    6  C   UNL     1     -10.447   5.595  69.699  1.00  0.00    -0.304 A  
HETATM    7  N   UNL     1      -9.371   3.568  68.505  1.00  0.00    -0.166 N  
HETATM    8  O   UNL     1      -8.936   2.431  68.724  1.00  0.00    -0.093 OA 
HETATM    9  O   UNL     1      -9.485   4.078  67.378  1.00  0.00    -0.170 OA 
ENDROOT
BRANCH   6  10
HETATM   10  S   UNL     1     -11.119   6.560  68.400  1.00  0.00    -0.186 SA 
BRANCH  10  11
HETATM   11  C   UNL     1     -10.183   8.057  68.231  1.00  0.00    -0.205 A  
HETATM   12  N   UNL     1     -10.295   9.046  69.147  1.00  0.00    -0.215 NA 
HETATM   13  C   UNL     1      -9.747  10.250  68.872  1.00  0.00    -0.189 A  
HETATM   14  N   UNL     1      -9.046  10.608  67.797  1.00  0.00    -0.142 NA 
HETATM   15  C   UNL     1      -8.953   9.625  66.888  1.00  0.00    -0.134 A  
HETATM   16  C   UNL     1      -9.523   8.372  67.052  1.00  0.00    -0.174 A  
HETATM   17  N   UNL     1      -9.296   7.749  65.849  1.00  0.00    -0.402 NA 
HETATM   18  H   UNL     1      -9.628   6.822  65.580  1.00  0.00     0.000 HD 
HETATM   19  C   UNL     1      -8.543   8.595  65.075  1.00  0.00    -0.158 A  
HETATM   20  N   UNL     1      -8.331   9.743  65.677  1.00  0.00    -0.130 NA 
ENDBRANCH  10  11
ENDBRANCH   6  10
TORSDOF 2
ENDMDL
MODEL      278
REMARK 921   NORMALIZED FREE ENERGY PREDICTED BY IDOCK:   -3.46 KCAL/MOL
REMARK 922        TOTAL FREE ENERGY PREDICTED BY IDOCK:   -4.18 KCAL/MOL
REMARK 923 INTER-LIGAND FREE ENERGY PREDICTED BY IDOCK:   -3.78 KCAL/MOL
REMARK 924 INTRA-LIGAND FREE ENERGY PREDICTED BY IDOCK:   -0.40 KCAL/MOL
REMARK 927      BINDING AFFINITY PREDICTED BY RF-SCORE:    0.00 PKD
ROOT
HETATM    1  C   UNL     1      -8.907   8.711  65.826  1.00  0.00    -0.193 C  
HETATM    2  N   UNL     1      -9.284   8.457  67.195  1.00  0.00    -0.139 NA 
HETATM    3  C   UNL     1      -8.859   9.289  68.205  1.00  0.00    -0.129 A  
HETATM    4  N   UNL     1      -9.369   8.953  69.361  1.00  0.00    -0.152 NA 
HETATM    5  C   UNL     1     -10.176   7.864  69.091  1.00  0.00    -0.216 A  
HETATM    6  C   UNL     1     -10.127   7.509  67.739  1.00  0.00    -0.185 A  
HETATM    7  N   UNL     1     -10.976   7.323  70.175  1.00  0.00    -0.256 N  
HETATM    8  O   UNL     1     -10.950   7.917  71.260  1.00  0.00    -0.233 OA 
HETATM    9  O   UNL     1     -11.642   6.301  69.943  1.00  0.00    -0.435 OA 
ENDROOT
BRANCH   6  10
HETATM   10  S   UNL     1     -11.106   6.361  66.847  1.00  0.00    -0.088 SA 
BRANCH  10  11
HETATM   11  C   UNL     1     -10.203   4.850  66.640  1.00  0.00    -0.255 A  
HETATM   12  N   UNL     1      -9.166   4.550  67.454  1.00  0.00    -0.128 NA 
HETATM   13  C   UNL     1      -8.366   3.511  67.131  1.00  0.00    -0.092 A  
HETATM   14  N   UNL     1      -8.480   2.675  66.099  1.00  0.00    -0.093 NA 
HETATM   15  C   UNL     1      -9.503   2.989  65.289  1.00  0.00    -0.084 A  
HETATM   16  C   UNL     1     -10.349   4.066  65.504  1.00  0.00    -0.041 A  
HETATM   17  N   UNL     1     -11.144   4.086  64.384  1.00  0.00    -0.763 NA 
HETATM   18  H   UNL     1     -11.855   4.784  64.164  1.00  0.00     0.000 HD 
HETATM   19  C   UNL     1     -10.811   3.000  63.615  1.00  0.00    -0.169 A  
HETATM   20  N   UNL     1      -9.811   2.325  64.135  1.00  0.00    -0.128 NA 
ENDBRANCH  10  11
ENDBRANCH   6  10
TORSDOF 2
ENDMDL
MODEL      279
REMARK 921   NORMALIZED FREE ENERGY PREDICTED BY IDOCK:   -3.45 KCAL/MOL
REMARK 922        TOTAL FREE ENERGY PREDICTED BY IDOCK:   -4.18 KCAL/MOL
REMARK 923 INTER-LIGAND FREE ENERGY PREDICTED BY IDOCK:   -3.70 KCAL/MOL
REMARK 924 INTRA-LIGAND FREE ENERGY PREDICTED BY IDOCK:   -0.47 KCAL/MOL
REMARK 927      BINDING AFFINITY PREDICTED BY RF-SCORE:    0.00 PKD
ROOT
HETATM    1  C   UNL     1     -10.385   9.620  65.982  1.00  0.00    -0.090 C  
HETATM    2  N   UNL     1      -9.212   9.098  66.639  1.00  0.00    -0.155 NA 
HETATM    3  C   UNL     1      -7.986   9.698  66.465  1.00  0.00    -0.112 A  
HETATM    4  N   UNL     1      -7.061   9.142  67.203  1.00  0.00    -0.082 NA 
HETATM    5  C   UNL     1      -7.716   8.146  67.903  1.00  0.00    -0.114 A  
HETATM    6  C   UNL     1      -9.069   8.074  67.554  1.00  0.00    -0.137 A  
HETATM    7  N   UNL     1      -6.966   7.410  68.904  1.00  0.00    -0.075 N  
HETATM    8  O   UNL     1      -5.803   7.768  69.129  1.00  0.00    -0.029 OA 
HETATM    9  O   UNL     1      -7.540   6.469  69.476  1.00  0.00    -0.091 OA 
ENDROOT
BRANCH   6  10
HETATM   10  S   UNL     1     -10.367   7.152  68.285  1.00  0.00    -0.200 SA 
BRANCH  10  11
HETATM   11  C   UNL     1     -10.671   7.757  69.923  1.00  0.00    -0.245 A  
HETATM   12  N   UNL     1     -10.463   6.965  70.999  1.00  0.00    -0.213 NA 
HETATM   13  C   UNL     1     -10.914   7.375  72.205  1.00  0.00    -0.245 A  
HETATM   14  N   UNL     1     -11.528   8.518  72.507  1.00  0.00    -0.352 NA 
HETATM   15  C   UNL     1     -11.742   9.292  71.431  1.00  0.00    -0.361 A  
HETATM   16  C   UNL     1     -11.365   8.938  70.145  1.00  0.00    -0.106 A  
HETATM   17  N   UNL     1     -11.889   9.938  69.363  1.00  0.00    -0.450 NA 
HETATM   18  H   UNL     1     -11.858   9.984  68.344  1.00  0.00     0.000 HD 
HETATM   19  C   UNL     1     -12.459  10.866  70.198  1.00  0.00    -0.283 A  
HETATM   20  N   UNL     1     -12.394  10.492  71.455  1.00  0.00    -0.365 NA 
ENDBRANCH  10  11
ENDBRANCH   6  10
TORSDOF 2
ENDMDL
MODEL      280
REMARK 921   NORMALIZED FREE ENERGY PREDICTED BY IDOCK:   -3.43 KCAL/MOL
REMARK 922        TOTAL FREE ENERGY PREDICTED BY IDOCK:   -4.15 KCAL/MOL
REMARK 923 INTER-LIGAND FREE ENERGY PREDICTED BY IDOCK:   -3.70 KCAL/MOL
REMARK 924 INTRA-LIGAND FREE ENERGY PREDICTED BY IDOCK:   -0.45 KCAL/MOL
REMARK 927      BINDING AFFINITY PREDICTED BY RF-SCORE:    0.00 PKD
ROOT
HETATM    1  C   UNL     1      -5.874   8.123  67.376  1.00  0.00    -0.043 C  
HETATM    2  N   UNL     1      -6.796   7.018  67.286  1.00  0.00    -0.067 NA 
HETATM    3  C   UNL     1      -6.475   5.790  67.819  1.00  0.00    -0.047 A  
HETATM    4  N   UNL     1      -7.463   4.940  67.719  1.00  0.00    -0.078 NA 
HETATM    5  C   UNL     1      -8.481   5.648  67.109  1.00  0.00    -0.110 A  
HETATM    6  C   UNL     1      -8.087   6.955  66.800  1.00  0.00    -0.109 A  
HETATM    7  N   UNL     1      -9.769   4.996  66.957  1.00  0.00    -0.152 N  
HETATM    8  O   UNL     1      -9.905   3.871  67.452  1.00  0.00    -0.168 OA 
HETATM    9  O   UNL     1     -10.656   5.611  66.343  1.00  0.00    -0.244 OA 
ENDROOT
BRANCH   6  10
HETATM   10  S   UNL     1      -9.043   8.307  66.228  1.00  0.00    -0.193 SA 
BRANCH  10  11
HETATM   11  C   UNL     1      -9.827   9.101  67.605  1.00  0.00    -0.172 A  
HETATM   12  N   UNL     1      -9.939   8.466  68.794  1.00  0.00    -0.181 NA 
HETATM   13  C   UNL     1     -10.733   9.004  69.745  1.00  0.00    -0.225 A  
HETATM   14  N   UNL     1     -11.421  10.144  69.693  1.00  0.00    -0.226 NA 
HETATM   15  C   UNL     1     -11.315  10.760  68.506  1.00  0.00    -0.295 A  
HETATM   16  C   UNL     1     -10.569  10.263  67.448  1.00  0.00    -0.270 A  
HETATM   17  N   UNL     1     -10.848  11.126  66.416  1.00  0.00    -0.256 NA 
HETATM   18  H   UNL     1     -10.517  11.041  65.455  1.00  0.00     0.000 HD 
HETATM   19  C   UNL     1     -11.651  12.123  66.911  1.00  0.00    -0.341 A  
HETATM   20  N   UNL     1     -11.958  11.918  68.171  1.00  0.00    -0.528 NA 
ENDBRANCH  10  11
ENDBRANCH   6  10
TORSDOF 2
ENDMDL
MODEL      281
REMARK 921   NORMALIZED FREE ENERGY PREDICTED BY IDOCK:   -3.43 KCAL/MOL
REMARK 922        TOTAL FREE ENERGY PREDICTED BY IDOCK:   -4.15 KCAL/MOL
REMARK 923 INTER-LIGAND FREE ENERGY PREDICTED BY IDOCK:   -3.65 KCAL/MOL
REMARK 924 INTRA-LIGAND FREE ENERGY PREDICTED BY IDOCK:   -0.50 KCAL/MOL
REMARK 927      BINDING AFFINITY PREDICTED BY RF-SCORE:    0.00 PKD
ROOT
HETATM    1  C   UNL     1      -9.415   3.940  69.634  1.00  0.00    -0.193 C  
HETATM    2  N   UNL     1      -9.260   5.079  70.505  1.00  0.00    -0.140 NA 
HETATM    3  C   UNL     1      -8.252   5.114  71.441  1.00  0.00    -0.115 A  
HETATM    4  N   UNL     1      -8.214   6.257  72.076  1.00  0.00    -0.110 NA 
HETATM    5  C   UNL     1      -9.232   7.008  71.517  1.00  0.00    -0.153 A  
HETATM    6  C   UNL     1      -9.927   6.287  70.540  1.00  0.00    -0.186 A  
HETATM    7  N   UNL     1      -9.374   8.387  71.945  1.00  0.00    -0.219 N  
HETATM    8  O   UNL     1      -8.528   8.836  72.727  1.00  0.00    -0.414 OA 
HETATM    9  O   UNL     1     -10.334   9.033  71.493  1.00  0.00    -0.291 OA 
ENDROOT
BRANCH   6  10
HETATM   10  S   UNL     1     -11.141   6.832  69.399  1.00  0.00    -0.238 SA 
BRANCH  10  11
HETATM   11  C   UNL     1     -10.374   7.835  68.155  1.00  0.00    -0.200 A  
HETATM   12  N   UNL     1     -10.728   9.130  68.000  1.00  0.00    -0.191 NA 
HETATM   13  C   UNL     1     -10.293   9.796  66.908  1.00  0.00    -0.234 A  
HETATM   14  N   UNL     1      -9.496   9.351  65.937  1.00  0.00    -0.232 NA 
HETATM   15  C   UNL     1      -9.161   8.061  66.092  1.00  0.00    -0.176 A  
HETATM   16  C   UNL     1      -9.597   7.277  67.149  1.00  0.00    -0.160 A  
HETATM   17  N   UNL     1      -9.133   6.022  66.840  1.00  0.00    -0.122 NA 
HETATM   18  H   UNL     1      -9.312   5.167  67.367  1.00  0.00     0.000 HD 
HETATM   19  C   UNL     1      -8.384   6.124  65.694  1.00  0.00    -0.146 A  
HETATM   20  N   UNL     1      -8.394   7.347  65.215  1.00  0.00    -0.131 NA 
ENDBRANCH  10  11
ENDBRANCH   6  10
TORSDOF 2
ENDMDL
MODEL      282
REMARK 921   NORMALIZED FREE ENERGY PREDICTED BY IDOCK:   -3.43 KCAL/MOL
REMARK 922        TOTAL FREE ENERGY PREDICTED BY IDOCK:   -4.15 KCAL/MOL
REMARK 923 INTER-LIGAND FREE ENERGY PREDICTED BY IDOCK:   -3.76 KCAL/MOL
REMARK 924 INTRA-LIGAND FREE ENERGY PREDICTED BY IDOCK:   -0.39 KCAL/MOL
REMARK 927      BINDING AFFINITY PREDICTED BY RF-SCORE:    0.00 PKD
ROOT
HETATM    1  C   UNL     1     -11.134  13.617  69.316  1.00  0.00    -0.193 C  
HETATM    2  N   UNL     1     -10.652  14.565  68.342  1.00  0.00    -0.238 NA 
HETATM    3  C   UNL     1     -11.529  15.370  67.652  1.00  0.00    -0.251 A  
HETATM    4  N   UNL     1     -10.908  16.222  66.879  1.00  0.00    -0.219 NA 
HETATM    5  C   UNL     1      -9.563  15.974  67.087  1.00  0.00    -0.218 A  
HETATM    6  C   UNL     1      -9.366  14.919  67.985  1.00  0.00    -0.193 A  
HETATM    7  N   UNL     1      -8.601  16.848  66.440  1.00  0.00    -0.275 N  
HETATM    8  O   UNL     1      -9.040  17.812  65.802  1.00  0.00    -0.503 OA 
HETATM    9  O   UNL     1      -7.397  16.574  66.572  1.00  0.00    -0.240 OA 
ENDROOT
BRANCH   6  10
HETATM   10  S   UNL     1      -7.890  14.355  68.742  1.00  0.00    -0.119 SA 
BRANCH  10  11
HETATM   11  C   UNL     1      -7.614  12.659  68.306  1.00  0.00    -0.133 A  
HETATM   12  N   UNL     1      -8.241  12.110  67.242  1.00  0.00    -0.172 NA 
HETATM   13  C   UNL     1      -8.185  10.771  67.073  1.00  0.00    -0.126 A  
HETATM   14  N   UNL     1      -7.536   9.876  67.818  1.00  0.00    -0.089 NA 
HETATM   15  C   UNL     1      -6.928  10.428  68.880  1.00  0.00    -0.067 A  
HETATM   16  C   UNL     1      -6.970  11.782  69.169  1.00  0.00    -0.091 A  
HETATM   17  N   UNL     1      -6.342  11.877  70.387  1.00  0.00    -0.500 NA 
HETATM   18  H   UNL     1      -6.234  12.725  70.944  1.00  0.00     0.000 HD 
HETATM   19  C   UNL     1      -5.884  10.627  70.719  1.00  0.00    -0.084 A  
HETATM   20  N   UNL     1      -6.236   9.729  69.828  1.00  0.00    -0.044 NA 
ENDBRANCH  10  11
ENDBRANCH   6  10
TORSDOF 2
ENDMDL
MODEL      283
REMARK 921   NORMALIZED FREE ENERGY PREDICTED BY IDOCK:   -3.43 KCAL/MOL
REMARK 922        TOTAL FREE ENERGY PREDICTED BY IDOCK:   -4.15 KCAL/MOL
REMARK 923 INTER-LIGAND FREE ENERGY PREDICTED BY IDOCK:   -3.80 KCAL/MOL
REMARK 924 INTRA-LIGAND FREE ENERGY PREDICTED BY IDOCK:   -0.35 KCAL/MOL
REMARK 927      BINDING AFFINITY PREDICTED BY RF-SCORE:    0.00 PKD
ROOT
HETATM    1  C   UNL     1     -11.580  11.495  68.064  1.00  0.00    -0.300 C  
HETATM    2  N   UNL     1     -11.135  12.766  67.546  1.00  0.00    -0.252 NA 
HETATM    3  C   UNL     1     -12.039  13.770  67.282  1.00  0.00    -0.357 A  
HETATM    4  N   UNL     1     -11.447  14.873  66.903  1.00  0.00    -0.341 NA 
HETATM    5  C   UNL     1     -10.096  14.581  66.936  1.00  0.00    -0.257 A  
HETATM    6  C   UNL     1      -9.865  13.253  67.315  1.00  0.00    -0.233 A  
HETATM    7  N   UNL     1      -9.159  15.656  66.667  1.00  0.00    -0.257 N  
HETATM    8  O   UNL     1      -9.621  16.791  66.499  1.00  0.00    -0.241 OA 
HETATM    9  O   UNL     1      -7.952  15.370  66.627  1.00  0.00    -0.201 OA 
ENDROOT
BRANCH   6  10
HETATM   10  S   UNL     1      -8.360  12.449  67.714  1.00  0.00    -0.177 SA 
BRANCH  10  11
HETATM   11  C   UNL     1      -8.275  10.898  66.861  1.00  0.00    -0.135 A  
HETATM   12  N   UNL     1      -8.707  10.789  65.584  1.00  0.00    -0.187 NA 
HETATM   13  C   UNL     1      -8.837   9.557  65.045  1.00  0.00    -0.195 A  
HETATM   14  N   UNL     1      -8.549   8.382  65.603  1.00  0.00    -0.166 NA 
HETATM   15  C   UNL     1      -8.135   8.498  66.874  1.00  0.00    -0.099 A  
HETATM   16  C   UNL     1      -8.018   9.711  67.534  1.00  0.00    -0.106 A  
HETATM   17  N   UNL     1      -7.699   9.355  68.821  1.00  0.00    -0.079 NA 
HETATM   18  H   UNL     1      -7.590   9.990  69.612  1.00  0.00     0.000 HD 
HETATM   19  C   UNL     1      -7.553   7.990  68.853  1.00  0.00    -0.099 A  
HETATM   20  N   UNL     1      -7.823   7.446  67.688  1.00  0.00    -0.111 NA 
ENDBRANCH  10  11
ENDBRANCH   6  10
TORSDOF 2
ENDMDL
MODEL      284
REMARK 921   NORMALIZED FREE ENERGY PREDICTED BY IDOCK:   -3.42 KCAL/MOL
REMARK 922        TOTAL FREE ENERGY PREDICTED BY IDOCK:   -4.14 KCAL/MOL
REMARK 923 INTER-LIGAND FREE ENERGY PREDICTED BY IDOCK:   -3.65 KCAL/MOL
REMARK 924 INTRA-LIGAND FREE ENERGY PREDICTED BY IDOCK:   -0.49 KCAL/MOL
REMARK 927      BINDING AFFINITY PREDICTED BY RF-SCORE:    0.00 PKD
ROOT
HETATM    1  C   UNL     1      -7.599   7.269  64.714  1.00  0.00    -0.104 C  
HETATM    2  N   UNL     1      -8.221   8.526  65.049  1.00  0.00    -0.151 NA 
HETATM    3  C   UNL     1      -8.910   9.244  64.099  1.00  0.00    -0.141 A  
HETATM    4  N   UNL     1      -9.476  10.308  64.604  1.00  0.00    -0.268 NA 
HETATM    5  C   UNL     1      -9.157  10.276  65.949  1.00  0.00    -0.163 A  
HETATM    6  C   UNL     1      -8.346   9.178  66.260  1.00  0.00    -0.119 A  
HETATM    7  N   UNL     1      -9.741  11.285  66.813  1.00  0.00    -0.191 N  
HETATM    8  O   UNL     1     -10.555  12.070  66.310  1.00  0.00    -0.238 OA 
HETATM    9  O   UNL     1      -9.392  11.294  68.004  1.00  0.00    -0.156 OA 
ENDROOT
BRANCH   6  10
HETATM   10  S   UNL     1      -7.846   8.564  67.822  1.00  0.00    -0.104 SA 
BRANCH  10  11
HETATM   11  C   UNL     1      -9.180   7.654  68.554  1.00  0.00    -0.143 A  
HETATM   12  N   UNL     1      -9.992   6.889  67.790  1.00  0.00    -0.142 NA 
HETATM   13  C   UNL     1     -11.123   6.395  68.338  1.00  0.00    -0.285 A  
HETATM   14  N   UNL     1     -11.553   6.524  69.593  1.00  0.00    -0.353 NA 
HETATM   15  C   UNL     1     -10.747   7.295  70.340  1.00  0.00    -0.236 A  
HETATM   16  C   UNL     1      -9.593   7.892  69.857  1.00  0.00    -0.168 A  
HETATM   17  N   UNL     1      -9.168   8.677  70.901  1.00  0.00    -0.173 NA 
HETATM   18  H   UNL     1      -8.370   9.312  70.890  1.00  0.00     0.000 HD 
HETATM   19  C   UNL     1     -10.009   8.453  71.962  1.00  0.00    -0.284 A  
HETATM   20  N   UNL     1     -10.981   7.628  71.644  1.00  0.00    -0.231 NA 
ENDBRANCH  10  11
ENDBRANCH   6  10
TORSDOF 2
ENDMDL
MODEL      285
REMARK 921   NORMALIZED FREE ENERGY PREDICTED BY IDOCK:   -3.42 KCAL/MOL
REMARK 922        TOTAL FREE ENERGY PREDICTED BY IDOCK:   -4.14 KCAL/MOL
REMARK 923 INTER-LIGAND FREE ENERGY PREDICTED BY IDOCK:   -3.44 KCAL/MOL
REMARK 924 INTRA-LIGAND FREE ENERGY PREDICTED BY IDOCK:   -0.69 KCAL/MOL
REMARK 927      BINDING AFFINITY PREDICTED BY RF-SCORE:    0.00 PKD
ROOT
HETATM    1  C   UNL     1      -8.065  11.125  68.365  1.00  0.00    -0.141 C  
HETATM    2  N   UNL     1      -8.987  10.059  68.061  1.00  0.00    -0.128 NA 
HETATM    3  C   UNL     1     -10.023  10.258  67.178  1.00  0.00    -0.197 A  
HETATM    4  N   UNL     1     -10.699   9.160  66.961  1.00  0.00    -0.193 NA 
HETATM    5  C   UNL     1     -10.066   8.197  67.724  1.00  0.00    -0.204 A  
HETATM    6  C   UNL     1      -8.997   8.734  68.450  1.00  0.00    -0.141 A  
HETATM    7  N   UNL     1     -10.526   6.825  67.609  1.00  0.00    -0.200 N  
HETATM    8  O   UNL     1     -11.408   6.583  66.775  1.00  0.00    -0.272 OA 
HETATM    9  O   UNL     1     -10.002   5.978  68.351  1.00  0.00    -0.130 OA 
ENDROOT
BRANCH   6  10
HETATM   10  S   UNL     1      -7.758   7.922  69.384  1.00  0.00    -0.107 SA 
BRANCH  10  11
HETATM   11  C   UNL     1      -8.098   8.117  71.113  1.00  0.00    -0.103 A  
HETATM   12  N   UNL     1      -7.124   8.504  71.967  1.00  0.00    -0.125 NA 
HETATM   13  C   UNL     1      -7.357   8.425  73.296  1.00  0.00    -0.060 A  
HETATM   14  N   UNL     1      -8.473   8.041  73.913  1.00  0.00    -0.255 NA 
HETATM   15  C   UNL     1      -9.429   7.645  73.058  1.00  0.00    -0.226 A  
HETATM   16  C   UNL     1      -9.270   7.638  71.681  1.00  0.00    -0.134 A  
HETATM   17  N   UNL     1     -10.422   7.046  71.222  1.00  0.00    -0.207 NA 
HETATM   18  H   UNL     1     -10.635   6.819  70.251  1.00  0.00     0.000 HD 
HETATM   19  C   UNL     1     -11.233   6.815  72.304  1.00  0.00    -0.259 A  
HETATM   20  N   UNL     1     -10.650   7.158  73.430  1.00  0.00    -0.360 NA 
ENDBRANCH  10  11
ENDBRANCH   6  10
TORSDOF 2
ENDMDL
MODEL      286
REMARK 921   NORMALIZED FREE ENERGY PREDICTED BY IDOCK:   -3.41 KCAL/MOL
REMARK 922        TOTAL FREE ENERGY PREDICTED BY IDOCK:   -4.13 KCAL/MOL
REMARK 923 INTER-LIGAND FREE ENERGY PREDICTED BY IDOCK:   -3.83 KCAL/MOL
REMARK 924 INTRA-LIGAND FREE ENERGY PREDICTED BY IDOCK:   -0.30 KCAL/MOL
REMARK 927      BINDING AFFINITY PREDICTED BY RF-SCORE:    0.00 PKD
ROOT
HETATM    1  C   UNL     1     -10.274   7.628  66.623  1.00  0.00    -0.202 C  
HETATM    2  N   UNL     1      -9.329   6.633  67.070  1.00  0.00    -0.136 NA 
HETATM    3  C   UNL     1      -8.097   6.515  66.468  1.00  0.00    -0.111 A  
HETATM    4  N   UNL     1      -7.347   5.623  67.060  1.00  0.00    -0.079 NA 
HETATM    5  C   UNL     1      -8.118   5.148  68.105  1.00  0.00    -0.094 A  
HETATM    6  C   UNL     1      -9.383   5.746  68.126  1.00  0.00    -0.109 A  
HETATM    7  N   UNL     1      -7.509   4.208  69.028  1.00  0.00    -0.055 N  
HETATM    8  O   UNL     1      -6.310   3.944  68.871  1.00  0.00    -0.031 OA 
HETATM    9  O   UNL     1      -8.229   3.730  69.920  1.00  0.00    -0.053 OA 
ENDROOT
BRANCH   6  10
HETATM   10  S   UNL     1     -10.640   5.662  69.343  1.00  0.00    -0.287 SA 
BRANCH  10  11
HETATM   11  C   UNL     1     -10.861   7.261  70.076  1.00  0.00    -0.253 A  
HETATM   12  N   UNL     1      -9.835   8.139  70.136  1.00  0.00    -0.183 NA 
HETATM   13  C   UNL     1      -9.973   9.249  70.894  1.00  0.00    -0.297 A  
HETATM   14  N   UNL     1     -11.039   9.641  71.591  1.00  0.00    -0.281 NA 
HETATM   15  C   UNL     1     -12.048   8.757  71.536  1.00  0.00    -0.329 A  
HETATM   16  C   UNL     1     -11.986   7.566  70.830  1.00  0.00    -0.251 A  
HETATM   17  N   UNL     1     -13.159   6.930  71.156  1.00  0.00    -0.389 NA 
HETATM   18  H   UNL     1     -13.437   5.993  70.863  1.00  0.00     0.000 HD 
HETATM   19  C   UNL     1     -13.891   7.782  71.945  1.00  0.00    -0.297 A  
HETATM   20  N   UNL     1     -13.235   8.891  72.200  1.00  0.00    -0.397 NA 
ENDBRANCH  10  11
ENDBRANCH   6  10
TORSDOF 2
ENDMDL
MODEL      287
REMARK 921   NORMALIZED FREE ENERGY PREDICTED BY IDOCK:   -3.41 KCAL/MOL
REMARK 922        TOTAL FREE ENERGY PREDICTED BY IDOCK:   -4.13 KCAL/MOL
REMARK 923 INTER-LIGAND FREE ENERGY PREDICTED BY IDOCK:   -3.66 KCAL/MOL
REMARK 924 INTRA-LIGAND FREE ENERGY PREDICTED BY IDOCK:   -0.47 KCAL/MOL
REMARK 927      BINDING AFFINITY PREDICTED BY RF-SCORE:    0.00 PKD
ROOT
HETATM    1  C   UNL     1      -9.680   4.135  69.262  1.00  0.00    -0.149 C  
HETATM    2  N   UNL     1      -9.916   4.671  70.581  1.00  0.00    -0.226 NA 
HETATM    3  C   UNL     1      -9.460   4.010  71.698  1.00  0.00    -0.149 A  
HETATM    4  N   UNL     1      -9.689   4.686  72.794  1.00  0.00    -0.137 NA 
HETATM    5  C   UNL     1     -10.309   5.847  72.371  1.00  0.00    -0.197 A  
HETATM    6  C   UNL     1     -10.490   5.860  70.983  1.00  0.00    -0.237 A  
HETATM    7  N   UNL     1     -10.596   6.867  73.364  1.00  0.00    -0.321 N  
HETATM    8  O   UNL     1     -10.199   6.671  74.519  1.00  0.00    -0.356 OA 
HETATM    9  O   UNL     1     -11.217   7.875  72.990  1.00  0.00    -0.411 OA 
ENDROOT
BRANCH   6  10
HETATM   10  S   UNL     1     -11.017   7.161  69.935  1.00  0.00    -0.234 SA 
BRANCH  10  11
HETATM   11  C   UNL     1      -9.621   8.155  69.479  1.00  0.00    -0.168 A  
HETATM   12  N   UNL     1      -9.186   9.144  70.290  1.00  0.00    -0.199 NA 
HETATM   13  C   UNL     1      -8.273  10.019  69.815  1.00  0.00    -0.178 A  
HETATM   14  N   UNL     1      -7.683  10.023  68.620  1.00  0.00    -0.084 NA 
HETATM   15  C   UNL     1      -8.131   9.046  67.817  1.00  0.00    -0.109 A  
HETATM   16  C   UNL     1      -9.103   8.131  68.192  1.00  0.00    -0.134 A  
HETATM   17  N   UNL     1      -9.342   7.418  67.042  1.00  0.00    -0.142 NA 
HETATM   18  H   UNL     1     -10.045   6.689  66.922  1.00  0.00     0.000 HD 
HETATM   19  C   UNL     1      -8.465   7.862  66.085  1.00  0.00    -0.133 A  
HETATM   20  N   UNL     1      -7.728   8.856  66.525  1.00  0.00    -0.098 NA 
ENDBRANCH  10  11
ENDBRANCH   6  10
TORSDOF 2
ENDMDL
MODEL      288
REMARK 921   NORMALIZED FREE ENERGY PREDICTED BY IDOCK:   -3.40 KCAL/MOL
REMARK 922        TOTAL FREE ENERGY PREDICTED BY IDOCK:   -4.12 KCAL/MOL
REMARK 923 INTER-LIGAND FREE ENERGY PREDICTED BY IDOCK:   -3.65 KCAL/MOL
REMARK 924 INTRA-LIGAND FREE ENERGY PREDICTED BY IDOCK:   -0.47 KCAL/MOL
REMARK 927      BINDING AFFINITY PREDICTED BY RF-SCORE:    0.00 PKD
ROOT
HETATM    1  C   UNL     1      -9.794   4.136  68.934  1.00  0.00    -0.022 C  
HETATM    2  N   UNL     1     -10.177   5.374  69.569  1.00  0.00    -0.243 NA 
HETATM    3  C   UNL     1     -10.105   5.511  70.936  1.00  0.00    -0.213 A  
HETATM    4  N   UNL     1     -10.407   6.723  71.322  1.00  0.00    -0.203 NA 
HETATM    5  C   UNL     1     -10.673   7.412  70.154  1.00  0.00    -0.242 A  
HETATM    6  C   UNL     1     -10.560   6.585  69.030  1.00  0.00    -0.245 A  
HETATM    7  N   UNL     1     -10.937   8.837  70.247  1.00  0.00    -0.239 N  
HETATM    8  O   UNL     1     -10.833   9.368  71.359  1.00  0.00    -0.336 OA 
HETATM    9  O   UNL     1     -11.246   9.434  69.203  1.00  0.00    -0.082 OA 
ENDROOT
BRANCH   6  10
HETATM   10  S   UNL     1     -10.581   7.000  67.328  1.00  0.00    -0.349 SA 
BRANCH  10  11
HETATM   11  C   UNL     1      -9.020   7.705  66.873  1.00  0.00    -0.138 A  
HETATM   12  N   UNL     1      -7.896   7.389  67.555  1.00  0.00    -0.111 NA 
HETATM   13  C   UNL     1      -6.775   8.108  67.329  1.00  0.00    -0.066 A  
HETATM   14  N   UNL     1      -6.599   9.104  66.462  1.00  0.00    -0.067 NA 
HETATM   15  C   UNL     1      -7.723   9.420  65.799  1.00  0.00    -0.099 A  
HETATM   16  C   UNL     1      -8.935   8.778  65.997  1.00  0.00    -0.192 A  
HETATM   17  N   UNL     1      -9.816   9.498  65.227  1.00  0.00    -0.441 NA 
HETATM   18  H   UNL     1     -10.823   9.349  65.167  1.00  0.00     0.000 HD 
HETATM   19  C   UNL     1      -9.098  10.453  64.552  1.00  0.00    -0.229 A  
HETATM   20  N   UNL     1      -7.829  10.434  64.890  1.00  0.00    -0.133 NA 
ENDBRANCH  10  11
ENDBRANCH   6  10
TORSDOF 2
ENDMDL
MODEL      289
REMARK 921   NORMALIZED FREE ENERGY PREDICTED BY IDOCK:   -3.35 KCAL/MOL
REMARK 922        TOTAL FREE ENERGY PREDICTED BY IDOCK:   -4.06 KCAL/MOL
REMARK 923 INTER-LIGAND FREE ENERGY PREDICTED BY IDOCK:   -3.64 KCAL/MOL
REMARK 924 INTRA-LIGAND FREE ENERGY PREDICTED BY IDOCK:   -0.42 KCAL/MOL
REMARK 927      BINDING AFFINITY PREDICTED BY RF-SCORE:    0.00 PKD
ROOT
HETATM    1  C   UNL     1      -8.403  11.485  67.159  1.00  0.00    -0.160 C  
HETATM    2  N   UNL     1      -9.125  12.449  66.363  1.00  0.00    -0.191 NA 
HETATM    3  C   UNL     1      -9.443  12.178  65.052  1.00  0.00     0.107 A  
HETATM    4  N   UNL     1     -10.169  13.126  64.519  1.00  0.00    -0.351 NA 
HETATM    5  C   UNL     1     -10.347  14.049  65.533  1.00  0.00    -0.339 A  
HETATM    6  C   UNL     1      -9.682  13.665  66.703  1.00  0.00    -0.284 A  
HETATM    7  N   UNL     1     -11.217  15.182  65.277  1.00  0.00    -0.361 N  
HETATM    8  O   UNL     1     -11.811  15.217  64.193  1.00  0.00    -0.406 OA 
HETATM    9  O   UNL     1     -11.314  16.044  66.166  1.00  0.00     0.054 OA 
ENDROOT
BRANCH   6  10
HETATM   10  S   UNL     1      -9.759  14.354  68.312  1.00  0.00    -0.226 SA 
BRANCH  10  11
HETATM   11  C   UNL     1      -8.367  15.422  68.564  1.00  0.00    -0.151 A  
HETATM   12  N   UNL     1      -8.120  16.444  67.715  1.00  0.00    -0.155 NA 
HETATM   13  C   UNL     1      -6.939  17.093  67.805  1.00  0.00    -0.149 A  
HETATM   14  N   UNL     1      -5.952  16.887  68.677  1.00  0.00    -0.142 NA 
HETATM   15  C   UNL     1      -6.200  15.862  69.507  1.00  0.00    -0.163 A  
HETATM   16  C   UNL     1      -7.358  15.101  69.461  1.00  0.00    -0.210 A  
HETATM   17  N   UNL     1      -7.132  14.104  70.379  1.00  0.00    -0.220 NA 
HETATM   18  H   UNL     1      -7.750  13.318  70.578  1.00  0.00     0.000 HD 
HETATM   19  C   UNL     1      -5.924  14.357  70.981  1.00  0.00    -0.159 A  
HETATM   20  N   UNL     1      -5.334  15.410  70.463  1.00  0.00    -0.136 NA 
ENDBRANCH  10  11
ENDBRANCH   6  10
TORSDOF 2
ENDMDL
MODEL      290
REMARK 921   NORMALIZED FREE ENERGY PREDICTED BY IDOCK:   -3.35 KCAL/MOL
REMARK 922        TOTAL FREE ENERGY PREDICTED BY IDOCK:   -4.06 KCAL/MOL
REMARK 923 INTER-LIGAND FREE ENERGY PREDICTED BY IDOCK:   -3.69 KCAL/MOL
REMARK 924 INTRA-LIGAND FREE ENERGY PREDICTED BY IDOCK:   -0.37 KCAL/MOL
REMARK 927      BINDING AFFINITY PREDICTED BY RF-SCORE:    0.00 PKD
ROOT
HETATM    1  C   UNL     1      -7.809   9.222  70.701  1.00  0.00    -0.158 C  
HETATM    2  N   UNL     1      -7.571   8.669  69.391  1.00  0.00    -0.090 NA 
HETATM    3  C   UNL     1      -6.294   8.363  68.979  1.00  0.00    -0.044 A  
HETATM    4  N   UNL     1      -6.283   7.793  67.803  1.00  0.00    -0.048 NA 
HETATM    5  C   UNL     1      -7.613   7.707  67.437  1.00  0.00    -0.109 A  
HETATM    6  C   UNL     1      -8.452   8.272  68.404  1.00  0.00    -0.129 A  
HETATM    7  N   UNL     1      -7.938   7.010  66.205  1.00  0.00    -0.110 N  
HETATM    8  O   UNL     1      -7.012   6.465  65.593  1.00  0.00    -0.054 OA 
HETATM    9  O   UNL     1      -9.127   7.001  65.847  1.00  0.00    -0.119 OA 
ENDROOT
BRANCH   6  10
HETATM   10  S   UNL     1     -10.199   8.233  68.532  1.00  0.00    -0.203 SA 
BRANCH  10  11
HETATM   11  C   UNL     1     -10.816   9.887  68.692  1.00  0.00    -0.209 A  
HETATM   12  N   UNL     1     -10.352  10.875  67.895  1.00  0.00    -0.180 NA 
HETATM   13  C   UNL     1     -10.675  12.154  68.191  1.00  0.00    -0.211 A  
HETATM   14  N   UNL     1     -11.453  12.598  69.177  1.00  0.00    -0.288 NA 
HETATM   15  C   UNL     1     -11.898  11.611  69.971  1.00  0.00    -0.355 A  
HETATM   16  C   UNL     1     -11.581  10.275  69.783  1.00  0.00    -0.227 A  
HETATM   17  N   UNL     1     -12.128   9.652  70.879  1.00  0.00    -0.327 NA 
HETATM   18  H   UNL     1     -12.046   8.662  71.111  1.00  0.00     0.000 HD 
HETATM   19  C   UNL     1     -12.806  10.599  71.604  1.00  0.00    -0.465 A  
HETATM   20  N   UNL     1     -12.672  11.797  71.081  1.00  0.00    -0.358 NA 
ENDBRANCH  10  11
ENDBRANCH   6  10
TORSDOF 2
ENDMDL
MODEL      291
REMARK 921   NORMALIZED FREE ENERGY PREDICTED BY IDOCK:   -3.33 KCAL/MOL
REMARK 922        TOTAL FREE ENERGY PREDICTED BY IDOCK:   -4.04 KCAL/MOL
REMARK 923 INTER-LIGAND FREE ENERGY PREDICTED BY IDOCK:   -3.57 KCAL/MOL
REMARK 924 INTRA-LIGAND FREE ENERGY PREDICTED BY IDOCK:   -0.47 KCAL/MOL
REMARK 927      BINDING AFFINITY PREDICTED BY RF-SCORE:    0.00 PKD
ROOT
HETATM    1  C   UNL     1     -11.849  11.477  67.647  1.00  0.00    -0.118 C  
HETATM    2  N   UNL     1     -11.183  12.733  67.890  1.00  0.00    -0.257 NA 
HETATM    3  C   UNL     1     -11.806  13.730  68.604  1.00  0.00    -0.374 A  
HETATM    4  N   UNL     1     -11.020  14.757  68.797  1.00  0.00    -0.248 NA 
HETATM    5  C   UNL     1      -9.825  14.408  68.197  1.00  0.00    -0.223 A  
HETATM    6  C   UNL     1      -9.900  13.148  67.593  1.00  0.00    -0.219 A  
HETATM    7  N   UNL     1      -8.701  15.315  68.339  1.00  0.00    -0.164 N  
HETATM    8  O   UNL     1      -8.854  16.312  69.055  1.00  0.00    -0.238 OA 
HETATM    9  O   UNL     1      -7.653  15.030  67.736  1.00  0.00    -0.130 OA 
ENDROOT
BRANCH   6  10
HETATM   10  S   UNL     1      -8.629  12.162  66.898  1.00  0.00    -0.167 SA 
BRANCH  10  11
HETATM   11  C   UNL     1      -7.645  11.464  68.198  1.00  0.00    -0.114 A  
HETATM   12  N   UNL     1      -6.296  11.485  68.127  1.00  0.00    -0.045 NA 
HETATM   13  C   UNL     1      -5.587  10.752  69.014  1.00  0.00    -0.040 A  
HETATM   14  N   UNL     1      -6.048  10.009  70.019  1.00  0.00    -0.050 NA 
HETATM   15  C   UNL     1      -7.388   9.982  70.073  1.00  0.00    -0.167 A  
HETATM   16  C   UNL     1      -8.205  10.657  69.179  1.00  0.00    -0.139 A  
HETATM   17  N   UNL     1      -9.471  10.250  69.520  1.00  0.00    -0.316 NA 
HETATM   18  H   UNL     1     -10.334  10.500  69.037  1.00  0.00     0.000 HD 
HETATM   19  C   UNL     1      -9.368   9.446  70.627  1.00  0.00    -0.252 A  
HETATM   20  N   UNL     1      -8.115   9.259  70.975  1.00  0.00    -0.307 NA 
ENDBRANCH  10  11
ENDBRANCH   6  10
TORSDOF 2
ENDMDL
MODEL      292
REMARK 921   NORMALIZED FREE ENERGY PREDICTED BY IDOCK:   -3.33 KCAL/MOL
REMARK 922        TOTAL FREE ENERGY PREDICTED BY IDOCK:   -4.04 KCAL/MOL
REMARK 923 INTER-LIGAND FREE ENERGY PREDICTED BY IDOCK:   -3.50 KCAL/MOL
REMARK 924 INTRA-LIGAND FREE ENERGY PREDICTED BY IDOCK:   -0.54 KCAL/MOL
REMARK 927      BINDING AFFINITY PREDICTED BY RF-SCORE:    0.00 PKD
ROOT
HETATM    1  C   UNL     1     -11.926   8.278  72.346  1.00  0.00    -0.384 C  
HETATM    2  N   UNL     1     -11.134   7.080  72.215  1.00  0.00    -0.244 NA 
HETATM    3  C   UNL     1     -10.639   6.441  73.329  1.00  0.00    -0.268 A  
HETATM    4  N   UNL     1     -10.022   5.330  73.022  1.00  0.00    -0.161 NA 
HETATM    5  C   UNL     1     -10.134   5.230  71.648  1.00  0.00    -0.199 A  
HETATM    6  C   UNL     1     -10.809   6.329  71.104  1.00  0.00    -0.266 A  
HETATM    7  N   UNL     1      -9.633   4.027  71.009  1.00  0.00    -0.167 N  
HETATM    8  O   UNL     1      -9.205   3.125  71.739  1.00  0.00    -0.098 OA 
HETATM    9  O   UNL     1      -9.671   3.976  69.769  1.00  0.00    -0.204 OA 
ENDROOT
BRANCH   6  10
HETATM   10  S   UNL     1     -11.396   6.587  69.473  1.00  0.00    -0.311 SA 
BRANCH  10  11
HETATM   11  C   UNL     1     -10.265   7.634  68.597  1.00  0.00    -0.199 A  
HETATM   12  N   UNL     1     -10.718   8.541  67.703  1.00  0.00    -0.182 NA 
HETATM   13  C   UNL     1      -9.828   9.158  66.896  1.00  0.00    -0.217 A  
HETATM   14  N   UNL     1      -8.502   9.025  66.881  1.00  0.00    -0.118 NA 
HETATM   15  C   UNL     1      -8.062   8.113  67.762  1.00  0.00    -0.127 A  
HETATM   16  C   UNL     1      -8.899   7.389  68.597  1.00  0.00    -0.126 A  
HETATM   17  N   UNL     1      -8.054   6.500  69.216  1.00  0.00    -0.111 NA 
HETATM   18  H   UNL     1      -8.328   5.762  69.865  1.00  0.00     0.000 HD 
HETATM   19  C   UNL     1      -6.775   6.783  68.806  1.00  0.00    -0.056 A  
HETATM   20  N   UNL     1      -6.754   7.749  67.916  1.00  0.00    -0.065 NA 
ENDBRANCH  10  11
ENDBRANCH   6  10
TORSDOF 2
ENDMDL
MODEL      293
REMARK 921   NORMALIZED FREE ENERGY PREDICTED BY IDOCK:   -3.31 KCAL/MOL
REMARK 922        TOTAL FREE ENERGY PREDICTED BY IDOCK:   -4.01 KCAL/MOL
REMARK 923 INTER-LIGAND FREE ENERGY PREDICTED BY IDOCK:   -3.59 KCAL/MOL
REMARK 924 INTRA-LIGAND FREE ENERGY PREDICTED BY IDOCK:   -0.42 KCAL/MOL
REMARK 927      BINDING AFFINITY PREDICTED BY RF-SCORE:    0.00 PKD
ROOT
HETATM    1  C   UNL     1      -7.639   7.622  64.605  1.00  0.00    -0.111 C  
HETATM    2  N   UNL     1      -8.412   8.765  64.182  1.00  0.00    -0.147 NA 
HETATM    3  C   UNL     1      -8.537   9.072  62.847  1.00  0.00    -0.177 A  
HETATM    4  N   UNL     1      -9.340  10.085  62.652  1.00  0.00    -0.291 NA 
HETATM    5  C   UNL     1      -9.772  10.444  63.914  1.00  0.00    -0.305 A  
HETATM    6  C   UNL     1      -9.187   9.648  64.906  1.00  0.00    -0.246 A  
HETATM    7  N   UNL     1     -10.777  11.487  64.020  1.00  0.00    -0.356 N  
HETATM    8  O   UNL     1     -11.246  11.940  62.969  1.00  0.00    -0.203 OA 
HETATM    9  O   UNL     1     -11.106  11.855  65.160  1.00  0.00    -0.305 OA 
ENDROOT
BRANCH   6  10
HETATM   10  S   UNL     1      -9.549   9.546  66.617  1.00  0.00    -0.204 SA 
BRANCH  10  11
HETATM   11  C   UNL     1      -8.443  10.598  67.518  1.00  0.00    -0.121 A  
HETATM   12  N   UNL     1      -7.871  11.668  66.922  1.00  0.00    -0.162 NA 
HETATM   13  C   UNL     1      -6.870  12.310  67.563  1.00  0.00    -0.135 A  
HETATM   14  N   UNL     1      -6.369  12.053  68.770  1.00  0.00    -0.066 NA 
HETATM   15  C   UNL     1      -6.933  10.981  69.349  1.00  0.00    -0.126 A  
HETATM   16  C   UNL     1      -7.929  10.225  68.753  1.00  0.00    -0.113 A  
HETATM   17  N   UNL     1      -8.108   9.176  69.622  1.00  0.00    -0.099 NA 
HETATM   18  H   UNL     1      -8.729   8.379  69.483  1.00  0.00     0.000 HD 
HETATM   19  C   UNL     1      -7.301   9.393  70.710  1.00  0.00    -0.111 A  
HETATM   20  N   UNL     1      -6.570  10.474  70.564  1.00  0.00    -0.314 NA 
ENDBRANCH  10  11
ENDBRANCH   6  10
TORSDOF 2
ENDMDL
MODEL      294
REMARK 921   NORMALIZED FREE ENERGY PREDICTED BY IDOCK:   -3.30 KCAL/MOL
REMARK 922        TOTAL FREE ENERGY PREDICTED BY IDOCK:   -4.01 KCAL/MOL
REMARK 923 INTER-LIGAND FREE ENERGY PREDICTED BY IDOCK:   -3.53 KCAL/MOL
REMARK 924 INTRA-LIGAND FREE ENERGY PREDICTED BY IDOCK:   -0.48 KCAL/MOL
REMARK 927      BINDING AFFINITY PREDICTED BY RF-SCORE:    0.00 PKD
ROOT
HETATM    1  C   UNL     1      -9.691   5.157  67.507  1.00  0.00    -0.151 C  
HETATM    2  N   UNL     1      -9.748   6.575  67.764  1.00  0.00    -0.121 NA 
HETATM    3  C   UNL     1     -10.563   7.391  67.014  1.00  0.00    -0.344 A  
HETATM    4  N   UNL     1     -10.550   8.626  67.445  1.00  0.00    -0.267 NA 
HETATM    5  C   UNL     1      -9.700   8.611  68.536  1.00  0.00    -0.163 A  
HETATM    6  C   UNL     1      -9.158   7.339  68.751  1.00  0.00    -0.127 A  
HETATM    7  N   UNL     1      -9.562   9.832  69.308  1.00  0.00    -0.185 N  
HETATM    8  O   UNL     1     -10.272  10.795  68.993  1.00  0.00    -0.197 OA 
HETATM    9  O   UNL     1      -8.742   9.833  70.241  1.00  0.00    -0.209 OA 
ENDROOT
BRANCH   6  10
HETATM   10  S   UNL     1      -8.213   6.738  70.098  1.00  0.00    -0.135 SA 
BRANCH  10  11
HETATM   11  C   UNL     1      -9.301   6.230  71.402  1.00  0.00    -0.152 A  
HETATM   12  N   UNL     1      -9.708   7.112  72.342  1.00  0.00    -0.149 NA 
HETATM   13  C   UNL     1     -10.347   6.646  73.437  1.00  0.00    -0.275 A  
HETATM   14  N   UNL     1     -10.684   5.388  73.719  1.00  0.00    -0.286 NA 
HETATM   15  C   UNL     1     -10.264   4.517  72.787  1.00  0.00    -0.179 A  
HETATM   16  C   UNL     1      -9.556   4.889  71.655  1.00  0.00    -0.159 A  
HETATM   17  N   UNL     1      -9.225   3.692  71.068  1.00  0.00    -0.113 NA 
HETATM   18  H   UNL     1      -8.648   3.569  70.236  1.00  0.00     0.000 HD 
HETATM   19  C   UNL     1      -9.809   2.691  71.802  1.00  0.00    -0.153 A  
HETATM   20  N   UNL     1     -10.435   3.164  72.856  1.00  0.00    -0.162 NA 
ENDBRANCH  10  11
ENDBRANCH   6  10
TORSDOF 2
ENDMDL
MODEL      295
REMARK 921   NORMALIZED FREE ENERGY PREDICTED BY IDOCK:   -3.30 KCAL/MOL
REMARK 922        TOTAL FREE ENERGY PREDICTED BY IDOCK:   -4.01 KCAL/MOL
REMARK 923 INTER-LIGAND FREE ENERGY PREDICTED BY IDOCK:   -3.80 KCAL/MOL
REMARK 924 INTRA-LIGAND FREE ENERGY PREDICTED BY IDOCK:   -0.21 KCAL/MOL
REMARK 927      BINDING AFFINITY PREDICTED BY RF-SCORE:    0.00 PKD
ROOT
HETATM    1  C   UNL     1     -10.006   7.344  70.898  1.00  0.00    -0.184 C  
HETATM    2  N   UNL     1      -9.213   8.508  70.585  1.00  0.00    -0.155 NA 
HETATM    3  C   UNL     1      -7.954   8.662  71.118  1.00  0.00    -0.138 A  
HETATM    4  N   UNL     1      -7.356   9.729  70.656  1.00  0.00    -0.289 NA 
HETATM    5  C   UNL     1      -8.258  10.287  69.770  1.00  0.00    -0.094 A  
HETATM    6  C   UNL     1      -9.450   9.556  69.719  1.00  0.00    -0.210 A  
HETATM    7  N   UNL     1      -7.833  11.443  69.002  1.00  0.00    -0.090 N  
HETATM    8  O   UNL     1      -6.660  11.816  69.127  1.00  0.00    -0.086 OA 
HETATM    9  O   UNL     1      -8.672  11.982  68.262  1.00  0.00    -0.174 OA 
ENDROOT
BRANCH   6  10
HETATM   10  S   UNL     1     -10.808   9.705  68.622  1.00  0.00    -0.120 SA 
BRANCH  10  11
HETATM   11  C   UNL     1     -10.224   9.655  66.949  1.00  0.00    -0.237 A  
HETATM   12  N   UNL     1      -9.278   8.765  66.575  1.00  0.00    -0.166 NA 
HETATM   13  C   UNL     1      -8.699   8.903  65.363  1.00  0.00    -0.191 A  
HETATM   14  N   UNL     1      -8.967   9.808  64.422  1.00  0.00    -0.230 NA 
HETATM   15  C   UNL     1      -9.897  10.696  64.807  1.00  0.00    -0.310 A  
HETATM   16  C   UNL     1     -10.512  10.672  66.049  1.00  0.00    -0.183 A  
HETATM   17  N   UNL     1     -11.275  11.814  66.058  1.00  0.00    -0.318 NA 
HETATM   18  H   UNL     1     -11.830  12.160  66.841  1.00  0.00     0.000 HD 
HETATM   19  C   UNL     1     -11.158  12.405  64.825  1.00  0.00    -0.304 A  
HETATM   20  N   UNL     1     -10.320  11.754  64.052  1.00  0.00    -0.321 NA 
ENDBRANCH  10  11
ENDBRANCH   6  10
TORSDOF 2
ENDMDL
MODEL      296
REMARK 921   NORMALIZED FREE ENERGY PREDICTED BY IDOCK:   -3.28 KCAL/MOL
REMARK 922        TOTAL FREE ENERGY PREDICTED BY IDOCK:   -3.99 KCAL/MOL
REMARK 923 INTER-LIGAND FREE ENERGY PREDICTED BY IDOCK:   -3.25 KCAL/MOL
REMARK 924 INTRA-LIGAND FREE ENERGY PREDICTED BY IDOCK:   -0.74 KCAL/MOL
REMARK 927      BINDING AFFINITY PREDICTED BY RF-SCORE:    0.00 PKD
ROOT
HETATM    1  C   UNL     1     -11.211   9.287  70.209  1.00  0.00    -0.231 C  
HETATM    2  N   UNL     1     -11.022  10.028  68.986  1.00  0.00    -0.225 NA 
HETATM    3  C   UNL     1     -11.017  11.405  68.994  1.00  0.00    -0.236 A  
HETATM    4  N   UNL     1     -10.747  11.900  67.815  1.00  0.00    -0.200 NA 
HETATM    5  C   UNL     1     -10.551  10.798  67.003  1.00  0.00    -0.260 A  
HETATM    6  C   UNL     1     -10.741   9.601  67.704  1.00  0.00    -0.262 A  
HETATM    7  N   UNL     1     -10.122  11.026  65.636  1.00  0.00    -0.245 N  
HETATM    8  O   UNL     1      -9.881  12.191  65.296  1.00  0.00    -0.249 OA 
HETATM    9  O   UNL     1     -10.019  10.036  64.893  1.00  0.00    -0.325 OA 
ENDROOT
BRANCH   6  10
HETATM   10  S   UNL     1     -10.412   7.952  67.212  1.00  0.00    -0.308 SA 
BRANCH  10  11
HETATM   11  C   UNL     1      -8.803   7.475  67.784  1.00  0.00    -0.132 A  
HETATM   12  N   UNL     1      -8.658   6.805  68.949  1.00  0.00    -0.130 NA 
HETATM   13  C   UNL     1      -7.417   6.657  69.463  1.00  0.00    -0.093 A  
HETATM   14  N   UNL     1      -6.258   7.060  68.942  1.00  0.00    -0.027 NA 
HETATM   15  C   UNL     1      -6.414   7.736  67.793  1.00  0.00    -0.052 A  
HETATM   16  C   UNL     1      -7.647   7.986  67.212  1.00  0.00    -0.097 A  
HETATM   17  N   UNL     1      -7.349   8.803  66.148  1.00  0.00    -0.085 NA 
HETATM   18  H   UNL     1      -8.021   9.238  65.517  1.00  0.00     0.000 HD 
HETATM   19  C   UNL     1      -5.983   8.927  66.087  1.00  0.00    -0.055 A  
HETATM   20  N   UNL     1      -5.394   8.299  67.079  1.00  0.00    -0.035 NA 
ENDBRANCH  10  11
ENDBRANCH   6  10
TORSDOF 2
ENDMDL
MODEL      297
REMARK 921   NORMALIZED FREE ENERGY PREDICTED BY IDOCK:   -3.28 KCAL/MOL
REMARK 922        TOTAL FREE ENERGY PREDICTED BY IDOCK:   -3.99 KCAL/MOL
REMARK 923 INTER-LIGAND FREE ENERGY PREDICTED BY IDOCK:   -3.62 KCAL/MOL
REMARK 924 INTRA-LIGAND FREE ENERGY PREDICTED BY IDOCK:   -0.37 KCAL/MOL
REMARK 927      BINDING AFFINITY PREDICTED BY RF-SCORE:    0.00 PKD
ROOT
HETATM    1  C   UNL     1      -7.078   6.621  64.578  1.00  0.00    -0.060 C  
HETATM    2  N   UNL     1      -7.745   7.876  64.332  1.00  0.00    -0.116 NA 
HETATM    3  C   UNL     1      -8.247   8.171  63.085  1.00  0.00    -0.083 A  
HETATM    4  N   UNL     1      -8.891   9.309  63.075  1.00  0.00    -0.204 NA 
HETATM    5  C   UNL     1      -8.822   9.769  64.376  1.00  0.00    -0.227 A  
HETATM    6  C   UNL     1      -8.086   8.901  65.191  1.00  0.00    -0.133 A  
HETATM    7  N   UNL     1      -9.550  10.979  64.712  1.00  0.00    -0.234 N  
HETATM    8  O   UNL     1     -10.255  11.487  63.831  1.00  0.00    -0.292 OA 
HETATM    9  O   UNL     1      -9.424  11.425  65.863  1.00  0.00    -0.216 OA 
ENDROOT
BRANCH   6  10
HETATM   10  S   UNL     1      -7.881   8.904  66.931  1.00  0.00    -0.102 SA 
BRANCH  10  11
HETATM   11  C   UNL     1      -9.077   7.823  67.668  1.00  0.00    -0.133 A  
HETATM   12  N   UNL     1      -9.682   6.862  66.934  1.00  0.00    -0.163 NA 
HETATM   13  C   UNL     1     -10.741   6.211  67.463  1.00  0.00    -0.313 A  
HETATM   14  N   UNL     1     -11.275   6.358  68.675  1.00  0.00    -0.314 NA 
HETATM   15  C   UNL     1     -10.677   7.322  69.391  1.00  0.00    -0.225 A  
HETATM   16  C   UNL     1      -9.618   8.082  68.920  1.00  0.00    -0.152 A  
HETATM   17  N   UNL     1      -9.417   9.014  69.910  1.00  0.00    -0.168 NA 
HETATM   18  H   UNL     1      -8.748   9.783  69.884  1.00  0.00     0.000 HD 
HETATM   19  C   UNL     1     -10.276   8.722  70.939  1.00  0.00    -0.226 A  
HETATM   20  N   UNL     1     -11.059   7.709  70.645  1.00  0.00    -0.254 NA 
ENDBRANCH  10  11
ENDBRANCH   6  10
TORSDOF 2
ENDMDL
MODEL      298
REMARK 921   NORMALIZED FREE ENERGY PREDICTED BY IDOCK:   -3.28 KCAL/MOL
REMARK 922        TOTAL FREE ENERGY PREDICTED BY IDOCK:   -3.98 KCAL/MOL
REMARK 923 INTER-LIGAND FREE ENERGY PREDICTED BY IDOCK:   -3.48 KCAL/MOL
REMARK 924 INTRA-LIGAND FREE ENERGY PREDICTED BY IDOCK:   -0.50 KCAL/MOL
REMARK 927      BINDING AFFINITY PREDICTED BY RF-SCORE:    0.00 PKD
ROOT
HETATM    1  C   UNL     1     -10.076   8.770  67.161  1.00  0.00    -0.252 C  
HETATM    2  N   UNL     1      -9.089   9.638  67.754  1.00  0.00    -0.125 NA 
HETATM    3  C   UNL     1      -9.048  10.976  67.434  1.00  0.00    -0.141 A  
HETATM    4  N   UNL     1      -8.148  11.618  68.131  1.00  0.00    -0.140 NA 
HETATM    5  C   UNL     1      -7.587  10.661  68.956  1.00  0.00    -0.122 A  
HETATM    6  C   UNL     1      -8.140   9.396  68.727  1.00  0.00    -0.103 A  
HETATM    7  N   UNL     1      -6.615  11.095  69.942  1.00  0.00    -0.143 N  
HETATM    8  O   UNL     1      -6.400  12.310  70.041  1.00  0.00    -0.119 OA 
HETATM    9  O   UNL     1      -6.062  10.221  70.629  1.00  0.00    -0.099 OA 
ENDROOT
BRANCH   6  10
HETATM   10  S   UNL     1      -7.943   7.908  69.632  1.00  0.00    -0.120 SA 
BRANCH  10  11
HETATM   11  C   UNL     1      -8.960   7.960  71.083  1.00  0.00    -0.138 A  
HETATM   12  N   UNL     1      -8.414   8.192  72.298  1.00  0.00    -0.154 NA 
HETATM   13  C   UNL     1      -9.174   8.002  73.399  1.00  0.00    -0.263 A  
HETATM   14  N   UNL     1     -10.456   7.643  73.460  1.00  0.00    -0.310 NA 
HETATM   15  C   UNL     1     -10.985   7.402  72.251  1.00  0.00    -0.254 A  
HETATM   16  C   UNL     1     -10.275   7.516  71.066  1.00  0.00    -0.190 A  
HETATM   17  N   UNL     1     -11.150   7.057  70.113  1.00  0.00    -0.275 NA 
HETATM   18  H   UNL     1     -10.951   6.941  69.119  1.00  0.00     0.000 HD 
HETATM   19  C   UNL     1     -12.341   6.783  70.737  1.00  0.00    -0.232 A  
HETATM   20  N   UNL     1     -12.264   6.972  72.034  1.00  0.00    -0.303 NA 
ENDBRANCH  10  11
ENDBRANCH   6  10
TORSDOF 2
ENDMDL
MODEL      299
REMARK 921   NORMALIZED FREE ENERGY PREDICTED BY IDOCK:   -3.26 KCAL/MOL
REMARK 922        TOTAL FREE ENERGY PREDICTED BY IDOCK:   -3.96 KCAL/MOL
REMARK 923 INTER-LIGAND FREE ENERGY PREDICTED BY IDOCK:   -3.36 KCAL/MOL
REMARK 924 INTRA-LIGAND FREE ENERGY PREDICTED BY IDOCK:   -0.60 KCAL/MOL
REMARK 927      BINDING AFFINITY PREDICTED BY RF-SCORE:    0.00 PKD
ROOT
HETATM    1  C   UNL     1      -9.922   5.011  67.149  1.00  0.00    -0.195 C  
HETATM    2  N   UNL     1      -9.767   6.442  67.247  1.00  0.00    -0.125 NA 
HETATM    3  C   UNL     1     -10.531   7.285  66.473  1.00  0.00     0.027 A  
HETATM    4  N   UNL     1     -10.314   8.542  66.760  1.00  0.00    -0.298 NA 
HETATM    5  C   UNL     1      -9.379   8.519  67.778  1.00  0.00    -0.137 A  
HETATM    6  C   UNL     1      -8.993   7.211  68.094  1.00  0.00    -0.128 A  
HETATM    7  N   UNL     1      -9.011   9.780  68.394  1.00  0.00    -0.123 N  
HETATM    8  O   UNL     1      -9.612  10.797  68.026  1.00  0.00    -0.157 OA 
HETATM    9  O   UNL     1      -8.118   9.759  69.257  1.00  0.00    -0.096 OA 
ENDROOT
BRANCH   6  10
HETATM   10  S   UNL     1      -8.019   6.622  69.425  1.00  0.00    -0.116 SA 
BRANCH  10  11
HETATM   11  C   UNL     1      -9.077   6.136  70.762  1.00  0.00    -0.150 A  
HETATM   12  N   UNL     1      -9.172   4.838  71.128  1.00  0.00    -0.136 NA 
HETATM   13  C   UNL     1     -10.147   4.476  71.991  1.00  0.00    -0.196 A  
HETATM   14  N   UNL     1     -11.044   5.257  72.592  1.00  0.00    -0.263 NA 
HETATM   15  C   UNL     1     -10.951   6.541  72.212  1.00  0.00    -0.249 A  
HETATM   16  C   UNL     1     -10.021   7.004  71.294  1.00  0.00    -0.189 A  
HETATM   17  N   UNL     1     -10.368   8.320  71.110  1.00  0.00    -0.198 NA 
HETATM   18  H   UNL     1      -9.935   8.970  70.454  1.00  0.00     0.000 HD 
HETATM   19  C   UNL     1     -11.401   8.603  71.969  1.00  0.00    -0.362 A  
HETATM   20  N   UNL     1     -11.780   7.539  72.639  1.00  0.00    -0.271 NA 
ENDBRANCH  10  11
ENDBRANCH   6  10
TORSDOF 2
ENDMDL
MODEL      300
REMARK 921   NORMALIZED FREE ENERGY PREDICTED BY IDOCK:   -3.26 KCAL/MOL
REMARK 922        TOTAL FREE ENERGY PREDICTED BY IDOCK:   -3.95 KCAL/MOL
REMARK 923 INTER-LIGAND FREE ENERGY PREDICTED BY IDOCK:   -3.44 KCAL/MOL
REMARK 924 INTRA-LIGAND FREE ENERGY PREDICTED BY IDOCK:   -0.51 KCAL/MOL
REMARK 927      BINDING AFFINITY PREDICTED BY RF-SCORE:    0.00 PKD
ROOT
HETATM    1  C   UNL     1     -10.536   8.828  69.443  1.00  0.00    -0.222 C  
HETATM    2  N   UNL     1     -10.863   7.887  70.486  1.00  0.00    -0.238 NA 
HETATM    3  C   UNL     1     -12.131   7.845  71.020  1.00  0.00    -0.230 A  
HETATM    4  N   UNL     1     -12.264   6.876  71.888  1.00  0.00    -0.334 NA 
HETATM    5  C   UNL     1     -11.033   6.246  71.909  1.00  0.00    -0.256 A  
HETATM    6  C   UNL     1     -10.119   6.873  71.055  1.00  0.00    -0.193 A  
HETATM    7  N   UNL     1     -10.896   5.044  72.710  1.00  0.00    -0.233 N  
HETATM    8  O   UNL     1     -11.911   4.606  73.266  1.00  0.00    -0.249 OA 
HETATM    9  O   UNL     1      -9.770   4.526  72.782  1.00  0.00    -0.135 OA 
ENDROOT
BRANCH   6  10
HETATM   10  S   UNL     1      -8.520   6.360  70.557  1.00  0.00    -0.139 SA 
BRANCH  10  11
HETATM   11  C   UNL     1      -8.658   4.955  69.484  1.00  0.00    -0.086 A  
HETATM   12  N   UNL     1      -7.875   3.868  69.668  1.00  0.00    -0.052 NA 
HETATM   13  C   UNL     1      -7.846   2.918  68.708  1.00  0.00    -0.053 A  
HETATM   14  N   UNL     1      -8.541   2.877  67.572  1.00  0.00    -0.093 NA 
HETATM   15  C   UNL     1      -9.304   3.966  67.391  1.00  0.00    -0.191 A  
HETATM   16  C   UNL     1      -9.363   5.019  68.290  1.00  0.00    -0.126 A  
HETATM   17  N   UNL     1     -10.145   5.951  67.653  1.00  0.00    -0.148 NA 
HETATM   18  H   UNL     1     -10.362   6.888  67.993  1.00  0.00     0.000 HD 
HETATM   19  C   UNL     1     -10.582   5.396  66.476  1.00  0.00    -0.289 A  
HETATM   20  N   UNL     1     -10.077   4.198  66.288  1.00  0.00    -0.172 NA 
ENDBRANCH  10  11
ENDBRANCH   6  10
TORSDOF 2
ENDMDL
MODEL      301
REMARK 921   NORMALIZED FREE ENERGY PREDICTED BY IDOCK:   -3.20 KCAL/MOL
REMARK 922        TOTAL FREE ENERGY PREDICTED BY IDOCK:   -3.90 KCAL/MOL
REMARK 923 INTER-LIGAND FREE ENERGY PREDICTED BY IDOCK:   -3.50 KCAL/MOL
REMARK 924 INTRA-LIGAND FREE ENERGY PREDICTED BY IDOCK:   -0.39 KCAL/MOL
REMARK 927      BINDING AFFINITY PREDICTED BY RF-SCORE:    0.00 PKD
ROOT
HETATM    1  C   UNL     1      -8.139   9.881  68.783  1.00  0.00    -0.102 C  
HETATM    2  N   UNL     1      -8.986   8.839  68.258  1.00  0.00    -0.141 NA 
HETATM    3  C   UNL     1      -9.841   9.091  67.209  1.00  0.00    -0.196 A  
HETATM    4  N   UNL     1     -10.462   8.011  66.813  1.00  0.00    -0.313 NA 
HETATM    5  C   UNL     1      -9.979   7.005  67.629  1.00  0.00    -0.154 A  
HETATM    6  C   UNL     1      -9.065   7.496  68.568  1.00  0.00    -0.134 A  
HETATM    7  N   UNL     1     -10.406   5.644  67.358  1.00  0.00    -0.209 N  
HETATM    8  O   UNL     1     -11.117   5.452  66.364  1.00  0.00    -0.162 OA 
HETATM    9  O   UNL     1     -10.027   4.756  68.139  1.00  0.00    -0.145 OA 
ENDROOT
BRANCH   6  10
HETATM   10  S   UNL     1      -8.018   6.627  69.672  1.00  0.00    -0.126 SA 
BRANCH  10  11
HETATM   11  C   UNL     1      -8.946   6.134  71.100  1.00  0.00    -0.143 A  
HETATM   12  N   UNL     1      -8.896   4.860  71.548  1.00  0.00    -0.132 NA 
HETATM   13  C   UNL     1      -9.780   4.467  72.491  1.00  0.00    -0.151 A  
HETATM   14  N   UNL     1     -10.710   5.201  73.101  1.00  0.00    -0.240 NA 
HETATM   15  C   UNL     1     -10.762   6.461  72.641  1.00  0.00    -0.234 A  
HETATM   16  C   UNL     1      -9.935   6.945  71.640  1.00  0.00    -0.171 A  
HETATM   17  N   UNL     1     -10.415   8.210  71.401  1.00  0.00    -0.207 NA 
HETATM   18  H   UNL     1     -10.085   8.853  70.682  1.00  0.00     0.000 HD 
HETATM   19  C   UNL     1     -11.418   8.453  72.306  1.00  0.00    -0.384 A  
HETATM   20  N   UNL     1     -11.656   7.405  73.061  1.00  0.00    -0.161 NA 
ENDBRANCH  10  11
ENDBRANCH   6  10
TORSDOF 2
ENDMDL
MODEL      302
REMARK 921   NORMALIZED FREE ENERGY PREDICTED BY IDOCK:   -3.18 KCAL/MOL
REMARK 922        TOTAL FREE ENERGY PREDICTED BY IDOCK:   -3.87 KCAL/MOL
REMARK 923 INTER-LIGAND FREE ENERGY PREDICTED BY IDOCK:   -3.25 KCAL/MOL
REMARK 924 INTRA-LIGAND FREE ENERGY PREDICTED BY IDOCK:   -0.62 KCAL/MOL
REMARK 927      BINDING AFFINITY PREDICTED BY RF-SCORE:    0.00 PKD
ROOT
HETATM    1  C   UNL     1      -8.103   5.898  67.669  1.00  0.00    -0.102 C  
HETATM    2  N   UNL     1      -7.898   6.605  68.909  1.00  0.00    -0.109 NA 
HETATM    3  C   UNL     1      -6.627   6.821  69.391  1.00  0.00    -0.048 A  
HETATM    4  N   UNL     1      -6.634   7.550  70.476  1.00  0.00    -0.042 NA 
HETATM    5  C   UNL     1      -7.967   7.837  70.704  1.00  0.00    -0.098 A  
HETATM    6  C   UNL     1      -8.794   7.236  69.748  1.00  0.00    -0.142 A  
HETATM    7  N   UNL     1      -8.295   8.736  71.795  1.00  0.00    -0.137 N  
HETATM    8  O   UNL     1      -7.357   9.257  72.411  1.00  0.00    -0.166 OA 
HETATM    9  O   UNL     1      -9.497   8.930  72.039  1.00  0.00    -0.295 OA 
ENDROOT
BRANCH   6  10
HETATM   10  S   UNL     1     -10.508   7.451  69.457  1.00  0.00    -0.234 SA 
BRANCH  10  11
HETATM   11  C   UNL     1     -10.798   9.077  68.811  1.00  0.00    -0.030 A  
HETATM   12  N   UNL     1     -10.110   9.524  67.737  1.00  0.00    -0.185 NA 
HETATM   13  C   UNL     1     -10.190  10.833  67.413  1.00  0.00    -0.204 A  
HETATM   14  N   UNL     1     -10.915  11.783  68.003  1.00  0.00    -0.212 NA 
HETATM   15  C   UNL     1     -11.583  11.333  69.077  1.00  0.00    -0.319 A  
HETATM   16  C   UNL     1     -11.525  10.022  69.522  1.00  0.00    -0.120 A  
HETATM   17  N   UNL     1     -12.237  10.042  70.696  1.00  0.00    -0.370 NA 
HETATM   18  H   UNL     1     -12.362   9.260  71.338  1.00  0.00     0.000 HD 
HETATM   19  C   UNL     1     -12.752  11.305  70.851  1.00  0.00    -0.318 A  
HETATM   20  N   UNL     1     -12.360  12.110  69.889  1.00  0.00    -0.126 NA 
ENDBRANCH  10  11
ENDBRANCH   6  10
TORSDOF 2
ENDMDL
MODEL      303
REMARK 921   NORMALIZED FREE ENERGY PREDICTED BY IDOCK:   -3.17 KCAL/MOL
REMARK 922        TOTAL FREE ENERGY PREDICTED BY IDOCK:   -3.86 KCAL/MOL
REMARK 923 INTER-LIGAND FREE ENERGY PREDICTED BY IDOCK:   -4.22 KCAL/MOL
REMARK 924 INTRA-LIGAND FREE ENERGY PREDICTED BY IDOCK:    0.36 KCAL/MOL
REMARK 927      BINDING AFFINITY PREDICTED BY RF-SCORE:    0.00 PKD
ROOT
HETATM    1  C   UNL     1      -9.464   8.151  68.845  1.00  0.00    -0.151 C  
HETATM    2  N   UNL     1     -10.495   8.788  69.627  1.00  0.00    -0.217 NA 
HETATM    3  C   UNL     1     -11.122   8.110  70.647  1.00  0.00    -0.254 A  
HETATM    4  N   UNL     1     -11.962   8.872  71.296  1.00  0.00    -0.297 NA 
HETATM    5  C   UNL     1     -11.868  10.108  70.684  1.00  0.00    -0.342 A  
HETATM    6  C   UNL     1     -10.969  10.085  69.611  1.00  0.00    -0.264 A  
HETATM    7  N   UNL     1     -12.613  11.213  71.259  1.00  0.00    -0.401 N  
HETATM    8  O   UNL     1     -13.230  11.004  72.311  1.00  0.00    -0.405 OA 
HETATM    9  O   UNL     1     -12.581  12.301  70.661  1.00  0.00    -0.257 OA 
ENDROOT
BRANCH   6  10
HETATM   10  S   UNL     1     -10.333  11.407  68.655  1.00  0.00    -0.201 SA 
BRANCH  10  11
HETATM   11  C   UNL     1      -8.908  10.854  67.756  1.00  0.00    -0.135 A  
HETATM   12  N   UNL     1      -7.678  10.907  68.315  1.00  0.00    -0.105 NA 
HETATM   13  C   UNL     1      -6.599  10.692  67.531  1.00  0.00    -0.065 A  
HETATM   14  N   UNL     1      -6.573  10.383  66.235  1.00  0.00    -0.099 NA 
HETATM   15  C   UNL     1      -7.797  10.346  65.686  1.00  0.00    -0.154 A  
HETATM   16  C   UNL     1      -8.962  10.603  66.392  1.00  0.00    -0.162 A  
HETATM   17  N   UNL     1      -9.940  10.587  65.428  1.00  0.00    -0.270 NA 
HETATM   18  H   UNL     1     -10.928  10.794  65.570  1.00  0.00     0.000 HD 
HETATM   19  C   UNL     1      -9.349  10.242  64.239  1.00  0.00    -0.277 A  
HETATM   20  N   UNL     1      -8.049  10.102  64.366  1.00  0.00    -0.161 NA 
ENDBRANCH  10  11
ENDBRANCH   6  10
TORSDOF 2
ENDMDL
MODEL      304
REMARK 921   NORMALIZED FREE ENERGY PREDICTED BY IDOCK:   -3.17 KCAL/MOL
REMARK 922        TOTAL FREE ENERGY PREDICTED BY IDOCK:   -3.86 KCAL/MOL
REMARK 923 INTER-LIGAND FREE ENERGY PREDICTED BY IDOCK:   -3.60 KCAL/MOL
REMARK 924 INTRA-LIGAND FREE ENERGY PREDICTED BY IDOCK:   -0.26 KCAL/MOL
REMARK 927      BINDING AFFINITY PREDICTED BY RF-SCORE:    0.00 PKD
ROOT
HETATM    1  C   UNL     1      -8.532   8.336  67.165  1.00  0.00    -0.123 C  
HETATM    2  N   UNL     1      -9.335   7.530  68.052  1.00  0.00    -0.139 NA 
HETATM    3  C   UNL     1      -9.423   6.168  67.875  1.00  0.00    -0.115 A  
HETATM    4  N   UNL     1     -10.121   5.596  68.821  1.00  0.00    -0.170 NA 
HETATM    5  C   UNL     1     -10.491   6.629  69.663  1.00  0.00    -0.213 A  
HETATM    6  C   UNL     1     -10.033   7.865  69.194  1.00  0.00    -0.184 A  
HETATM    7  N   UNL     1     -11.196   6.292  70.886  1.00  0.00    -0.313 N  
HETATM    8  O   UNL     1     -11.356   5.092  71.144  1.00  0.00     0.242 OA 
HETATM    9  O   UNL     1     -11.589   7.228  71.600  1.00  0.00    -0.257 OA 
ENDROOT
BRANCH   6  10
HETATM   10  S   UNL     1     -10.043   9.432  69.978  1.00  0.00    -0.244 SA 
BRANCH  10  11
HETATM   11  C   UNL     1     -10.314  10.697  68.766  1.00  0.00    -0.193 A  
HETATM   12  N   UNL     1     -11.342  10.606  67.894  1.00  0.00    -0.413 NA 
HETATM   13  C   UNL     1     -11.386  11.462  66.849  1.00  0.00    -0.210 A  
HETATM   14  N   UNL     1     -10.544  12.455  66.565  1.00  0.00    -0.232 NA 
HETATM   15  C   UNL     1      -9.519  12.529  67.428  1.00  0.00    -0.184 A  
HETATM   16  C   UNL     1      -9.356  11.666  68.500  1.00  0.00    -0.167 A  
HETATM   17  N   UNL     1      -8.133  12.016  69.019  1.00  0.00    -0.354 NA 
HETATM   18  H   UNL     1      -7.652  11.553  69.791  1.00  0.00     0.000 HD 
HETATM   19  C   UNL     1      -7.675  13.100  68.314  1.00  0.00    -0.141 A  
HETATM   20  N   UNL     1      -8.490  13.424  67.337  1.00  0.00    -0.186 NA 
ENDBRANCH  10  11
ENDBRANCH   6  10
TORSDOF 2
ENDMDL
MODEL      305
REMARK 921   NORMALIZED FREE ENERGY PREDICTED BY IDOCK:   -3.13 KCAL/MOL
REMARK 922        TOTAL FREE ENERGY PREDICTED BY IDOCK:   -3.81 KCAL/MOL
REMARK 923 INTER-LIGAND FREE ENERGY PREDICTED BY IDOCK:   -3.51 KCAL/MOL
REMARK 924 INTRA-LIGAND FREE ENERGY PREDICTED BY IDOCK:   -0.31 KCAL/MOL
REMARK 927      BINDING AFFINITY PREDICTED BY RF-SCORE:    0.00 PKD
ROOT
HETATM    1  C   UNL     1     -12.005  11.932  68.798  1.00  0.00    -0.249 C  
HETATM    2  N   UNL     1     -11.189  13.118  68.705  1.00  0.00    -0.266 NA 
HETATM    3  C   UNL     1     -11.431  14.201  69.519  1.00  0.00    -0.281 A  
HETATM    4  N   UNL     1     -10.541  15.145  69.354  1.00  0.00    -0.245 NA 
HETATM    5  C   UNL     1      -9.669  14.649  68.402  1.00  0.00    -0.217 A  
HETATM    6  C   UNL     1     -10.062  13.383  67.953  1.00  0.00    -0.238 A  
HETATM    7  N   UNL     1      -8.492  15.435  68.081  1.00  0.00    -0.145 N  
HETATM    8  O   UNL     1      -8.295  16.467  68.733  1.00  0.00    -0.227 OA 
HETATM    9  O   UNL     1      -7.754  15.019  67.173  1.00  0.00    -0.202 OA 
ENDROOT
BRANCH   6  10
HETATM   10  S   UNL     1      -9.209  12.243  66.932  1.00  0.00    -0.213 SA 
BRANCH  10  11
HETATM   11  C   UNL     1      -8.840  10.779  67.860  1.00  0.00    -0.132 A  
HETATM   12  N   UNL     1      -8.269  10.865  69.083  1.00  0.00    -0.124 NA 
HETATM   13  C   UNL     1      -7.799   9.738  69.661  1.00  0.00    -0.142 A  
HETATM   14  N   UNL     1      -7.855   8.490  69.195  1.00  0.00    -0.098 NA 
HETATM   15  C   UNL     1      -8.409   8.417  67.975  1.00  0.00    -0.128 A  
HETATM   16  C   UNL     1      -8.875   9.520  67.277  1.00  0.00    -0.128 A  
HETATM   17  N   UNL     1      -9.227   9.008  66.052  1.00  0.00    -0.208 NA 
HETATM   18  H   UNL     1      -9.562   9.543  65.250  1.00  0.00     0.000 HD 
HETATM   19  C   UNL     1      -9.049   7.648  66.100  1.00  0.00    -0.144 A  
HETATM   20  N   UNL     1      -8.544   7.266  67.251  1.00  0.00    -0.121 NA 
ENDBRANCH  10  11
ENDBRANCH   6  10
TORSDOF 2
ENDMDL
MODEL      306
REMARK 921   NORMALIZED FREE ENERGY PREDICTED BY IDOCK:   -3.13 KCAL/MOL
REMARK 922        TOTAL FREE ENERGY PREDICTED BY IDOCK:   -3.81 KCAL/MOL
REMARK 923 INTER-LIGAND FREE ENERGY PREDICTED BY IDOCK:   -3.84 KCAL/MOL
REMARK 924 INTRA-LIGAND FREE ENERGY PREDICTED BY IDOCK:    0.03 KCAL/MOL
REMARK 927      BINDING AFFINITY PREDICTED BY RF-SCORE:    0.00 PKD
ROOT
HETATM    1  C   UNL     1     -11.539  11.351  67.282  1.00  0.00    -0.149 C  
HETATM    2  N   UNL     1     -10.480  12.316  67.452  1.00  0.00    -0.209 NA 
HETATM    3  C   UNL     1     -10.730  13.536  68.038  1.00  0.00    -0.251 A  
HETATM    4  N   UNL     1      -9.639  14.240  68.186  1.00  0.00    -0.212 NA 
HETATM    5  C   UNL     1      -8.628  13.438  67.690  1.00  0.00    -0.193 A  
HETATM    6  C   UNL     1      -9.127  12.227  67.196  1.00  0.00    -0.193 A  
HETATM    7  N   UNL     1      -7.261  13.907  67.817  1.00  0.00    -0.148 N  
HETATM    8  O   UNL     1      -7.071  14.963  68.433  1.00  0.00    -0.103 OA 
HETATM    9  O   UNL     1      -6.366  13.215  67.304  1.00  0.00    -0.270 OA 
ENDROOT
BRANCH   6  10
HETATM   10  S   UNL     1      -8.267  10.795  66.667  1.00  0.00    -0.145 SA 
BRANCH  10  11
HETATM   11  C   UNL     1      -9.058   9.352  67.326  1.00  0.00    -0.133 A  
HETATM   12  N   UNL     1      -9.617   8.437  66.503  1.00  0.00    -0.218 NA 
HETATM   13  C   UNL     1     -10.401   7.475  67.038  1.00  0.00    -0.324 A  
HETATM   14  N   UNL     1     -10.683   7.266  68.323  1.00  0.00    -0.163 NA 
HETATM   15  C   UNL     1     -10.136   8.188  69.131  1.00  0.00    -0.202 A  
HETATM   16  C   UNL     1      -9.361   9.242  68.676  1.00  0.00    -0.139 A  
HETATM   17  N   UNL     1      -9.130   9.991  69.805  1.00  0.00    -0.310 NA 
HETATM   18  H   UNL     1      -8.637  10.882  69.845  1.00  0.00     0.000 HD 
HETATM   19  C   UNL     1      -9.684   9.323  70.869  1.00  0.00    -0.276 A  
HETATM   20  N   UNL     1     -10.309   8.234  70.486  1.00  0.00    -0.199 NA 
ENDBRANCH  10  11
ENDBRANCH   6  10
TORSDOF 2
ENDMDL
MODEL      307
REMARK 921   NORMALIZED FREE ENERGY PREDICTED BY IDOCK:   -3.12 KCAL/MOL
REMARK 922        TOTAL FREE ENERGY PREDICTED BY IDOCK:   -3.80 KCAL/MOL
REMARK 923 INTER-LIGAND FREE ENERGY PREDICTED BY IDOCK:   -3.42 KCAL/MOL
REMARK 924 INTRA-LIGAND FREE ENERGY PREDICTED BY IDOCK:   -0.38 KCAL/MOL
REMARK 927      BINDING AFFINITY PREDICTED BY RF-SCORE:    0.00 PKD
ROOT
HETATM    1  C   UNL     1      -7.519   5.838  69.245  1.00  0.00    -0.083 C  
HETATM    2  N   UNL     1      -8.536   6.635  69.889  1.00  0.00    -0.138 NA 
HETATM    3  C   UNL     1      -8.679   6.616  71.258  1.00  0.00    -0.129 A  
HETATM    4  N   UNL     1      -9.588   7.462  71.665  1.00  0.00    -0.151 NA 
HETATM    5  C   UNL     1     -10.049   8.072  70.513  1.00  0.00    -0.192 A  
HETATM    6  C   UNL     1      -9.423   7.557  69.372  1.00  0.00    -0.155 A  
HETATM    7  N   UNL     1     -11.004   9.156  70.651  1.00  0.00    -0.246 N  
HETATM    8  O   UNL     1     -11.294   9.524  71.796  1.00  0.00    -0.370 OA 
HETATM    9  O   UNL     1     -11.468   9.649  69.610  1.00  0.00    -0.142 OA 
ENDROOT
BRANCH   6  10
HETATM   10  S   UNL     1      -9.483   8.118  67.714  1.00  0.00    -0.144 SA 
BRANCH  10  11
HETATM   11  C   UNL     1      -8.893   9.788  67.634  1.00  0.00    -0.125 A  
HETATM   12  N   UNL     1      -8.027  10.257  68.559  1.00  0.00    -0.102 NA 
HETATM   13  C   UNL     1      -7.776  11.584  68.600  1.00  0.00    -0.139 A  
HETATM   14  N   UNL     1      -8.250  12.535  67.796  1.00  0.00    -0.153 NA 
HETATM   15  C   UNL     1      -9.119  12.062  66.890  1.00  0.00    -0.196 A  
HETATM   16  C   UNL     1      -9.483  10.728  66.800  1.00  0.00    -0.173 A  
HETATM   17  N   UNL     1     -10.470  10.721  65.845  1.00  0.00    -0.234 NA 
HETATM   18  H   UNL     1     -11.018   9.912  65.552  1.00  0.00     0.000 HD 
HETATM   19  C   UNL     1     -10.586  11.997  65.354  1.00  0.00    -0.278 A  
HETATM   20  N   UNL     1      -9.787  12.831  65.979  1.00  0.00    -0.264 NA 
ENDBRANCH  10  11
ENDBRANCH   6  10
TORSDOF 2
ENDMDL
MODEL      308
REMARK 921   NORMALIZED FREE ENERGY PREDICTED BY IDOCK:   -3.12 KCAL/MOL
REMARK 922        TOTAL FREE ENERGY PREDICTED BY IDOCK:   -3.80 KCAL/MOL
REMARK 923 INTER-LIGAND FREE ENERGY PREDICTED BY IDOCK:   -3.10 KCAL/MOL
REMARK 924 INTRA-LIGAND FREE ENERGY PREDICTED BY IDOCK:   -0.70 KCAL/MOL
REMARK 927      BINDING AFFINITY PREDICTED BY RF-SCORE:    0.00 PKD
ROOT
HETATM    1  C   UNL     1     -11.608   8.801  72.326  1.00  0.00    -0.321 C  
HETATM    2  N   UNL     1     -11.039   8.903  71.004  1.00  0.00    -0.258 NA 
HETATM    3  C   UNL     1     -10.306  10.010  70.640  1.00  0.00    -0.083 A  
HETATM    4  N   UNL     1      -9.799   9.888  69.441  1.00  0.00    -0.203 NA 
HETATM    5  C   UNL     1     -10.206   8.639  69.009  1.00  0.00    -0.207 A  
HETATM    6  C   UNL     1     -11.010   8.001  69.960  1.00  0.00    -0.202 A  
HETATM    7  N   UNL     1      -9.704   8.162  67.733  1.00  0.00    -0.152 N  
HETATM    8  O   UNL     1      -8.878   8.867  67.141  1.00  0.00    -0.122 OA 
HETATM    9  O   UNL     1     -10.131   7.072  67.319  1.00  0.00    -0.167 OA 
ENDROOT
BRANCH   6  10
HETATM   10  S   UNL     1     -11.597   6.351  70.003  1.00  0.00    -0.246 SA 
BRANCH  10  11
HETATM   11  C   UNL     1     -10.379   5.309  70.761  1.00  0.00    -0.239 A  
HETATM   12  N   UNL     1     -10.113   5.410  72.083  1.00  0.00    -0.184 NA 
HETATM   13  C   UNL     1      -9.033   4.768  72.579  1.00  0.00    -0.125 A  
HETATM   14  N   UNL     1      -8.175   3.981  71.930  1.00  0.00    -0.089 NA 
HETATM   15  C   UNL     1      -8.439   3.898  70.616  1.00  0.00    -0.070 A  
HETATM   16  C   UNL     1      -9.490   4.560  70.003  1.00  0.00    -0.177 A  
HETATM   17  N   UNL     1      -9.304   4.303  68.666  1.00  0.00    -0.141 NA 
HETATM   18  H   UNL     1      -9.861   4.678  67.898  1.00  0.00     0.000 HD 
HETATM   19  C   UNL     1      -8.236   3.449  68.550  1.00  0.00    -0.072 A  
HETATM   20  N   UNL     1      -7.687   3.198  69.716  1.00  0.00    -0.044 NA 
ENDBRANCH  10  11
ENDBRANCH   6  10
TORSDOF 2
ENDMDL
MODEL      309
REMARK 921   NORMALIZED FREE ENERGY PREDICTED BY IDOCK:   -3.11 KCAL/MOL
REMARK 922        TOTAL FREE ENERGY PREDICTED BY IDOCK:   -3.79 KCAL/MOL
REMARK 923 INTER-LIGAND FREE ENERGY PREDICTED BY IDOCK:   -3.62 KCAL/MOL
REMARK 924 INTRA-LIGAND FREE ENERGY PREDICTED BY IDOCK:   -0.18 KCAL/MOL
REMARK 927      BINDING AFFINITY PREDICTED BY RF-SCORE:    0.00 PKD
ROOT
HETATM    1  C   UNL     1      -9.200   8.747  69.073  1.00  0.00    -0.141 C  
HETATM    2  N   UNL     1      -9.776   9.476  67.970  1.00  0.00    -0.144 NA 
HETATM    3  C   UNL     1     -10.847  10.318  68.169  1.00  0.00    -0.265 A  
HETATM    4  N   UNL     1     -11.177  10.955  67.076  1.00  0.00    -0.337 NA 
HETATM    5  C   UNL     1     -10.271  10.523  66.125  1.00  0.00    -0.236 A  
HETATM    6  C   UNL     1      -9.389   9.571  66.649  1.00  0.00    -0.161 A  
HETATM    7  N   UNL     1     -10.312  11.143  64.813  1.00  0.00    -0.306 N  
HETATM    8  O   UNL     1     -11.104  12.078  64.645  1.00  0.00    -0.303 OA 
HETATM    9  O   UNL     1      -9.545  10.699  63.944  1.00  0.00    -0.253 OA 
ENDROOT
BRANCH   6  10
HETATM   10  S   UNL     1      -7.943   8.877  65.942  1.00  0.00    -0.110 SA 
BRANCH  10  11
HETATM   11  C   UNL     1      -7.750   7.210  66.513  1.00  0.00    -0.100 A  
HETATM   12  N   UNL     1      -6.526   6.727  66.826  1.00  0.00    -0.042 NA 
HETATM   13  C   UNL     1      -6.387   5.400  67.038  1.00  0.00    -0.039 A  
HETATM   14  N   UNL     1      -7.332   4.461  67.021  1.00  0.00    -0.076 NA 
HETATM   15  C   UNL     1      -8.540   4.947  66.696  1.00  0.00    -0.109 A  
HETATM   16  C   UNL     1      -8.777   6.282  66.409  1.00  0.00    -0.137 A  
HETATM   17  N   UNL     1     -10.091   6.303  66.009  1.00  0.00    -0.385 NA 
HETATM   18  H   UNL     1     -10.602   7.116  65.664  1.00  0.00     0.000 HD 
HETATM   19  C   UNL     1     -10.593   5.035  66.156  1.00  0.00    -0.265 A  
HETATM   20  N   UNL     1      -9.670   4.192  66.561  1.00  0.00    -0.208 NA 
ENDBRANCH  10  11
ENDBRANCH   6  10
TORSDOF 2
ENDMDL
MODEL      310
REMARK 921   NORMALIZED FREE ENERGY PREDICTED BY IDOCK:   -3.11 KCAL/MOL
REMARK 922        TOTAL FREE ENERGY PREDICTED BY IDOCK:   -3.79 KCAL/MOL
REMARK 923 INTER-LIGAND FREE ENERGY PREDICTED BY IDOCK:   -3.80 KCAL/MOL
REMARK 924 INTRA-LIGAND FREE ENERGY PREDICTED BY IDOCK:    0.01 KCAL/MOL
REMARK 927      BINDING AFFINITY PREDICTED BY RF-SCORE:    0.00 PKD
ROOT
HETATM    1  C   UNL     1     -11.712  11.070  67.968  1.00  0.00    -0.179 C  
HETATM    2  N   UNL     1     -11.329  12.377  67.492  1.00  0.00    -0.294 NA 
HETATM    3  C   UNL     1     -12.277  13.349  67.272  1.00  0.00    -0.233 A  
HETATM    4  N   UNL     1     -11.738  14.489  66.928  1.00  0.00    -0.385 NA 
HETATM    5  C   UNL     1     -10.375  14.255  66.940  1.00  0.00    -0.268 A  
HETATM    6  C   UNL     1     -10.083  12.927  67.268  1.00  0.00    -0.231 A  
HETATM    7  N   UNL     1      -9.489  15.380  66.701  1.00  0.00    -0.242 N  
HETATM    8  O   UNL     1     -10.001  16.499  66.578  1.00  0.00    -0.258 OA 
HETATM    9  O   UNL     1      -8.270  15.148  66.641  1.00  0.00    -0.202 OA 
ENDROOT
BRANCH   6  10
HETATM   10  S   UNL     1      -8.541  12.175  67.625  1.00  0.00    -0.177 SA 
BRANCH  10  11
HETATM   11  C   UNL     1      -8.386  10.674  66.695  1.00  0.00    -0.136 A  
HETATM   12  N   UNL     1      -9.207   9.628  66.934  1.00  0.00    -0.141 NA 
HETATM   13  C   UNL     1      -8.919   8.434  66.371  1.00  0.00    -0.171 A  
HETATM   14  N   UNL     1      -7.918   8.136  65.544  1.00  0.00    -0.104 NA 
HETATM   15  C   UNL     1      -7.100   9.177  65.323  1.00  0.00    -0.088 A  
HETATM   16  C   UNL     1      -7.279  10.427  65.895  1.00  0.00    -0.135 A  
HETATM   17  N   UNL     1      -6.161  11.126  65.509  1.00  0.00    -0.363 NA 
HETATM   18  H   UNL     1      -5.919  12.076  65.792  1.00  0.00     0.000 HD 
HETATM   19  C   UNL     1      -5.430  10.319  64.675  1.00  0.00    -0.126 A  
HETATM   20  N   UNL     1      -5.971   9.128  64.555  1.00  0.00    -0.069 NA 
ENDBRANCH  10  11
ENDBRANCH   6  10
TORSDOF 2
ENDMDL
MODEL      311
REMARK 921   NORMALIZED FREE ENERGY PREDICTED BY IDOCK:   -3.10 KCAL/MOL
REMARK 922        TOTAL FREE ENERGY PREDICTED BY IDOCK:   -3.78 KCAL/MOL
REMARK 923 INTER-LIGAND FREE ENERGY PREDICTED BY IDOCK:   -3.31 KCAL/MOL
REMARK 924 INTRA-LIGAND FREE ENERGY PREDICTED BY IDOCK:   -0.47 KCAL/MOL
REMARK 927      BINDING AFFINITY PREDICTED BY RF-SCORE:    0.00 PKD
ROOT
HETATM    1  C   UNL     1      -7.594   5.042  67.454  1.00  0.00    -0.091 C  
HETATM    2  N   UNL     1      -8.500   5.075  68.575  1.00  0.00    -0.091 NA 
HETATM    3  C   UNL     1      -8.172   4.459  69.761  1.00  0.00    -0.062 A  
HETATM    4  N   UNL     1      -9.072   4.667  70.686  1.00  0.00    -0.122 NA 
HETATM    5  C   UNL     1     -10.023   5.470  70.082  1.00  0.00    -0.221 A  
HETATM    6  C   UNL     1      -9.706   5.726  68.743  1.00  0.00    -0.132 A  
HETATM    7  N   UNL     1     -11.112   5.969  70.901  1.00  0.00    -0.296 N  
HETATM    8  O   UNL     1     -11.086   5.712  72.110  1.00  0.00    -0.247 OA 
HETATM    9  O   UNL     1     -12.000   6.628  70.335  1.00  0.00    -0.396 OA 
ENDROOT
BRANCH   6  10
HETATM   10  S   UNL     1     -10.447   6.839  67.611  1.00  0.00    -0.265 SA 
BRANCH  10  11
HETATM   11  C   UNL     1     -10.143   8.505  68.136  1.00  0.00    -0.200 A  
HETATM   12  N   UNL     1     -10.920   9.519  67.694  1.00  0.00    -0.183 NA 
HETATM   13  C   UNL     1     -10.528  10.790  67.931  1.00  0.00    -0.199 A  
HETATM   14  N   UNL     1      -9.455  11.207  68.603  1.00  0.00    -0.196 NA 
HETATM   15  C   UNL     1      -8.682  10.194  69.026  1.00  0.00    -0.161 A  
HETATM   16  C   UNL     1      -8.970   8.859  68.789  1.00  0.00    -0.134 A  
HETATM   17  N   UNL     1      -7.869   8.196  69.271  1.00  0.00    -0.107 NA 
HETATM   18  H   UNL     1      -7.700   7.191  69.216  1.00  0.00     0.000 HD 
HETATM   19  C   UNL     1      -7.037   9.126  69.842  1.00  0.00    -0.056 A  
HETATM   20  N   UNL     1      -7.501  10.346  69.696  1.00  0.00    -0.151 NA 
ENDBRANCH  10  11
ENDBRANCH   6  10
TORSDOF 2
ENDMDL
MODEL      312
REMARK 921   NORMALIZED FREE ENERGY PREDICTED BY IDOCK:   -3.10 KCAL/MOL
REMARK 922        TOTAL FREE ENERGY PREDICTED BY IDOCK:   -3.78 KCAL/MOL
REMARK 923 INTER-LIGAND FREE ENERGY PREDICTED BY IDOCK:   -3.02 KCAL/MOL
REMARK 924 INTRA-LIGAND FREE ENERGY PREDICTED BY IDOCK:   -0.76 KCAL/MOL
REMARK 927      BINDING AFFINITY PREDICTED BY RF-SCORE:    0.00 PKD
ROOT
HETATM    1  C   UNL     1      -9.862  10.696  69.522  1.00  0.00    -0.084 C  
HETATM    2  N   UNL     1     -10.094  11.307  68.236  1.00  0.00    -0.182 NA 
HETATM    3  C   UNL     1      -9.771  12.627  68.018  1.00  0.00    -0.215 A  
HETATM    4  N   UNL     1      -9.971  12.980  66.776  1.00  0.00    -0.239 NA 
HETATM    5  C   UNL     1     -10.429  11.836  66.150  1.00  0.00    -0.245 A  
HETATM    6  C   UNL     1     -10.542  10.768  67.047  1.00  0.00    -0.260 A  
HETATM    7  N   UNL     1     -10.639  11.882  64.714  1.00  0.00    -0.285 N  
HETATM    8  O   UNL     1     -10.323  12.919  64.120  1.00  0.00    -0.410 OA 
HETATM    9  O   UNL     1     -11.120  10.873  64.171  1.00  0.00    -0.126 OA 
ENDROOT
BRANCH   6  10
HETATM   10  S   UNL     1     -10.863   9.074  66.736  1.00  0.00     0.355 SA 
BRANCH  10  11
HETATM   11  C   UNL     1      -9.328   8.207  66.542  1.00  0.00    -0.206 A  
HETATM   12  N   UNL     1      -8.692   7.686  67.614  1.00  0.00    -0.122 NA 
HETATM   13  C   UNL     1      -7.427   7.235  67.463  1.00  0.00    -0.101 A  
HETATM   14  N   UNL     1      -6.698   7.191  66.348  1.00  0.00    -0.052 NA 
HETATM   15  C   UNL     1      -7.333   7.723  65.292  1.00  0.00    -0.078 A  
HETATM   16  C   UNL     1      -8.610   8.259  65.356  1.00  0.00    -0.151 A  
HETATM   17  N   UNL     1      -8.802   8.796  64.106  1.00  0.00    -0.420 NA 
HETATM   18  H   UNL     1      -9.616   9.328  63.799  1.00  0.00     0.000 HD 
HETATM   19  C   UNL     1      -7.703   8.486  63.344  1.00  0.00    -0.139 A  
HETATM   20  N   UNL     1      -6.793   7.846  64.043  1.00  0.00    -0.061 NA 
ENDBRANCH  10  11
ENDBRANCH   6  10
TORSDOF 2
ENDMDL
MODEL      313
REMARK 921   NORMALIZED FREE ENERGY PREDICTED BY IDOCK:   -2.98 KCAL/MOL
REMARK 922        TOTAL FREE ENERGY PREDICTED BY IDOCK:   -3.65 KCAL/MOL
REMARK 923 INTER-LIGAND FREE ENERGY PREDICTED BY IDOCK:   -3.04 KCAL/MOL
REMARK 924 INTRA-LIGAND FREE ENERGY PREDICTED BY IDOCK:   -0.61 KCAL/MOL
REMARK 927      BINDING AFFINITY PREDICTED BY RF-SCORE:    0.00 PKD
ROOT
HETATM    1  C   UNL     1      -6.894   9.590  70.780  1.00  0.00    -0.103 C  
HETATM    2  N   UNL     1      -7.016   8.206  70.395  1.00  0.00    -0.037 NA 
HETATM    3  C   UNL     1      -6.288   7.232  71.039  1.00  0.00    -0.036 A  
HETATM    4  N   UNL     1      -6.592   6.033  70.615  1.00  0.00    -0.046 NA 
HETATM    5  C   UNL     1      -7.574   6.232  69.662  1.00  0.00    -0.094 A  
HETATM    6  C   UNL     1      -7.849   7.592  69.481  1.00  0.00    -0.120 A  
HETATM    7  N   UNL     1      -8.202   5.062  69.076  1.00  0.00    -0.086 N  
HETATM    8  O   UNL     1      -7.877   3.953  69.519  1.00  0.00    -0.052 OA 
HETATM    9  O   UNL     1      -9.031   5.247  68.170  1.00  0.00    -0.108 OA 
ENDROOT
BRANCH   6  10
HETATM   10  S   UNL     1      -9.132   8.363  68.570  1.00  0.00    -0.135 SA 
BRANCH  10  11
HETATM   11  C   UNL     1     -10.489   8.724  69.651  1.00  0.00    -0.220 A  
HETATM   12  N   UNL     1     -10.814  10.002  69.946  1.00  0.00    -0.265 NA 
HETATM   13  C   UNL     1     -11.700  10.235  70.939  1.00  0.00    -0.379 A  
HETATM   14  N   UNL     1     -12.360   9.344  71.677  1.00  0.00    -0.360 NA 
HETATM   15  C   UNL     1     -12.021   8.078  71.387  1.00  0.00    -0.298 A  
HETATM   16  C   UNL     1     -11.086   7.736  70.423  1.00  0.00    -0.251 A  
HETATM   17  N   UNL     1     -10.960   6.375  70.556  1.00  0.00    -0.282 NA 
HETATM   18  H   UNL     1     -10.311   5.778  70.043  1.00  0.00     0.000 HD 
HETATM   19  C   UNL     1     -11.865   5.962  71.501  1.00  0.00     0.119 A  
HETATM   20  N   UNL     1     -12.513   6.976  72.029  1.00  0.00    -0.282 NA 
ENDBRANCH  10  11
ENDBRANCH   6  10
TORSDOF 2
ENDMDL
MODEL      314
REMARK 921   NORMALIZED FREE ENERGY PREDICTED BY IDOCK:   -2.97 KCAL/MOL
REMARK 922        TOTAL FREE ENERGY PREDICTED BY IDOCK:   -3.64 KCAL/MOL
REMARK 923 INTER-LIGAND FREE ENERGY PREDICTED BY IDOCK:   -2.93 KCAL/MOL
REMARK 924 INTRA-LIGAND FREE ENERGY PREDICTED BY IDOCK:   -0.71 KCAL/MOL
REMARK 927      BINDING AFFINITY PREDICTED BY RF-SCORE:    0.00 PKD
ROOT
HETATM    1  C   UNL     1      -9.256   4.644  68.908  1.00  0.00    -0.129 C  
HETATM    2  N   UNL     1      -9.810   5.717  69.696  1.00  0.00    -0.166 NA 
HETATM    3  C   UNL     1     -11.108   5.658  70.148  1.00  0.00    -0.136 A  
HETATM    4  N   UNL     1     -11.406   6.675  70.914  1.00  0.00    -0.304 NA 
HETATM    5  C   UNL     1     -10.245   7.423  70.979  1.00  0.00    -0.191 A  
HETATM    6  C   UNL     1      -9.225   6.861  70.203  1.00  0.00    -0.155 A  
HETATM    7  N   UNL     1     -10.227   8.577  71.859  1.00  0.00    -0.270 N  
HETATM    8  O   UNL     1     -11.225   8.781  72.560  1.00  0.00    -0.275 OA 
HETATM    9  O   UNL     1      -9.207   9.285  71.856  1.00  0.00    -0.298 OA 
ENDROOT
BRANCH   6  10
HETATM   10  S   UNL     1      -7.528   7.283  70.109  1.00  0.00    -0.089 SA 
BRANCH  10  11
HETATM   11  C   UNL     1      -7.234   8.227  68.638  1.00  0.00    -0.087 A  
HETATM   12  N   UNL     1      -6.417   7.756  67.669  1.00  0.00    -0.054 NA 
HETATM   13  C   UNL     1      -6.040   8.589  66.675  1.00  0.00    -0.057 A  
HETATM   14  N   UNL     1      -6.406   9.855  66.481  1.00  0.00    -0.068 NA 
HETATM   15  C   UNL     1      -7.206  10.319  67.454  1.00  0.00    -0.092 A  
HETATM   16  C   UNL     1      -7.607   9.560  68.543  1.00  0.00    -0.081 A  
HETATM   17  N   UNL     1      -8.290  10.454  69.332  1.00  0.00    -0.247 NA 
HETATM   18  H   UNL     1      -8.685  10.264  70.252  1.00  0.00     0.000 HD 
HETATM   19  C   UNL     1      -8.344  11.649  68.658  1.00  0.00    -0.100 A  
HETATM   20  N   UNL     1      -7.685  11.596  67.523  1.00  0.00    -0.127 NA 
ENDBRANCH  10  11
ENDBRANCH   6  10
TORSDOF 2
ENDMDL
MODEL      315
REMARK 921   NORMALIZED FREE ENERGY PREDICTED BY IDOCK:   -2.96 KCAL/MOL
REMARK 922        TOTAL FREE ENERGY PREDICTED BY IDOCK:   -3.62 KCAL/MOL
REMARK 923 INTER-LIGAND FREE ENERGY PREDICTED BY IDOCK:   -3.09 KCAL/MOL
REMARK 924 INTRA-LIGAND FREE ENERGY PREDICTED BY IDOCK:   -0.54 KCAL/MOL
REMARK 927      BINDING AFFINITY PREDICTED BY RF-SCORE:    0.00 PKD
ROOT
HETATM    1  C   UNL     1      -7.162   6.866  64.292  1.00  0.00    -0.067 C  
HETATM    2  N   UNL     1      -7.917   8.072  64.054  1.00  0.00    -0.146 NA 
HETATM    3  C   UNL     1      -8.640   8.230  62.893  1.00  0.00     0.080 A  
HETATM    4  N   UNL     1      -9.326   9.343  62.892  1.00  0.00     0.075 NA 
HETATM    5  C   UNL     1      -9.052   9.930  64.113  1.00  0.00    -0.252 A  
HETATM    6  C   UNL     1      -8.148   9.168  64.861  1.00  0.00    -0.133 A  
HETATM    7  N   UNL     1      -9.763  11.148  64.458  1.00  0.00    -0.250 N  
HETATM    8  O   UNL     1     -10.632  11.547  63.673  1.00  0.00    -0.357 OA 
HETATM    9  O   UNL     1      -9.459  11.709  65.523  1.00  0.00    -0.229 OA 
ENDROOT
BRANCH   6  10
HETATM   10  S   UNL     1      -7.645   9.348  66.529  1.00  0.00    -0.094 SA 
BRANCH  10  11
HETATM   11  C   UNL     1      -9.002   8.959  67.601  1.00  0.00    -0.134 A  
HETATM   12  N   UNL     1      -9.269   9.727  68.681  1.00  0.00    -0.134 NA 
HETATM   13  C   UNL     1     -10.160   9.279  69.593  1.00  0.00    -0.197 A  
HETATM   14  N   UNL     1     -10.876   8.155  69.559  1.00  0.00    -0.175 NA 
HETATM   15  C   UNL     1     -10.594   7.393  68.491  1.00  0.00    -0.153 A  
HETATM   16  C   UNL     1      -9.660   7.738  67.528  1.00  0.00    -0.148 A  
HETATM   17  N   UNL     1      -9.603   6.633  66.714  1.00  0.00    -0.162 NA 
HETATM   18  H   UNL     1      -8.975   6.500  65.921  1.00  0.00     0.000 HD 
HETATM   19  C   UNL     1     -10.544   5.738  67.160  1.00  0.00    -0.291 A  
HETATM   20  N   UNL     1     -11.150   6.170  68.242  1.00  0.00    -0.319 NA 
ENDBRANCH  10  11
ENDBRANCH   6  10
TORSDOF 2
ENDMDL
MODEL      316
REMARK 921   NORMALIZED FREE ENERGY PREDICTED BY IDOCK:   -2.95 KCAL/MOL
REMARK 922        TOTAL FREE ENERGY PREDICTED BY IDOCK:   -3.62 KCAL/MOL
REMARK 923 INTER-LIGAND FREE ENERGY PREDICTED BY IDOCK:   -3.21 KCAL/MOL
REMARK 924 INTRA-LIGAND FREE ENERGY PREDICTED BY IDOCK:   -0.41 KCAL/MOL
REMARK 927      BINDING AFFINITY PREDICTED BY RF-SCORE:    0.00 PKD
ROOT
HETATM    1  C   UNL     1     -10.244   8.953  66.241  1.00  0.00    -0.133 C  
HETATM    2  N   UNL     1      -9.282   9.300  67.259  1.00  0.00    -0.126 NA 
HETATM    3  C   UNL     1      -8.271  10.194  66.992  1.00  0.00    -0.118 A  
HETATM    4  N   UNL     1      -7.553  10.452  68.053  1.00  0.00    -0.091 NA 
HETATM    5  C   UNL     1      -8.131   9.705  69.063  1.00  0.00    -0.103 A  
HETATM    6  C   UNL     1      -9.210   8.948  68.591  1.00  0.00    -0.137 A  
HETATM    7  N   UNL     1      -7.615   9.865  70.410  1.00  0.00    -0.156 N  
HETATM    8  O   UNL     1      -6.738  10.719  70.592  1.00  0.00    -0.310 OA 
HETATM    9  O   UNL     1      -8.090   9.138  71.298  1.00  0.00    -0.285 OA 
ENDROOT
BRANCH   6  10
HETATM   10  S   UNL     1     -10.397   8.017  69.481  1.00  0.00    -0.222 SA 
BRANCH  10  11
HETATM   11  C   UNL     1      -9.818   6.352  69.674  1.00  0.00    -0.159 A  
HETATM   12  N   UNL     1      -9.416   5.634  68.601  1.00  0.00    -0.122 NA 
HETATM   13  C   UNL     1      -9.197   4.309  68.751  1.00  0.00    -0.141 A  
HETATM   14  N   UNL     1      -9.286   3.583  69.865  1.00  0.00    -0.163 NA 
HETATM   15  C   UNL     1      -9.700   4.300  70.921  1.00  0.00    -0.196 A  
HETATM   16  C   UNL     1     -10.000   5.652  70.859  1.00  0.00    -0.194 A  
HETATM   17  N   UNL     1     -10.497   5.935  72.108  1.00  0.00    -0.201 NA 
HETATM   18  H   UNL     1     -10.877   6.830  72.415  1.00  0.00     0.000 HD 
HETATM   19  C   UNL     1     -10.390   4.797  72.868  1.00  0.00    -0.185 A  
HETATM   20  N   UNL     1      -9.921   3.789  72.169  1.00  0.00    -0.167 NA 
ENDBRANCH  10  11
ENDBRANCH   6  10
TORSDOF 2
ENDMDL
MODEL      317
REMARK 921   NORMALIZED FREE ENERGY PREDICTED BY IDOCK:   -2.95 KCAL/MOL
REMARK 922        TOTAL FREE ENERGY PREDICTED BY IDOCK:   -3.61 KCAL/MOL
REMARK 923 INTER-LIGAND FREE ENERGY PREDICTED BY IDOCK:   -3.59 KCAL/MOL
REMARK 924 INTRA-LIGAND FREE ENERGY PREDICTED BY IDOCK:   -0.03 KCAL/MOL
REMARK 927      BINDING AFFINITY PREDICTED BY RF-SCORE:    0.00 PKD
ROOT
HETATM    1  C   UNL     1     -10.781  13.818  67.638  1.00  0.00    -0.249 C  
HETATM    2  N   UNL     1      -9.609  12.997  67.820  1.00  0.00    -0.201 NA 
HETATM    3  C   UNL     1      -8.377  13.426  67.382  1.00  0.00    -0.190 A  
HETATM    4  N   UNL     1      -7.424  12.593  67.710  1.00  0.00    -0.117 NA 
HETATM    5  C   UNL     1      -8.060  11.583  68.407  1.00  0.00    -0.149 A  
HETATM    6  C   UNL     1      -9.442  11.793  68.475  1.00  0.00    -0.163 A  
HETATM    7  N   UNL     1      -7.239  10.546  69.006  1.00  0.00    -0.081 N  
HETATM    8  O   UNL     1      -6.011  10.667  68.924  1.00  0.00    -0.041 OA 
HETATM    9  O   UNL     1      -7.822   9.604  69.567  1.00  0.00    -0.093 OA 
ENDROOT
BRANCH   6  10
HETATM   10  S   UNL     1     -10.659  10.945  69.406  1.00  0.00    -0.159 SA 
BRANCH  10  11
HETATM   11  C   UNL     1     -10.647   9.227  68.970  1.00  0.00    -0.205 A  
HETATM   12  N   UNL     1     -10.496   8.845  67.682  1.00  0.00    -0.259 NA 
HETATM   13  C   UNL     1     -10.715   7.552  67.358  1.00  0.00    -0.261 A  
HETATM   14  N   UNL     1     -11.035   6.545  68.169  1.00  0.00    -0.291 NA 
HETATM   15  C   UNL     1     -11.198   6.936  69.442  1.00  0.00    -0.167 A  
HETATM   16  C   UNL     1     -11.047   8.246  69.867  1.00  0.00    -0.100 A  
HETATM   17  N   UNL     1     -11.429   8.210  71.186  1.00  0.00    -0.272 NA 
HETATM   18  H   UNL     1     -11.501   9.011  71.814  1.00  0.00     0.000 HD 
HETATM   19  C   UNL     1     -11.695   6.903  71.508  1.00  0.00    -0.311 A  
HETATM   20  N   UNL     1     -11.574   6.112  70.466  1.00  0.00    -0.280 NA 
ENDBRANCH  10  11
ENDBRANCH   6  10
TORSDOF 2
ENDMDL
MODEL      318
REMARK 921   NORMALIZED FREE ENERGY PREDICTED BY IDOCK:   -2.94 KCAL/MOL
REMARK 922        TOTAL FREE ENERGY PREDICTED BY IDOCK:   -3.60 KCAL/MOL
REMARK 923 INTER-LIGAND FREE ENERGY PREDICTED BY IDOCK:   -3.22 KCAL/MOL
REMARK 924 INTRA-LIGAND FREE ENERGY PREDICTED BY IDOCK:   -0.39 KCAL/MOL
REMARK 927      BINDING AFFINITY PREDICTED BY RF-SCORE:    0.00 PKD
ROOT
HETATM    1  C   UNL     1     -10.438   7.089  70.408  1.00  0.00    -0.206 C  
HETATM    2  N   UNL     1      -9.558   8.231  70.356  1.00  0.00    -0.167 NA 
HETATM    3  C   UNL     1      -8.487   8.332  71.214  1.00  0.00    -0.136 A  
HETATM    4  N   UNL     1      -7.756   9.386  70.962  1.00  0.00    -0.323 NA 
HETATM    5  C   UNL     1      -8.368   9.993  69.881  1.00  0.00    -0.151 A  
HETATM    6  C   UNL     1      -9.521   9.304  69.488  1.00  0.00    -0.173 A  
HETATM    7  N   UNL     1      -7.718  11.148  69.290  1.00  0.00    -0.075 N  
HETATM    8  O   UNL     1      -6.614  11.478  69.739  1.00  0.00    -0.130 OA 
HETATM    9  O   UNL     1      -8.310  11.731  68.367  1.00  0.00    -0.149 OA 
ENDROOT
BRANCH   6  10
HETATM   10  S   UNL     1     -10.526   9.522  68.069  1.00  0.00    -0.230 SA 
BRANCH  10  11
HETATM   11  C   UNL     1      -9.541   9.314  66.610  1.00  0.00    -0.204 A  
HETATM   12  N   UNL     1      -9.688  10.147  65.556  1.00  0.00    -0.260 NA 
HETATM   13  C   UNL     1      -9.090   9.828  64.387  1.00  0.00    -0.248 A  
HETATM   14  N   UNL     1      -8.307   8.782  64.123  1.00  0.00    -0.169 NA 
HETATM   15  C   UNL     1      -8.178   7.954  65.171  1.00  0.00    -0.141 A  
HETATM   16  C   UNL     1      -8.793   8.165  66.395  1.00  0.00    -0.155 A  
HETATM   17  N   UNL     1      -8.500   7.028  67.109  1.00  0.00    -0.120 NA 
HETATM   18  H   UNL     1      -8.838   6.802  68.045  1.00  0.00     0.000 HD 
HETATM   19  C   UNL     1      -7.673   6.252  66.338  1.00  0.00    -0.099 A  
HETATM   20  N   UNL     1      -7.471   6.785  65.154  1.00  0.00    -0.082 NA 
ENDBRANCH  10  11
ENDBRANCH   6  10
TORSDOF 2
ENDMDL
MODEL      319
REMARK 921   NORMALIZED FREE ENERGY PREDICTED BY IDOCK:   -2.93 KCAL/MOL
REMARK 922        TOTAL FREE ENERGY PREDICTED BY IDOCK:   -3.59 KCAL/MOL
REMARK 923 INTER-LIGAND FREE ENERGY PREDICTED BY IDOCK:   -2.88 KCAL/MOL
REMARK 924 INTRA-LIGAND FREE ENERGY PREDICTED BY IDOCK:   -0.71 KCAL/MOL
REMARK 927      BINDING AFFINITY PREDICTED BY RF-SCORE:    0.00 PKD
ROOT
HETATM    1  C   UNL     1     -10.637   6.869  70.757  1.00  0.00    -0.220 C  
HETATM    2  N   UNL     1      -9.818   7.514  69.759  1.00  0.00    -0.178 NA 
HETATM    3  C   UNL     1      -8.756   8.307  70.130  1.00  0.00    -0.133 A  
HETATM    4  N   UNL     1      -8.080   8.734  69.095  1.00  0.00    -0.116 NA 
HETATM    5  C   UNL     1      -8.719   8.181  68.001  1.00  0.00    -0.128 A  
HETATM    6  C   UNL     1      -9.834   7.425  68.382  1.00  0.00    -0.158 A  
HETATM    7  N   UNL     1      -8.129   8.386  66.691  1.00  0.00    -0.100 N  
HETATM    8  O   UNL     1      -7.044   8.979  66.636  1.00  0.00    -0.080 OA 
HETATM    9  O   UNL     1      -8.747   7.950  65.706  1.00  0.00    -0.149 OA 
ENDROOT
BRANCH   6  10
HETATM   10  S   UNL     1     -10.844   6.360  67.426  1.00  0.00    -0.390 SA 
BRANCH  10  11
HETATM   11  C   UNL     1     -10.011   4.813  67.188  1.00  0.00    -0.190 A  
HETATM   12  N   UNL     1      -9.902   3.926  68.202  1.00  0.00    -0.048 NA 
HETATM   13  C   UNL     1      -9.076   2.868  68.054  1.00  0.00    -0.179 A  
HETATM   14  N   UNL     1      -8.349   2.536  66.987  1.00  0.00    -0.083 NA 
HETATM   15  C   UNL     1      -8.453   3.429  65.991  1.00  0.00    -0.110 A  
HETATM   16  C   UNL     1      -9.232   4.572  66.064  1.00  0.00    -0.141 A  
HETATM   17  N   UNL     1      -8.940   5.243  64.902  1.00  0.00    -0.311 NA 
HETATM   18  H   UNL     1      -9.289   6.164  64.635  1.00  0.00     0.000 HD 
HETATM   19  C   UNL     1      -8.095   4.453  64.164  1.00  0.00    -0.095 A  
HETATM   20  N   UNL     1      -7.775   3.353  64.807  1.00  0.00    -0.077 NA 
ENDBRANCH  10  11
ENDBRANCH   6  10
TORSDOF 2
ENDMDL
MODEL      320
REMARK 921   NORMALIZED FREE ENERGY PREDICTED BY IDOCK:   -2.90 KCAL/MOL
REMARK 922        TOTAL FREE ENERGY PREDICTED BY IDOCK:   -3.56 KCAL/MOL
REMARK 923 INTER-LIGAND FREE ENERGY PREDICTED BY IDOCK:   -3.13 KCAL/MOL
REMARK 924 INTRA-LIGAND FREE ENERGY PREDICTED BY IDOCK:   -0.43 KCAL/MOL
REMARK 927      BINDING AFFINITY PREDICTED BY RF-SCORE:    0.00 PKD
ROOT
HETATM    1  C   UNL     1     -11.378   8.195  71.801  1.00  0.00    -0.278 C  
HETATM    2  N   UNL     1     -11.061   9.169  70.785  1.00  0.00    -0.257 NA 
HETATM    3  C   UNL     1     -11.828  10.302  70.637  1.00  0.00    -0.347 A  
HETATM    4  N   UNL     1     -11.341  11.106  69.728  1.00  0.00    -0.274 NA 
HETATM    5  C   UNL     1     -10.197  10.478  69.274  1.00  0.00    -0.225 A  
HETATM    6  C   UNL     1     -10.003   9.242  69.901  1.00  0.00    -0.205 A  
HETATM    7  N   UNL     1      -9.362  11.187  68.321  1.00  0.00    -0.169 N  
HETATM    8  O   UNL     1      -9.682  12.345  68.028  1.00  0.00    -0.198 OA 
HETATM    9  O   UNL     1      -8.377  10.587  67.862  1.00  0.00    -0.113 OA 
ENDROOT
BRANCH   6  10
HETATM   10  S   UNL     1      -8.623   8.164  69.849  1.00  0.00    -0.131 SA 
BRANCH  10  11
HETATM   11  C   UNL     1      -8.769   7.085  68.450  1.00  0.00    -0.125 A  
HETATM   12  N   UNL     1      -9.814   7.197  67.600  1.00  0.00    -0.141 NA 
HETATM   13  C   UNL     1     -10.013   6.224  66.684  1.00  0.00    -0.153 A  
HETATM   14  N   UNL     1      -9.269   5.141  66.460  1.00  0.00    -0.131 NA 
HETATM   15  C   UNL     1      -8.242   5.031  67.317  1.00  0.00    -0.107 A  
HETATM   16  C   UNL     1      -7.984   5.947  68.325  1.00  0.00    -0.109 A  
HETATM   17  N   UNL     1      -6.945   5.381  69.024  1.00  0.00    -0.055 NA 
HETATM   18  H   UNL     1      -6.522   5.750  69.875  1.00  0.00     0.000 HD 
HETATM   19  C   UNL     1      -6.578   4.232  68.369  1.00  0.00    -0.046 A  
HETATM   20  N   UNL     1      -7.356   3.992  67.339  1.00  0.00    -0.067 NA 
ENDBRANCH  10  11
ENDBRANCH   6  10
TORSDOF 2
ENDMDL
MODEL      321
REMARK 921   NORMALIZED FREE ENERGY PREDICTED BY IDOCK:   -2.90 KCAL/MOL
REMARK 922        TOTAL FREE ENERGY PREDICTED BY IDOCK:   -3.55 KCAL/MOL
REMARK 923 INTER-LIGAND FREE ENERGY PREDICTED BY IDOCK:   -3.25 KCAL/MOL
REMARK 924 INTRA-LIGAND FREE ENERGY PREDICTED BY IDOCK:   -0.31 KCAL/MOL
REMARK 927      BINDING AFFINITY PREDICTED BY RF-SCORE:    0.00 PKD
ROOT
HETATM    1  C   UNL     1      -6.772   8.287  68.433  1.00  0.00    -0.064 C  
HETATM    2  N   UNL     1      -7.353   6.968  68.377  1.00  0.00    -0.097 NA 
HETATM    3  C   UNL     1      -7.007   6.009  69.301  1.00  0.00    -0.064 A  
HETATM    4  N   UNL     1      -7.695   4.908  69.146  1.00  0.00    -0.071 NA 
HETATM    5  C   UNL     1      -8.540   5.165  68.082  1.00  0.00    -0.102 A  
HETATM    6  C   UNL     1      -8.334   6.446  67.557  1.00  0.00    -0.117 A  
HETATM    7  N   UNL     1      -9.521   4.155  67.731  1.00  0.00    -0.172 N  
HETATM    8  O   UNL     1      -9.597   3.153  68.454  1.00  0.00    -0.171 OA 
HETATM    9  O   UNL     1     -10.226   4.361  66.730  1.00  0.00    -0.202 OA 
ENDROOT
BRANCH   6  10
HETATM   10  S   UNL     1      -9.267   7.332  66.368  1.00  0.00    -0.132 SA 
BRANCH  10  11
HETATM   11  C   UNL     1     -10.145   8.648  67.168  1.00  0.00    -0.261 A  
HETATM   12  N   UNL     1     -10.276   9.853  66.568  1.00  0.00    -0.234 NA 
HETATM   13  C   UNL     1     -10.750  10.891  67.291  1.00  0.00    -0.268 A  
HETATM   14  N   UNL     1     -11.162  10.889  68.558  1.00  0.00    -0.251 NA 
HETATM   15  C   UNL     1     -11.016   9.693  69.150  1.00  0.00    -0.151 A  
HETATM   16  C   UNL     1     -10.491   8.581  68.510  1.00  0.00    -0.167 A  
HETATM   17  N   UNL     1     -10.404   7.640  69.507  1.00  0.00    -0.213 NA 
HETATM   18  H   UNL     1     -10.006   6.705  69.419  1.00  0.00     0.000 HD 
HETATM   19  C   UNL     1     -10.948   8.184  70.644  1.00  0.00    -0.244 A  
HETATM   20  N   UNL     1     -11.315   9.431  70.457  1.00  0.00    -0.265 NA 
ENDBRANCH  10  11
ENDBRANCH   6  10
TORSDOF 2
ENDMDL
MODEL      322
REMARK 921   NORMALIZED FREE ENERGY PREDICTED BY IDOCK:   -2.88 KCAL/MOL
REMARK 922        TOTAL FREE ENERGY PREDICTED BY IDOCK:   -3.53 KCAL/MOL
REMARK 923 INTER-LIGAND FREE ENERGY PREDICTED BY IDOCK:   -3.05 KCAL/MOL
REMARK 924 INTRA-LIGAND FREE ENERGY PREDICTED BY IDOCK:   -0.48 KCAL/MOL
REMARK 927      BINDING AFFINITY PREDICTED BY RF-SCORE:    0.00 PKD
ROOT
HETATM    1  C   UNL     1     -10.639   6.876  70.757  1.00  0.00    -0.220 C  
HETATM    2  N   UNL     1      -9.847   7.562  69.766  1.00  0.00    -0.178 NA 
HETATM    3  C   UNL     1      -8.769   8.331  70.138  1.00  0.00    -0.133 A  
HETATM    4  N   UNL     1      -8.123   8.803  69.104  1.00  0.00    -0.116 NA 
HETATM    5  C   UNL     1      -8.801   8.305  68.006  1.00  0.00    -0.135 A  
HETATM    6  C   UNL     1      -9.908   7.539  68.387  1.00  0.00    -0.164 A  
HETATM    7  N   UNL     1      -8.251   8.569  66.689  1.00  0.00    -0.106 N  
HETATM    8  O   UNL     1      -7.164   9.158  66.627  1.00  0.00    -0.084 OA 
HETATM    9  O   UNL     1      -8.903   8.182  65.705  1.00  0.00    -0.156 OA 
ENDROOT
BRANCH   6  10
HETATM   10  S   UNL     1     -10.955   6.525  67.415  1.00  0.00    -0.340 SA 
BRANCH  10  11
HETATM   11  C   UNL     1     -10.065   5.082  66.895  1.00  0.00    -0.228 A  
HETATM   12  N   UNL     1      -9.999   4.748  65.587  1.00  0.00    -0.188 NA 
HETATM   13  C   UNL     1      -9.510   3.534  65.251  1.00  0.00    -0.154 A  
HETATM   14  N   UNL     1      -9.025   2.591  66.058  1.00  0.00    -0.132 NA 
HETATM   15  C   UNL     1      -9.107   2.926  67.355  1.00  0.00    -0.179 A  
HETATM   16  C   UNL     1      -9.639   4.124  67.805  1.00  0.00    -0.155 A  
HETATM   17  N   UNL     1      -9.646   3.988  69.172  1.00  0.00    -0.180 NA 
HETATM   18  H   UNL     1     -10.024   4.657  69.842  1.00  0.00     0.000 HD 
HETATM   19  C   UNL     1      -9.050   2.789  69.474  1.00  0.00    -0.122 A  
HETATM   20  N   UNL     1      -8.725   2.121  68.391  1.00  0.00    -0.080 NA 
ENDBRANCH  10  11
ENDBRANCH   6  10
TORSDOF 2
ENDMDL
MODEL      323
REMARK 921   NORMALIZED FREE ENERGY PREDICTED BY IDOCK:   -2.85 KCAL/MOL
REMARK 922        TOTAL FREE ENERGY PREDICTED BY IDOCK:   -3.50 KCAL/MOL
REMARK 923 INTER-LIGAND FREE ENERGY PREDICTED BY IDOCK:   -3.22 KCAL/MOL
REMARK 924 INTRA-LIGAND FREE ENERGY PREDICTED BY IDOCK:   -0.28 KCAL/MOL
REMARK 927      BINDING AFFINITY PREDICTED BY RF-SCORE:    0.00 PKD
ROOT
HETATM    1  C   UNL     1     -11.719  12.988  68.592  1.00  0.00    -0.323 C  
HETATM    2  N   UNL     1     -11.131  11.707  68.898  1.00  0.00    -0.216 NA 
HETATM    3  C   UNL     1     -11.331  11.120  70.127  1.00  0.00    -0.209 A  
HETATM    4  N   UNL     1     -10.797   9.928  70.192  1.00  0.00    -0.281 NA 
HETATM    5  C   UNL     1     -10.238   9.721  68.945  1.00  0.00    -0.200 A  
HETATM    6  C   UNL     1     -10.409  10.832  68.112  1.00  0.00    -0.171 A  
HETATM    7  N   UNL     1      -9.656   8.421  68.666  1.00  0.00    -0.148 N  
HETATM    8  O   UNL     1      -9.762   7.546  69.535  1.00  0.00    -0.163 OA 
HETATM    9  O   UNL     1      -9.091   8.266  67.571  1.00  0.00    -0.136 OA 
ENDROOT
BRANCH   6  10
HETATM   10  S   UNL     1     -10.088  11.007  66.398  1.00  0.00    -0.236 SA 
BRANCH  10  11
HETATM   11  C   UNL     1      -8.339  11.135  66.135  1.00  0.00    -0.144 A  
HETATM   12  N   UNL     1      -7.721  10.352  65.223  1.00  0.00    -0.143 NA 
HETATM   13  C   UNL     1      -6.371  10.315  65.207  1.00  0.00    -0.125 A  
HETATM   14  N   UNL     1      -5.521  11.000  65.971  1.00  0.00    -0.141 NA 
HETATM   15  C   UNL     1      -6.143  11.763  66.883  1.00  0.00    -0.140 A  
HETATM   16  C   UNL     1      -7.521  11.831  67.014  1.00  0.00    -0.137 A  
HETATM   17  N   UNL     1      -7.706  12.609  68.131  1.00  0.00    -0.132 NA 
HETATM   18  H   UNL     1      -8.600  12.830  68.569  1.00  0.00     0.000 HD 
HETATM   19  C   UNL     1      -6.472  13.035  68.553  1.00  0.00    -0.084 A  
HETATM   20  N   UNL     1      -5.507  12.528  67.820  1.00  0.00    -0.092 NA 
ENDBRANCH  10  11
ENDBRANCH   6  10
TORSDOF 2
ENDMDL
MODEL      324
REMARK 921   NORMALIZED FREE ENERGY PREDICTED BY IDOCK:   -2.84 KCAL/MOL
REMARK 922        TOTAL FREE ENERGY PREDICTED BY IDOCK:   -3.50 KCAL/MOL
REMARK 923 INTER-LIGAND FREE ENERGY PREDICTED BY IDOCK:   -2.80 KCAL/MOL
REMARK 924 INTRA-LIGAND FREE ENERGY PREDICTED BY IDOCK:   -0.69 KCAL/MOL
REMARK 927      BINDING AFFINITY PREDICTED BY RF-SCORE:    0.00 PKD
ROOT
HETATM    1  C   UNL     1      -9.989  12.680  68.110  1.00  0.00    -0.225 C  
HETATM    2  N   UNL     1      -9.603  11.783  67.048  1.00  0.00    -0.184 NA 
HETATM    3  C   UNL     1     -10.172  11.888  65.800  1.00  0.00    -0.242 A  
HETATM    4  N   UNL     1      -9.639  11.053  64.947  1.00  0.00    -0.232 NA 
HETATM    5  C   UNL     1      -8.667  10.383  65.667  1.00  0.00    -0.171 A  
HETATM    6  C   UNL     1      -8.634  10.801  67.002  1.00  0.00    -0.130 A  
HETATM    7  N   UNL     1      -7.813   9.450  64.954  1.00  0.00    -0.112 N  
HETATM    8  O   UNL     1      -7.953   9.365  63.728  1.00  0.00    -0.127 OA 
HETATM    9  O   UNL     1      -6.992   8.799  65.620  1.00  0.00    -0.077 OA 
ENDROOT
BRANCH   6  10
HETATM   10  S   UNL     1      -7.471  10.435  68.260  1.00  0.00    -0.092 SA 
BRANCH  10  11
HETATM   11  C   UNL     1      -8.147   9.212  69.351  1.00  0.00    -0.102 A  
HETATM   12  N   UNL     1      -8.070   9.367  70.692  1.00  0.00    -0.196 NA 
HETATM   13  C   UNL     1      -8.389   8.322  71.486  1.00  0.00    -0.138 A  
HETATM   14  N   UNL     1      -8.827   7.117  71.122  1.00  0.00    -0.143 NA 
HETATM   15  C   UNL     1      -8.887   6.968  69.790  1.00  0.00    -0.142 A  
HETATM   16  C   UNL     1      -8.532   7.961  68.891  1.00  0.00    -0.128 A  
HETATM   17  N   UNL     1      -8.620   7.342  67.667  1.00  0.00    -0.126 NA 
HETATM   18  H   UNL     1      -8.374   7.752  66.766  1.00  0.00     0.000 HD 
HETATM   19  C   UNL     1      -9.097   6.072  67.875  1.00  0.00    -0.117 A  
HETATM   20  N   UNL     1      -9.256   5.816  69.153  1.00  0.00    -0.119 NA 
ENDBRANCH  10  11
ENDBRANCH   6  10
TORSDOF 2
ENDMDL
MODEL      325
REMARK 921   NORMALIZED FREE ENERGY PREDICTED BY IDOCK:   -2.83 KCAL/MOL
REMARK 922        TOTAL FREE ENERGY PREDICTED BY IDOCK:   -3.48 KCAL/MOL
REMARK 923 INTER-LIGAND FREE ENERGY PREDICTED BY IDOCK:   -3.13 KCAL/MOL
REMARK 924 INTRA-LIGAND FREE ENERGY PREDICTED BY IDOCK:   -0.36 KCAL/MOL
REMARK 927      BINDING AFFINITY PREDICTED BY RF-SCORE:    0.00 PKD
ROOT
HETATM    1  C   UNL     1      -9.846   4.594  68.076  1.00  0.00    -0.113 C  
HETATM    2  N   UNL     1     -10.099   5.871  68.699  1.00  0.00    -0.154 NA 
HETATM    3  C   UNL     1     -11.138   6.024  69.588  1.00  0.00    -0.404 A  
HETATM    4  N   UNL     1     -11.160   7.221  70.113  1.00  0.00    -0.266 NA 
HETATM    5  C   UNL     1     -10.076   7.873  69.556  1.00  0.00    -0.195 A  
HETATM    6  C   UNL     1      -9.399   7.059  68.641  1.00  0.00    -0.136 A  
HETATM    7  N   UNL     1      -9.765   9.209  70.032  1.00  0.00    -0.183 N  
HETATM    8  O   UNL     1     -10.441   9.657  70.966  1.00  0.00    -0.304 OA 
HETATM    9  O   UNL     1      -8.836   9.816  69.475  1.00  0.00    -0.163 OA 
ENDROOT
BRANCH   6  10
HETATM   10  S   UNL     1      -7.866   7.317  67.833  1.00  0.00    -0.119 SA 
BRANCH  10  11
HETATM   11  C   UNL     1      -8.099   7.221  66.078  1.00  0.00    -0.121 A  
HETATM   12  N   UNL     1      -8.046   6.029  65.441  1.00  0.00    -0.125 NA 
HETATM   13  C   UNL     1      -8.002   6.016  64.091  1.00  0.00    -0.119 A  
HETATM   14  N   UNL     1      -8.047   7.055  63.257  1.00  0.00    -0.062 NA 
HETATM   15  C   UNL     1      -8.085   8.233  63.898  1.00  0.00    -0.124 A  
HETATM   16  C   UNL     1      -8.080   8.355  65.279  1.00  0.00    -0.140 A  
HETATM   17  N   UNL     1      -7.994   9.710  65.488  1.00  0.00    -0.112 NA 
HETATM   18  H   UNL     1      -7.910  10.175  66.392  1.00  0.00     0.000 HD 
HETATM   19  C   UNL     1      -8.043  10.326  64.262  1.00  0.00    -0.143 A  
HETATM   20  N   UNL     1      -8.086   9.453  63.282  1.00  0.00    -0.141 NA 
ENDBRANCH  10  11
ENDBRANCH   6  10
TORSDOF 2
ENDMDL
MODEL      326
REMARK 921   NORMALIZED FREE ENERGY PREDICTED BY IDOCK:   -2.83 KCAL/MOL
REMARK 922        TOTAL FREE ENERGY PREDICTED BY IDOCK:   -3.47 KCAL/MOL
REMARK 923 INTER-LIGAND FREE ENERGY PREDICTED BY IDOCK:   -3.17 KCAL/MOL
REMARK 924 INTRA-LIGAND FREE ENERGY PREDICTED BY IDOCK:   -0.31 KCAL/MOL
REMARK 927      BINDING AFFINITY PREDICTED BY RF-SCORE:    0.00 PKD
ROOT
HETATM    1  C   UNL     1      -8.547   8.266  65.458  1.00  0.00    -0.159 C  
HETATM    2  N   UNL     1      -8.965   8.670  66.778  1.00  0.00    -0.135 NA 
HETATM    3  C   UNL     1      -8.498   9.839  67.335  1.00  0.00    -0.121 A  
HETATM    4  N   UNL     1      -9.051  10.083  68.494  1.00  0.00    -0.124 NA 
HETATM    5  C   UNL     1      -9.930   9.036  68.697  1.00  0.00    -0.172 A  
HETATM    6  C   UNL     1      -9.884   8.113  67.645  1.00  0.00    -0.169 A  
HETATM    7  N   UNL     1     -10.786   9.081  69.868  1.00  0.00    -0.227 N  
HETATM    8  O   UNL     1     -10.735  10.093  70.578  1.00  0.00    -0.298 OA 
HETATM    9  O   UNL     1     -11.520   8.102  70.082  1.00  0.00    -0.153 OA 
ENDROOT
BRANCH   6  10
HETATM   10  S   UNL     1     -10.927   6.747  67.308  1.00  0.00    -0.327 SA 
BRANCH  10  11
HETATM   11  C   UNL     1     -10.337   5.323  68.184  1.00  0.00    -0.114 A  
HETATM   12  N   UNL     1     -10.459   5.242  69.528  1.00  0.00    -0.270 NA 
HETATM   13  C   UNL     1      -9.804   4.258  70.182  1.00  0.00    -0.201 A  
HETATM   14  N   UNL     1      -9.052   3.286  69.664  1.00  0.00    -0.120 NA 
HETATM   15  C   UNL     1      -8.926   3.383  68.332  1.00  0.00    -0.135 A  
HETATM   16  C   UNL     1      -9.514   4.385  67.576  1.00  0.00    -0.166 A  
HETATM   17  N   UNL     1      -9.020   4.175  66.312  1.00  0.00    -0.118 NA 
HETATM   18  H   UNL     1      -9.192   4.760  65.494  1.00  0.00     0.000 HD 
HETATM   19  C   UNL     1      -8.254   3.038  66.346  1.00  0.00    -0.087 A  
HETATM   20  N   UNL     1      -8.171   2.545  67.561  1.00  0.00    -0.069 NA 
ENDBRANCH  10  11
ENDBRANCH   6  10
TORSDOF 2
ENDMDL
MODEL      327
REMARK 921   NORMALIZED FREE ENERGY PREDICTED BY IDOCK:   -2.73 KCAL/MOL
REMARK 922        TOTAL FREE ENERGY PREDICTED BY IDOCK:   -3.37 KCAL/MOL
REMARK 923 INTER-LIGAND FREE ENERGY PREDICTED BY IDOCK:   -2.68 KCAL/MOL
REMARK 924 INTRA-LIGAND FREE ENERGY PREDICTED BY IDOCK:   -0.70 KCAL/MOL
REMARK 927      BINDING AFFINITY PREDICTED BY RF-SCORE:    0.00 PKD
ROOT
HETATM    1  C   UNL     1      -6.834  11.485  67.836  1.00  0.00    -0.073 C  
HETATM    2  N   UNL     1      -7.092  10.370  66.958  1.00  0.00    -0.089 NA 
HETATM    3  C   UNL     1      -7.226  10.563  65.602  1.00  0.00    -0.124 A  
HETATM    4  N   UNL     1      -7.369   9.433  64.959  1.00  0.00    -0.102 NA 
HETATM    5  C   UNL     1      -7.309   8.458  65.938  1.00  0.00    -0.073 A  
HETATM    6  C   UNL     1      -7.159   9.015  67.213  1.00  0.00    -0.079 A  
HETATM    7  N   UNL     1      -7.328   7.069  65.518  1.00  0.00    -0.076 N  
HETATM    8  O   UNL     1      -7.319   6.836  64.303  1.00  0.00    -0.074 OA 
HETATM    9  O   UNL     1      -7.347   6.200  66.405  1.00  0.00    -0.081 OA 
ENDROOT
BRANCH   6  10
HETATM   10  S   UNL     1      -6.820   8.233  68.743  1.00  0.00    -0.063 SA 
BRANCH  10  11
HETATM   11  C   UNL     1      -8.288   8.222  69.738  1.00  0.00    -0.123 A  
HETATM   12  N   UNL     1      -8.263   8.686  71.007  1.00  0.00    -0.135 NA 
HETATM   13  C   UNL     1      -9.331   8.457  71.804  1.00  0.00    -0.226 A  
HETATM   14  N   UNL     1     -10.473   7.846  71.491  1.00  0.00    -0.207 NA 
HETATM   15  C   UNL     1     -10.483   7.376  70.234  1.00  0.00    -0.221 A  
HETATM   16  C   UNL     1      -9.419   7.514  69.356  1.00  0.00    -0.155 A  
HETATM   17  N   UNL     1      -9.805   6.786  68.257  1.00  0.00    -0.140 NA 
HETATM   18  H   UNL     1      -9.244   6.612  67.423  1.00  0.00     0.000 HD 
HETATM   19  C   UNL     1     -11.082   6.335  68.481  1.00  0.00    -0.308 A  
HETATM   20  N   UNL     1     -11.511   6.669  69.677  1.00  0.00    -0.328 NA 
ENDBRANCH  10  11
ENDBRANCH   6  10
TORSDOF 2
ENDMDL
MODEL      328
REMARK 921   NORMALIZED FREE ENERGY PREDICTED BY IDOCK:   -2.67 KCAL/MOL
REMARK 922        TOTAL FREE ENERGY PREDICTED BY IDOCK:   -3.30 KCAL/MOL
REMARK 923 INTER-LIGAND FREE ENERGY PREDICTED BY IDOCK:   -2.88 KCAL/MOL
REMARK 924 INTRA-LIGAND FREE ENERGY PREDICTED BY IDOCK:   -0.42 KCAL/MOL
REMARK 927      BINDING AFFINITY PREDICTED BY RF-SCORE:    0.00 PKD
ROOT
HETATM    1  C   UNL     1      -6.186   7.808  67.937  1.00  0.00    -0.050 C  
HETATM    2  N   UNL     1      -6.674   6.451  67.906  1.00  0.00    -0.062 NA 
HETATM    3  C   UNL     1      -5.800   5.390  67.982  1.00  0.00    -0.017 A  
HETATM    4  N   UNL     1      -6.427   4.244  68.026  1.00  0.00    -0.037 NA 
HETATM    5  C   UNL     1      -7.769   4.571  67.996  1.00  0.00    -0.081 A  
HETATM    6  C   UNL     1      -7.961   5.953  67.896  1.00  0.00    -0.105 A  
HETATM    7  N   UNL     1      -8.736   3.498  68.144  1.00  0.00    -0.099 N  
HETATM    8  O   UNL     1      -8.302   2.361  68.368  1.00  0.00    -0.056 OA 
HETATM    9  O   UNL     1      -9.939   3.789  68.043  1.00  0.00    -0.019 OA 
ENDROOT
BRANCH   6  10
HETATM   10  S   UNL     1      -9.434   6.892  68.034  1.00  0.00    -0.123 SA 
BRANCH  10  11
HETATM   11  C   UNL     1      -9.540   7.589  69.661  1.00  0.00    -0.159 A  
HETATM   12  N   UNL     1      -8.895   7.013  70.700  1.00  0.00    -0.149 NA 
HETATM   13  C   UNL     1      -9.176   7.433  71.953  1.00  0.00    -0.133 A  
HETATM   14  N   UNL     1     -10.006   8.407  72.326  1.00  0.00    -0.291 NA 
HETATM   15  C   UNL     1     -10.652   8.963  71.289  1.00  0.00    -0.281 A  
HETATM   16  C   UNL     1     -10.473   8.568  69.973  1.00  0.00    -0.223 A  
HETATM   17  N   UNL     1     -11.409   9.297  69.281  1.00  0.00    -0.431 NA 
HETATM   18  H   UNL     1     -11.610   9.226  68.284  1.00  0.00     0.000 HD 
HETATM   19  C   UNL     1     -12.026  10.138  70.173  1.00  0.00    -0.185 A  
HETATM   20  N   UNL     1     -11.593   9.948  71.399  1.00  0.00    -0.375 NA 
ENDBRANCH  10  11
ENDBRANCH   6  10
TORSDOF 2
ENDMDL
MODEL      329
REMARK 921   NORMALIZED FREE ENERGY PREDICTED BY IDOCK:   -2.66 KCAL/MOL
REMARK 922        TOTAL FREE ENERGY PREDICTED BY IDOCK:   -3.29 KCAL/MOL
REMARK 923 INTER-LIGAND FREE ENERGY PREDICTED BY IDOCK:   -2.54 KCAL/MOL
REMARK 924 INTRA-LIGAND FREE ENERGY PREDICTED BY IDOCK:   -0.75 KCAL/MOL
REMARK 927      BINDING AFFINITY PREDICTED BY RF-SCORE:    0.00 PKD
ROOT
HETATM    1  C   UNL     1      -7.137   3.107  67.338  1.00  0.00    -0.054 C  
HETATM    2  N   UNL     1      -7.756   3.372  68.614  1.00  0.00    -0.055 NA 
HETATM    3  C   UNL     1      -7.118   3.038  69.786  1.00  0.00    -0.041 A  
HETATM    4  N   UNL     1      -7.789   3.430  70.837  1.00  0.00    -0.046 NA 
HETATM    5  C   UNL     1      -8.907   4.065  70.328  1.00  0.00    -0.086 A  
HETATM    6  C   UNL     1      -8.930   4.025  68.930  1.00  0.00    -0.116 A  
HETATM    7  N   UNL     1      -9.807   4.715  71.263  1.00  0.00    -0.181 N  
HETATM    8  O   UNL     1      -9.481   4.732  72.457  1.00  0.00    -0.133 OA 
HETATM    9  O   UNL     1     -10.845   5.219  70.806  1.00  0.00    -0.181 OA 
ENDROOT
BRANCH   6  10
HETATM   10  S   UNL     1      -9.990   4.850  67.804  1.00  0.00    -0.100 SA 
BRANCH  10  11
HETATM   11  C   UNL     1      -9.410   6.506  67.550  1.00  0.00    -0.122 A  
HETATM   12  N   UNL     1      -8.336   6.746  66.765  1.00  0.00    -0.113 NA 
HETATM   13  C   UNL     1      -7.788   7.981  66.774  1.00  0.00    -0.103 A  
HETATM   14  N   UNL     1      -8.197   9.057  67.446  1.00  0.00    -0.108 NA 
HETATM   15  C   UNL     1      -9.255   8.805  68.233  1.00  0.00    -0.140 A  
HETATM   16  C   UNL     1      -9.856   7.560  68.334  1.00  0.00    -0.164 A  
HETATM   17  N   UNL     1     -10.789   7.727  69.329  1.00  0.00    -0.400 NA 
HETATM   18  H   UNL     1     -11.389   7.000  69.719  1.00  0.00     0.000 HD 
HETATM   19  C   UNL     1     -10.769   9.047  69.703  1.00  0.00    -0.219 A  
HETATM   20  N   UNL     1      -9.840   9.719  69.063  1.00  0.00    -0.173 NA 
ENDBRANCH  10  11
ENDBRANCH   6  10
TORSDOF 2
ENDMDL
MODEL      330
REMARK 921   NORMALIZED FREE ENERGY PREDICTED BY IDOCK:   -2.62 KCAL/MOL
REMARK 922        TOTAL FREE ENERGY PREDICTED BY IDOCK:   -3.25 KCAL/MOL
REMARK 923 INTER-LIGAND FREE ENERGY PREDICTED BY IDOCK:   -2.52 KCAL/MOL
REMARK 924 INTRA-LIGAND FREE ENERGY PREDICTED BY IDOCK:   -0.73 KCAL/MOL
REMARK 927      BINDING AFFINITY PREDICTED BY RF-SCORE:    0.00 PKD
ROOT
HETATM    1  C   UNL     1      -7.815   5.194  64.536  1.00  0.00    -0.096 C  
HETATM    2  N   UNL     1      -7.545   6.486  63.952  1.00  0.00    -0.097 NA 
HETATM    3  C   UNL     1      -7.920   6.762  62.657  1.00  0.00    -0.100 A  
HETATM    4  N   UNL     1      -7.673   8.004  62.332  1.00  0.00    -0.114 NA 
HETATM    5  C   UNL     1      -7.128   8.568  63.470  1.00  0.00    -0.090 A  
HETATM    6  C   UNL     1      -7.011   7.633  64.504  1.00  0.00    -0.056 A  
HETATM    7  N   UNL     1      -6.846   9.992  63.457  1.00  0.00    -0.131 N  
HETATM    8  O   UNL     1      -7.180  10.634  62.454  1.00  0.00    -0.145 OA 
HETATM    9  O   UNL     1      -6.289  10.477  64.455  1.00  0.00    -0.093 OA 
ENDROOT
BRANCH   6  10
HETATM   10  S   UNL     1      -6.593   7.872  66.188  1.00  0.00    -0.050 SA 
BRANCH  10  11
HETATM   11  C   UNL     1      -8.075   8.027  67.149  1.00  0.00    -0.117 A  
HETATM   12  N   UNL     1      -8.525   6.991  67.892  1.00  0.00    -0.124 NA 
HETATM   13  C   UNL     1      -9.764   7.066  68.426  1.00  0.00    -0.139 A  
HETATM   14  N   UNL     1     -10.629   8.076  68.357  1.00  0.00    -0.152 NA 
HETATM   15  C   UNL     1     -10.179   9.094  67.607  1.00  0.00    -0.236 A  
HETATM   16  C   UNL     1      -8.947   9.092  66.973  1.00  0.00    -0.123 A  
HETATM   17  N   UNL     1      -8.960  10.246  66.227  1.00  0.00    -0.150 NA 
HETATM   18  H   UNL     1      -8.234  10.552  65.580  1.00  0.00     0.000 HD 
HETATM   19  C   UNL     1     -10.126  10.912  66.509  1.00  0.00    -0.222 A  
HETATM   20  N   UNL     1     -10.888  10.230  67.334  1.00  0.00    -0.288 NA 
ENDBRANCH  10  11
ENDBRANCH   6  10
TORSDOF 2
ENDMDL
MODEL      331
REMARK 921   NORMALIZED FREE ENERGY PREDICTED BY IDOCK:   -2.59 KCAL/MOL
REMARK 922        TOTAL FREE ENERGY PREDICTED BY IDOCK:   -3.21 KCAL/MOL
REMARK 923 INTER-LIGAND FREE ENERGY PREDICTED BY IDOCK:   -2.74 KCAL/MOL
REMARK 924 INTRA-LIGAND FREE ENERGY PREDICTED BY IDOCK:   -0.46 KCAL/MOL
REMARK 927      BINDING AFFINITY PREDICTED BY RF-SCORE:    0.00 PKD
ROOT
HETATM    1  C   UNL     1      -7.953   2.871  65.881  1.00  0.00    -0.082 C  
HETATM    2  N   UNL     1      -8.430   3.139  67.216  1.00  0.00    -0.092 NA 
HETATM    3  C   UNL     1      -7.776   2.623  68.311  1.00  0.00    -0.055 A  
HETATM    4  N   UNL     1      -8.297   3.041  69.434  1.00  0.00    -0.058 NA 
HETATM    5  C   UNL     1      -9.328   3.882  69.056  1.00  0.00    -0.169 A  
HETATM    6  C   UNL     1      -9.455   3.948  67.664  1.00  0.00    -0.185 A  
HETATM    7  N   UNL     1     -10.040   4.599  70.098  1.00  0.00    -0.244 N  
HETATM    8  O   UNL     1      -9.633   4.477  71.260  1.00  0.00    -0.151 OA 
HETATM    9  O   UNL     1     -11.010   5.295  69.756  1.00  0.00    -0.149 OA 
ENDROOT
BRANCH   6  10
HETATM   10  S   UNL     1     -10.440   5.010  66.679  1.00  0.00    -0.192 SA 
BRANCH  10  11
HETATM   11  C   UNL     1      -9.851   6.675  66.835  1.00  0.00    -0.171 A  
HETATM   12  N   UNL     1     -10.606   7.619  67.440  1.00  0.00    -0.289 NA 
HETATM   13  C   UNL     1     -10.230   8.913  67.343  1.00  0.00    -0.249 A  
HETATM   14  N   UNL     1      -9.150   9.412  66.742  1.00  0.00    -0.137 NA 
HETATM   15  C   UNL     1      -8.414   8.470  66.132  1.00  0.00    -0.132 A  
HETATM   16  C   UNL     1      -8.743   7.123  66.129  1.00  0.00    -0.151 A  
HETATM   17  N   UNL     1      -7.808   6.560  65.294  1.00  0.00    -0.102 NA 
HETATM   18  H   UNL     1      -7.771   5.582  65.005  1.00  0.00     0.000 HD 
HETATM   19  C   UNL     1      -6.933   7.548  64.919  1.00  0.00    -0.055 A  
HETATM   20  N   UNL     1      -7.285   8.717  65.404  1.00  0.00    -0.083 NA 
ENDBRANCH  10  11
ENDBRANCH   6  10
TORSDOF 2
ENDMDL
MODEL      332
REMARK 921   NORMALIZED FREE ENERGY PREDICTED BY IDOCK:   -2.57 KCAL/MOL
REMARK 922        TOTAL FREE ENERGY PREDICTED BY IDOCK:   -3.19 KCAL/MOL
REMARK 923 INTER-LIGAND FREE ENERGY PREDICTED BY IDOCK:   -3.26 KCAL/MOL
REMARK 924 INTRA-LIGAND FREE ENERGY PREDICTED BY IDOCK:    0.07 KCAL/MOL
REMARK 927      BINDING AFFINITY PREDICTED BY RF-SCORE:    0.00 PKD
ROOT
HETATM    1  C   UNL     1      -8.405   9.007  69.583  1.00  0.00    -0.125 C  
HETATM    2  N   UNL     1      -7.900   8.035  68.644  1.00  0.00    -0.116 NA 
HETATM    3  C   UNL     1      -6.749   8.281  67.931  1.00  0.00    -0.065 A  
HETATM    4  N   UNL     1      -6.399   7.257  67.199  1.00  0.00    -0.049 NA 
HETATM    5  C   UNL     1      -7.355   6.292  67.458  1.00  0.00    -0.080 A  
HETATM    6  C   UNL     1      -8.330   6.758  68.347  1.00  0.00    -0.123 A  
HETATM    7  N   UNL     1      -7.176   4.979  66.865  1.00  0.00    -0.076 N  
HETATM    8  O   UNL     1      -6.138   4.774  66.225  1.00  0.00    -0.029 OA 
HETATM    9  O   UNL     1      -8.076   4.141  67.042  1.00  0.00    -0.099 OA 
ENDROOT
BRANCH   6  10
HETATM   10  S   UNL     1      -9.616   5.885  69.155  1.00  0.00    -0.141 SA 
BRANCH  10  11
HETATM   11  C   UNL     1      -9.847   6.547  70.783  1.00  0.00    -0.184 A  
HETATM   12  N   UNL     1      -8.989   6.237  71.781  1.00  0.00    -0.141 NA 
HETATM   13  C   UNL     1      -9.317   6.572  73.048  1.00  0.00    -0.135 A  
HETATM   14  N   UNL     1     -10.395   7.230  73.471  1.00  0.00    -0.354 NA 
HETATM   15  C   UNL     1     -11.248   7.522  72.476  1.00  0.00    -0.331 A  
HETATM   16  C   UNL     1     -11.028   7.176  71.152  1.00  0.00    -0.248 A  
HETATM   17  N   UNL     1     -12.191   7.544  70.519  1.00  0.00    -0.525 NA 
HETATM   18  H   UNL     1     -12.416   7.389  69.537  1.00  0.00     0.000 HD 
HETATM   19  C   UNL     1     -12.994   8.159  71.447  1.00  0.00    -0.242 A  
HETATM   20  N   UNL     1     -12.451   8.149  72.643  1.00  0.00    -0.203 NA 
ENDBRANCH  10  11
ENDBRANCH   6  10
TORSDOF 2
ENDMDL
MODEL      333
REMARK 921   NORMALIZED FREE ENERGY PREDICTED BY IDOCK:   -2.46 KCAL/MOL
REMARK 922        TOTAL FREE ENERGY PREDICTED BY IDOCK:   -3.07 KCAL/MOL
REMARK 923 INTER-LIGAND FREE ENERGY PREDICTED BY IDOCK:   -2.79 KCAL/MOL
REMARK 924 INTRA-LIGAND FREE ENERGY PREDICTED BY IDOCK:   -0.28 KCAL/MOL
REMARK 927      BINDING AFFINITY PREDICTED BY RF-SCORE:    0.00 PKD
ROOT
HETATM    1  C   UNL     1     -10.806   7.756  69.037  1.00  0.00    -0.021 C  
HETATM    2  N   UNL     1     -10.903   7.136  70.336  1.00  0.00    -0.239 NA 
HETATM    3  C   UNL     1     -12.116   7.040  70.978  1.00  0.00    -0.368 A  
HETATM    4  N   UNL     1     -12.024   6.374  72.099  1.00  0.00    -0.323 NA 
HETATM    5  C   UNL     1     -10.695   6.004  72.185  1.00  0.00    -0.226 A  
HETATM    6  C   UNL     1      -9.954   6.489  71.101  1.00  0.00    -0.182 A  
HETATM    7  N   UNL     1     -10.296   5.146  73.285  1.00  0.00    -0.188 N  
HETATM    8  O   UNL     1     -11.183   4.730  74.040  1.00  0.00    -0.273 OA 
HETATM    9  O   UNL     1      -9.088   4.878  73.396  1.00  0.00    -0.118 OA 
ENDROOT
BRANCH   6  10
HETATM   10  S   UNL     1      -8.307   6.132  70.623  1.00  0.00    -0.127 SA 
BRANCH  10  11
HETATM   11  C   UNL     1      -7.512   7.623  70.084  1.00  0.00    -0.084 A  
HETATM   12  N   UNL     1      -7.354   8.664  70.932  1.00  0.00    -0.067 NA 
HETATM   13  C   UNL     1      -6.953   9.853  70.433  1.00  0.00    -0.141 A  
HETATM   14  N   UNL     1      -6.638  10.151  69.173  1.00  0.00    -0.052 NA 
HETATM   15  C   UNL     1      -6.811   9.116  68.336  1.00  0.00    -0.064 A  
HETATM   16  C   UNL     1      -7.268   7.872  68.741  1.00  0.00    -0.081 A  
HETATM   17  N   UNL     1      -7.417   7.179  67.564  1.00  0.00    -0.098 NA 
HETATM   18  H   UNL     1      -7.792   6.235  67.465  1.00  0.00     0.000 HD 
HETATM   19  C   UNL     1      -6.969   7.983  66.546  1.00  0.00    -0.071 A  
HETATM   20  N   UNL     1      -6.608   9.166  66.986  1.00  0.00    -0.064 NA 
ENDBRANCH  10  11
ENDBRANCH   6  10
TORSDOF 2
ENDMDL
MODEL      334
REMARK 921   NORMALIZED FREE ENERGY PREDICTED BY IDOCK:   -2.45 KCAL/MOL
REMARK 922        TOTAL FREE ENERGY PREDICTED BY IDOCK:   -3.06 KCAL/MOL
REMARK 923 INTER-LIGAND FREE ENERGY PREDICTED BY IDOCK:   -2.30 KCAL/MOL
REMARK 924 INTRA-LIGAND FREE ENERGY PREDICTED BY IDOCK:   -0.76 KCAL/MOL
REMARK 927      BINDING AFFINITY PREDICTED BY RF-SCORE:    0.00 PKD
ROOT
HETATM    1  C   UNL     1      -6.750   2.029  64.884  1.00  0.00    -0.027 C  
HETATM    2  N   UNL     1      -7.685   2.667  65.780  1.00  0.00    -0.076 NA 
HETATM    3  C   UNL     1      -7.594   2.477  67.139  1.00  0.00    -0.065 A  
HETATM    4  N   UNL     1      -8.466   3.199  67.793  1.00  0.00    -0.085 NA 
HETATM    5  C   UNL     1      -9.146   3.904  66.818  1.00  0.00    -0.150 A  
HETATM    6  C   UNL     1      -8.696   3.574  65.535  1.00  0.00    -0.122 A  
HETATM    7  N   UNL     1     -10.122   4.890  67.245  1.00  0.00    -0.183 N  
HETATM    8  O   UNL     1     -10.234   5.098  68.459  1.00  0.00    -0.164 OA 
HETATM    9  O   UNL     1     -10.781   5.466  66.364  1.00  0.00    -0.297 OA 
ENDROOT
BRANCH   6  10
HETATM   10  S   UNL     1      -9.064   4.320  63.993  1.00  0.00    -0.142 SA 
BRANCH  10  11
HETATM   11  C   UNL     1      -7.946   5.666  63.706  1.00  0.00    -0.120 A  
HETATM   12  N   UNL     1      -6.784   5.467  63.045  1.00  0.00    -0.026 NA 
HETATM   13  C   UNL     1      -5.861   6.454  63.041  1.00  0.00    -0.026 A  
HETATM   14  N   UNL     1      -5.953   7.666  63.586  1.00  0.00    -0.052 NA 
HETATM   15  C   UNL     1      -7.104   7.850  64.251  1.00  0.00    -0.074 A  
HETATM   16  C   UNL     1      -8.090   6.883  64.358  1.00  0.00    -0.052 A  
HETATM   17  N   UNL     1      -9.006   7.441  65.217  1.00  0.00    -0.360 NA 
HETATM   18  H   UNL     1      -9.847   6.990  65.576  1.00  0.00     0.000 HD 
HETATM   19  C   UNL     1      -8.585   8.716  65.504  1.00  0.00    -0.175 A  
HETATM   20  N   UNL     1      -7.430   8.984  64.941  1.00  0.00    -0.102 NA 
ENDBRANCH  10  11
ENDBRANCH   6  10
TORSDOF 2
ENDMDL
MODEL      335
REMARK 921   NORMALIZED FREE ENERGY PREDICTED BY IDOCK:   -2.42 KCAL/MOL
REMARK 922        TOTAL FREE ENERGY PREDICTED BY IDOCK:   -3.02 KCAL/MOL
REMARK 923 INTER-LIGAND FREE ENERGY PREDICTED BY IDOCK:   -2.81 KCAL/MOL
REMARK 924 INTRA-LIGAND FREE ENERGY PREDICTED BY IDOCK:   -0.21 KCAL/MOL
REMARK 927      BINDING AFFINITY PREDICTED BY RF-SCORE:    0.00 PKD
ROOT
HETATM    1  C   UNL     1     -10.493   8.246  68.460  1.00  0.00    -0.162 C  
HETATM    2  N   UNL     1     -10.424   8.071  69.891  1.00  0.00    -0.229 NA 
HETATM    3  C   UNL     1     -11.270   8.767  70.724  1.00  0.00    -0.266 A  
HETATM    4  N   UNL     1     -11.122   8.417  71.974  1.00  0.00    -0.303 NA 
HETATM    5  C   UNL     1     -10.148   7.436  71.956  1.00  0.00    -0.182 A  
HETATM    6  C   UNL     1      -9.668   7.210  70.660  1.00  0.00    -0.175 A  
HETATM    7  N   UNL     1      -9.835   6.762  73.202  1.00  0.00    -0.168 N  
HETATM    8  O   UNL     1     -10.514   7.049  74.196  1.00  0.00    -0.335 OA 
HETATM    9  O   UNL     1      -8.909   5.934  73.192  1.00  0.00    -0.123 OA 
ENDROOT
BRANCH   6  10
HETATM   10  S   UNL     1      -8.607   5.950  70.064  1.00  0.00    -0.131 SA 
BRANCH  10  11
HETATM   11  C   UNL     1      -7.580   6.604  68.775  1.00  0.00    -0.104 A  
HETATM   12  N   UNL     1      -6.754   7.648  69.015  1.00  0.00    -0.048 NA 
HETATM   13  C   UNL     1      -6.160   8.260  67.967  1.00  0.00    -0.047 A  
HETATM   14  N   UNL     1      -6.243   7.944  66.675  1.00  0.00    -0.048 NA 
HETATM   15  C   UNL     1      -7.076   6.916  66.445  1.00  0.00    -0.074 A  
HETATM   16  C   UNL     1      -7.772   6.256  67.445  1.00  0.00    -0.097 A  
HETATM   17  N   UNL     1      -8.584   5.385  66.759  1.00  0.00    -0.110 NA 
HETATM   18  H   UNL     1      -9.285   4.768  67.168  1.00  0.00     0.000 HD 
HETATM   19  C   UNL     1      -8.280   5.494  65.425  1.00  0.00    -0.133 A  
HETATM   20  N   UNL     1      -7.378   6.423  65.207  1.00  0.00    -0.074 NA 
ENDBRANCH  10  11
ENDBRANCH   6  10
TORSDOF 2
ENDMDL
MODEL      336
REMARK 921   NORMALIZED FREE ENERGY PREDICTED BY IDOCK:   -2.42 KCAL/MOL
REMARK 922        TOTAL FREE ENERGY PREDICTED BY IDOCK:   -3.02 KCAL/MOL
REMARK 923 INTER-LIGAND FREE ENERGY PREDICTED BY IDOCK:   -2.57 KCAL/MOL
REMARK 924 INTRA-LIGAND FREE ENERGY PREDICTED BY IDOCK:   -0.45 KCAL/MOL
REMARK 927      BINDING AFFINITY PREDICTED BY RF-SCORE:    0.00 PKD
ROOT
HETATM    1  C   UNL     1      -8.157   4.909  64.277  1.00  0.00    -0.115 C  
HETATM    2  N   UNL     1      -7.797   6.236  63.838  1.00  0.00    -0.110 NA 
HETATM    3  C   UNL     1      -8.027   6.632  62.541  1.00  0.00    -0.102 A  
HETATM    4  N   UNL     1      -7.718   7.888  62.351  1.00  0.00    -0.114 NA 
HETATM    5  C   UNL     1      -7.281   8.336  63.583  1.00  0.00    -0.093 A  
HETATM    6  C   UNL     1      -7.294   7.314  64.539  1.00  0.00    -0.080 A  
HETATM    7  N   UNL     1      -6.963   9.746  63.722  1.00  0.00    -0.114 N  
HETATM    8  O   UNL     1      -7.176  10.481  62.750  1.00  0.00    -0.139 OA 
HETATM    9  O   UNL     1      -6.502  10.127  64.811  1.00  0.00    -0.121 OA 
ENDROOT
BRANCH   6  10
HETATM   10  S   UNL     1      -7.048   7.397  66.271  1.00  0.00    -0.071 SA 
BRANCH  10  11
HETATM   11  C   UNL     1      -8.559   7.882  67.060  1.00  0.00    -0.128 A  
HETATM   12  N   UNL     1      -9.385   8.779  66.475  1.00  0.00    -0.186 NA 
HETATM   13  C   UNL     1     -10.405   9.291  67.199  1.00  0.00    -0.260 A  
HETATM   14  N   UNL     1     -10.754   8.996  68.450  1.00  0.00    -0.149 NA 
HETATM   15  C   UNL     1      -9.921   8.115  69.027  1.00  0.00    -0.189 A  
HETATM   16  C   UNL     1      -8.818   7.572  68.388  1.00  0.00    -0.126 A  
HETATM   17  N   UNL     1      -8.194   6.845  69.373  1.00  0.00    -0.130 NA 
HETATM   18  H   UNL     1      -7.308   6.347  69.283  1.00  0.00     0.000 HD 
HETATM   19  C   UNL     1      -8.977   6.908  70.498  1.00  0.00    -0.155 A  
HETATM   20  N   UNL     1     -10.023   7.681  70.318  1.00  0.00    -0.188 NA 
ENDBRANCH  10  11
ENDBRANCH   6  10
TORSDOF 2
ENDMDL
MODEL      337
REMARK 921   NORMALIZED FREE ENERGY PREDICTED BY IDOCK:   -2.41 KCAL/MOL
REMARK 922        TOTAL FREE ENERGY PREDICTED BY IDOCK:   -3.01 KCAL/MOL
REMARK 923 INTER-LIGAND FREE ENERGY PREDICTED BY IDOCK:   -2.65 KCAL/MOL
REMARK 924 INTRA-LIGAND FREE ENERGY PREDICTED BY IDOCK:   -0.36 KCAL/MOL
REMARK 927      BINDING AFFINITY PREDICTED BY RF-SCORE:    0.00 PKD
ROOT
HETATM    1  C   UNL     1     -11.446   7.709  70.290  1.00  0.00    -0.127 C  
HETATM    2  N   UNL     1     -10.722   7.565  69.051  1.00  0.00    -0.179 NA 
HETATM    3  C   UNL     1     -10.431   8.665  68.276  1.00  0.00    -0.184 A  
HETATM    4  N   UNL     1      -9.698   8.353  67.240  1.00  0.00    -0.169 NA 
HETATM    5  C   UNL     1      -9.487   6.991  67.351  1.00  0.00    -0.133 A  
HETATM    6  C   UNL     1     -10.139   6.458  68.468  1.00  0.00    -0.154 A  
HETATM    7  N   UNL     1      -8.602   6.358  66.390  1.00  0.00    -0.129 N  
HETATM    8  O   UNL     1      -8.026   7.087  65.573  1.00  0.00    -0.114 OA 
HETATM    9  O   UNL     1      -8.476   5.124  66.451  1.00  0.00    -0.112 OA 
ENDROOT
BRANCH   6  10
HETATM   10  S   UNL     1     -10.023   4.858  69.174  1.00  0.00    -0.152 SA 
BRANCH  10  11
HETATM   11  C   UNL     1      -9.161   4.956  70.721  1.00  0.00    -0.145 A  
HETATM   12  N   UNL     1      -7.813   4.876  70.764  1.00  0.00    -0.077 NA 
HETATM   13  C   UNL     1      -7.209   4.728  71.963  1.00  0.00    -0.071 A  
HETATM   14  N   UNL     1      -7.775   4.689  73.169  1.00  0.00    -0.087 NA 
HETATM   15  C   UNL     1      -9.114   4.756  73.115  1.00  0.00    -0.116 A  
HETATM   16  C   UNL     1      -9.830   4.855  71.933  1.00  0.00    -0.184 A  
HETATM   17  N   UNL     1     -11.141   4.762  72.334  1.00  0.00    -0.055 NA 
HETATM   18  H   UNL     1     -11.957   4.739  71.722  1.00  0.00     0.000 HD 
HETATM   19  C   UNL     1     -11.155   4.705  73.705  1.00  0.00    -0.300 A  
HETATM   20  N   UNL     1      -9.939   4.688  74.202  1.00  0.00    -0.160 NA 
ENDBRANCH  10  11
ENDBRANCH   6  10
TORSDOF 2
ENDMDL
MODEL      338
REMARK 921   NORMALIZED FREE ENERGY PREDICTED BY IDOCK:   -2.40 KCAL/MOL
REMARK 922        TOTAL FREE ENERGY PREDICTED BY IDOCK:   -3.00 KCAL/MOL
REMARK 923 INTER-LIGAND FREE ENERGY PREDICTED BY IDOCK:   -2.64 KCAL/MOL
REMARK 924 INTRA-LIGAND FREE ENERGY PREDICTED BY IDOCK:   -0.35 KCAL/MOL
REMARK 927      BINDING AFFINITY PREDICTED BY RF-SCORE:    0.00 PKD
ROOT
HETATM    1  C   UNL     1      -7.123   7.763  69.615  1.00  0.00    -0.063 C  
HETATM    2  N   UNL     1      -8.302   7.565  70.422  1.00  0.00    -0.127 NA 
HETATM    3  C   UNL     1      -8.195   7.331  71.774  1.00  0.00    -0.104 A  
HETATM    4  N   UNL     1      -9.366   7.264  72.353  1.00  0.00    -0.137 NA 
HETATM    5  C   UNL     1     -10.277   7.480  71.336  1.00  0.00    -0.186 A  
HETATM    6  C   UNL     1      -9.642   7.650  70.101  1.00  0.00    -0.168 A  
HETATM    7  N   UNL     1     -11.682   7.574  71.689  1.00  0.00    -0.272 N  
HETATM    8  O   UNL     1     -11.977   7.533  72.890  1.00  0.00    -0.117 OA 
HETATM    9  O   UNL     1     -12.500   7.695  70.763  1.00  0.00    -0.148 OA 
ENDROOT
BRANCH   6  10
HETATM   10  S   UNL     1     -10.306   8.155  68.560  1.00  0.00    -0.172 SA 
BRANCH  10  11
HETATM   11  C   UNL     1      -9.775   7.035  67.293  1.00  0.00    -0.149 A  
HETATM   12  N   UNL     1     -10.151   5.737  67.319  1.00  0.00    -0.156 NA 
HETATM   13  C   UNL     1      -9.552   4.870  66.474  1.00  0.00    -0.169 A  
HETATM   14  N   UNL     1      -8.631   5.129  65.547  1.00  0.00    -0.137 NA 
HETATM   15  C   UNL     1      -8.254   6.418  65.537  1.00  0.00    -0.142 A  
HETATM   16  C   UNL     1      -8.769   7.373  66.398  1.00  0.00    -0.142 A  
HETATM   17  N   UNL     1      -8.020   8.493  66.131  1.00  0.00    -0.100 NA 
HETATM   18  H   UNL     1      -8.079   9.387  66.619  1.00  0.00     0.000 HD 
HETATM   19  C   UNL     1      -7.177   8.194  65.090  1.00  0.00    -0.072 A  
HETATM   20  N   UNL     1      -7.291   6.939  64.720  1.00  0.00    -0.082 NA 
ENDBRANCH  10  11
ENDBRANCH   6  10
TORSDOF 2
ENDMDL
MODEL      339
REMARK 921   NORMALIZED FREE ENERGY PREDICTED BY IDOCK:   -2.39 KCAL/MOL
REMARK 922        TOTAL FREE ENERGY PREDICTED BY IDOCK:   -2.99 KCAL/MOL
REMARK 923 INTER-LIGAND FREE ENERGY PREDICTED BY IDOCK:   -2.51 KCAL/MOL
REMARK 924 INTRA-LIGAND FREE ENERGY PREDICTED BY IDOCK:   -0.48 KCAL/MOL
REMARK 927      BINDING AFFINITY PREDICTED BY RF-SCORE:    0.00 PKD
ROOT
HETATM    1  C   UNL     1      -6.844   2.300  64.743  1.00  0.00    -0.046 C  
HETATM    2  N   UNL     1      -7.588   2.622  65.935  1.00  0.00    -0.072 NA 
HETATM    3  C   UNL     1      -7.404   1.900  67.093  1.00  0.00    -0.059 A  
HETATM    4  N   UNL     1      -8.097   2.388  68.088  1.00  0.00    -0.058 NA 
HETATM    5  C   UNL     1      -8.750   3.487  67.562  1.00  0.00    -0.113 A  
HETATM    6  C   UNL     1      -8.471   3.649  66.200  1.00  0.00    -0.111 A  
HETATM    7  N   UNL     1      -9.526   4.316  68.466  1.00  0.00    -0.151 N  
HETATM    8  O   UNL     1      -9.495   4.037  69.671  1.00  0.00    -0.161 OA 
HETATM    9  O   UNL     1     -10.168   5.258  67.974  1.00  0.00    -0.173 OA 
ENDROOT
BRANCH   6  10
HETATM   10  S   UNL     1      -8.862   4.979  65.129  1.00  0.00    -0.139 SA 
BRANCH  10  11
HETATM   11  C   UNL     1      -8.065   6.455  65.703  1.00  0.00    -0.131 A  
HETATM   12  N   UNL     1      -6.725   6.490  65.880  1.00  0.00    -0.047 NA 
HETATM   13  C   UNL     1      -6.183   7.545  66.527  1.00  0.00    -0.045 A  
HETATM   14  N   UNL     1      -6.803   8.625  67.002  1.00  0.00    -0.066 NA 
HETATM   15  C   UNL     1      -8.134   8.575  66.834  1.00  0.00    -0.099 A  
HETATM   16  C   UNL     1      -8.791   7.514  66.231  1.00  0.00    -0.160 A  
HETATM   17  N   UNL     1     -10.121   7.818  66.391  1.00  0.00    -0.481 NA 
HETATM   18  H   UNL     1     -10.909   7.231  66.118  1.00  0.00     0.000 HD 
HETATM   19  C   UNL     1     -10.198   9.054  66.983  1.00  0.00    -0.266 A  
HETATM   20  N   UNL     1      -9.008   9.529  67.272  1.00  0.00    -0.130 NA 
ENDBRANCH  10  11
ENDBRANCH   6  10
TORSDOF 2
ENDMDL
MODEL      340
REMARK 921   NORMALIZED FREE ENERGY PREDICTED BY IDOCK:   -2.36 KCAL/MOL
REMARK 922        TOTAL FREE ENERGY PREDICTED BY IDOCK:   -2.95 KCAL/MOL
REMARK 923 INTER-LIGAND FREE ENERGY PREDICTED BY IDOCK:   -2.54 KCAL/MOL
REMARK 924 INTRA-LIGAND FREE ENERGY PREDICTED BY IDOCK:   -0.41 KCAL/MOL
REMARK 927      BINDING AFFINITY PREDICTED BY RF-SCORE:    0.00 PKD
ROOT
HETATM    1  C   UNL     1      -6.271  11.579  68.428  1.00  0.00    -0.049 C  
HETATM    2  N   UNL     1      -6.739  10.488  67.608  1.00  0.00    -0.072 NA 
HETATM    3  C   UNL     1      -6.912  10.654  66.253  1.00  0.00    -0.133 A  
HETATM    4  N   UNL     1      -7.256   9.539  65.664  1.00  0.00    -0.091 NA 
HETATM    5  C   UNL     1      -7.293   8.599  66.676  1.00  0.00    -0.081 A  
HETATM    6  C   UNL     1      -6.995   9.168  67.920  1.00  0.00    -0.077 A  
HETATM    7  N   UNL     1      -7.543   7.215  66.314  1.00  0.00    -0.089 N  
HETATM    8  O   UNL     1      -7.631   6.944  65.110  1.00  0.00    -0.088 OA 
HETATM    9  O   UNL     1      -7.647   6.389  67.236  1.00  0.00    -0.093 OA 
ENDROOT
BRANCH   6  10
HETATM   10  S   UNL     1      -6.700   8.394  69.464  1.00  0.00    -0.041 SA 
BRANCH  10  11
HETATM   11  C   UNL     1      -8.175   8.456  70.446  1.00  0.00    -0.115 A  
HETATM   12  N   UNL     1      -9.200   9.265  70.099  1.00  0.00    -0.206 NA 
HETATM   13  C   UNL     1     -10.205   9.456  70.982  1.00  0.00    -0.299 A  
HETATM   14  N   UNL     1     -10.357   8.904  72.186  1.00  0.00    -0.312 NA 
HETATM   15  C   UNL     1      -9.328   8.113  72.527  1.00  0.00    -0.260 A  
HETATM   16  C   UNL     1      -8.226   7.895  71.715  1.00  0.00    -0.117 A  
HETATM   17  N   UNL     1      -7.382   7.148  72.501  1.00  0.00    -0.079 NA 
HETATM   18  H   UNL     1      -6.441   6.845  72.253  1.00  0.00     0.000 HD 
HETATM   19  C   UNL     1      -8.034   6.883  73.679  1.00  0.00    -0.100 A  
HETATM   20  N   UNL     1      -9.210   7.466  73.725  1.00  0.00    -0.237 NA 
ENDBRANCH  10  11
ENDBRANCH   6  10
TORSDOF 2
ENDMDL
MODEL      341
REMARK 921   NORMALIZED FREE ENERGY PREDICTED BY IDOCK:   -2.34 KCAL/MOL
REMARK 922        TOTAL FREE ENERGY PREDICTED BY IDOCK:   -2.94 KCAL/MOL
REMARK 923 INTER-LIGAND FREE ENERGY PREDICTED BY IDOCK:   -2.64 KCAL/MOL
REMARK 924 INTRA-LIGAND FREE ENERGY PREDICTED BY IDOCK:   -0.30 KCAL/MOL
REMARK 927      BINDING AFFINITY PREDICTED BY RF-SCORE:    0.00 PKD
ROOT
HETATM    1  C   UNL     1     -11.173   7.756  70.662  1.00  0.00    -0.268 C  
HETATM    2  N   UNL     1     -10.696   7.769  69.301  1.00  0.00    -0.190 NA 
HETATM    3  C   UNL     1     -10.533   8.957  68.626  1.00  0.00    -0.193 A  
HETATM    4  N   UNL     1     -10.013   8.778  67.440  1.00  0.00    -0.190 NA 
HETATM    5  C   UNL     1      -9.811   7.414  67.342  1.00  0.00    -0.169 A  
HETATM    6  C   UNL     1     -10.253   6.744  68.489  1.00  0.00    -0.175 A  
HETATM    7  N   UNL     1      -9.134   6.908  66.163  1.00  0.00    -0.145 N  
HETATM    8  O   UNL     1      -8.706   7.734  65.348  1.00  0.00    -0.121 OA 
HETATM    9  O   UNL     1      -9.022   5.676  66.049  1.00  0.00    -0.147 OA 
ENDROOT
BRANCH   6  10
HETATM   10  S   UNL     1     -10.039   5.071  68.960  1.00  0.00    -0.129 SA 
BRANCH  10  11
HETATM   11  C   UNL     1      -9.130   4.997  70.481  1.00  0.00    -0.138 A  
HETATM   12  N   UNL     1      -9.570   4.239  71.510  1.00  0.00    -0.155 NA 
HETATM   13  C   UNL     1      -8.983   4.380  72.718  1.00  0.00    -0.114 A  
HETATM   14  N   UNL     1      -7.959   5.167  73.048  1.00  0.00    -0.101 NA 
HETATM   15  C   UNL     1      -7.538   5.926  72.024  1.00  0.00    -0.097 A  
HETATM   16  C   UNL     1      -8.108   5.893  70.761  1.00  0.00    -0.119 A  
HETATM   17  N   UNL     1      -7.466   6.903  70.085  1.00  0.00    -0.088 NA 
HETATM   18  H   UNL     1      -7.667   7.213  69.135  1.00  0.00     0.000 HD 
HETATM   19  C   UNL     1      -6.506   7.420  70.920  1.00  0.00    -0.039 A  
HETATM   20  N   UNL     1      -6.537   6.853  72.104  1.00  0.00    -0.057 NA 
ENDBRANCH  10  11
ENDBRANCH   6  10
TORSDOF 2
ENDMDL
MODEL      342
REMARK 921   NORMALIZED FREE ENERGY PREDICTED BY IDOCK:   -2.20 KCAL/MOL
REMARK 922        TOTAL FREE ENERGY PREDICTED BY IDOCK:   -2.77 KCAL/MOL
REMARK 923 INTER-LIGAND FREE ENERGY PREDICTED BY IDOCK:   -2.32 KCAL/MOL
REMARK 924 INTRA-LIGAND FREE ENERGY PREDICTED BY IDOCK:   -0.45 KCAL/MOL
REMARK 927      BINDING AFFINITY PREDICTED BY RF-SCORE:    0.00 PKD
ROOT
HETATM    1  C   UNL     1     -11.170   8.116  70.532  1.00  0.00    -0.247 C  
HETATM    2  N   UNL     1     -10.708   7.294  69.440  1.00  0.00    -0.237 NA 
HETATM    3  C   UNL     1     -10.563   7.822  68.178  1.00  0.00    -0.124 A  
HETATM    4  N   UNL     1     -10.053   6.957  67.341  1.00  0.00    -0.166 NA 
HETATM    5  C   UNL     1      -9.840   5.817  68.095  1.00  0.00    -0.135 A  
HETATM    6  C   UNL     1     -10.264   5.987  69.417  1.00  0.00    -0.211 A  
HETATM    7  N   UNL     1      -9.171   4.696  67.461  1.00  0.00    -0.125 N  
HETATM    8  O   UNL     1      -8.759   4.852  66.305  1.00  0.00    -0.114 OA 
HETATM    9  O   UNL     1      -9.049   3.652  68.121  1.00  0.00    -0.122 OA 
ENDROOT
BRANCH   6  10
HETATM   10  S   UNL     1     -10.030   4.950  70.810  1.00  0.00    -0.220 SA 
BRANCH  10  11
HETATM   11  C   UNL     1      -8.512   5.382  71.618  1.00  0.00    -0.127 A  
HETATM   12  N   UNL     1      -7.716   6.353  71.117  1.00  0.00    -0.097 NA 
HETATM   13  C   UNL     1      -6.472   6.499  71.623  1.00  0.00    -0.050 A  
HETATM   14  N   UNL     1      -5.905   5.820  72.619  1.00  0.00    -0.034 NA 
HETATM   15  C   UNL     1      -6.697   4.849  73.101  1.00  0.00    -0.067 A  
HETATM   16  C   UNL     1      -7.967   4.584  72.615  1.00  0.00    -0.088 A  
HETATM   17  N   UNL     1      -8.348   3.452  73.294  1.00  0.00    -0.074 NA 
HETATM   18  H   UNL     1      -9.213   2.929  73.153  1.00  0.00     0.000 HD 
HETATM   19  C   UNL     1      -7.357   3.151  74.194  1.00  0.00    -0.048 A  
HETATM   20  N   UNL     1      -6.340   3.976  74.090  1.00  0.00    -0.039 NA 
ENDBRANCH  10  11
ENDBRANCH   6  10
TORSDOF 2
ENDMDL
MODEL      343
REMARK 921   NORMALIZED FREE ENERGY PREDICTED BY IDOCK:   -2.19 KCAL/MOL
REMARK 922        TOTAL FREE ENERGY PREDICTED BY IDOCK:   -2.76 KCAL/MOL
REMARK 923 INTER-LIGAND FREE ENERGY PREDICTED BY IDOCK:   -2.31 KCAL/MOL
REMARK 924 INTRA-LIGAND FREE ENERGY PREDICTED BY IDOCK:   -0.45 KCAL/MOL
REMARK 927      BINDING AFFINITY PREDICTED BY RF-SCORE:    0.00 PKD
ROOT
HETATM    1  C   UNL     1      -7.652   5.147  67.494  1.00  0.00    -0.088 C  
HETATM    2  N   UNL     1      -8.389   5.323  68.722  1.00  0.00    -0.092 NA 
HETATM    3  C   UNL     1      -8.312   4.387  69.727  1.00  0.00    -0.062 A  
HETATM    4  N   UNL     1      -8.974   4.757  70.792  1.00  0.00    -0.120 NA 
HETATM    5  C   UNL     1      -9.493   5.998  70.474  1.00  0.00    -0.168 A  
HETATM    6  C   UNL     1      -9.163   6.375  69.167  1.00  0.00    -0.133 A  
HETATM    7  N   UNL     1     -10.200   6.728  71.511  1.00  0.00    -0.193 N  
HETATM    8  O   UNL     1     -10.230   6.231  72.643  1.00  0.00    -0.180 OA 
HETATM    9  O   UNL     1     -10.725   7.808  71.197  1.00  0.00    -0.224 OA 
ENDROOT
BRANCH   6  10
HETATM   10  S   UNL     1      -9.383   7.913  68.357  1.00  0.00    -0.140 SA 
BRANCH  10  11
HETATM   11  C   UNL     1      -8.059   9.007  68.796  1.00  0.00    -0.105 A  
HETATM   12  N   UNL     1      -7.243   8.718  69.834  1.00  0.00    -0.050 NA 
HETATM   13  C   UNL     1      -6.395   9.672  70.279  1.00  0.00    -0.076 A  
HETATM   14  N   UNL     1      -6.211  10.899  69.794  1.00  0.00    -0.087 NA 
HETATM   15  C   UNL     1      -7.035  11.181  68.772  1.00  0.00    -0.088 A  
HETATM   16  C   UNL     1      -7.975  10.291  68.277  1.00  0.00    -0.106 A  
HETATM   17  N   UNL     1      -8.667  11.029  67.348  1.00  0.00    -0.131 NA 
HETATM   18  H   UNL     1      -9.479  10.717  66.815  1.00  0.00     0.000 HD 
HETATM   19  C   UNL     1      -8.071  12.263  67.265  1.00  0.00    -0.182 A  
HETATM   20  N   UNL     1      -7.087  12.384  68.126  1.00  0.00    -0.087 NA 
ENDBRANCH  10  11
ENDBRANCH   6  10
TORSDOF 2
ENDMDL
MODEL      344
REMARK 921   NORMALIZED FREE ENERGY PREDICTED BY IDOCK:   -2.02 KCAL/MOL
REMARK 922        TOTAL FREE ENERGY PREDICTED BY IDOCK:   -2.58 KCAL/MOL
REMARK 923 INTER-LIGAND FREE ENERGY PREDICTED BY IDOCK:   -2.13 KCAL/MOL
REMARK 924 INTRA-LIGAND FREE ENERGY PREDICTED BY IDOCK:   -0.45 KCAL/MOL
REMARK 927      BINDING AFFINITY PREDICTED BY RF-SCORE:    0.00 PKD
ROOT
HETATM    1  C   UNL     1     -10.769   7.384  69.202  1.00  0.00    -0.166 C  
HETATM    2  N   UNL     1      -9.967   6.428  68.477  1.00  0.00    -0.137 NA 
HETATM    3  C   UNL     1      -9.563   6.687  67.187  1.00  0.00    -0.138 A  
HETATM    4  N   UNL     1      -8.775   5.751  66.725  1.00  0.00    -0.115 NA 
HETATM    5  C   UNL     1      -8.647   4.849  67.764  1.00  0.00    -0.103 A  
HETATM    6  C   UNL     1      -9.405   5.232  68.876  1.00  0.00    -0.124 A  
HETATM    7  N   UNL     1      -7.731   3.736  67.591  1.00  0.00    -0.074 N  
HETATM    8  O   UNL     1      -7.060   3.701  66.553  1.00  0.00    -0.061 OA 
HETATM    9  O   UNL     1      -7.676   2.891  68.499  1.00  0.00    -0.054 OA 
ENDROOT
BRANCH   6  10
HETATM   10  S   UNL     1      -9.426   4.571  70.498  1.00  0.00    -0.194 SA 
BRANCH  10  11
HETATM   11  C   UNL     1      -8.152   5.335  71.465  1.00  0.00    -0.116 A  
HETATM   12  N   UNL     1      -6.982   4.697  71.691  1.00  0.00    -0.045 NA 
HETATM   13  C   UNL     1      -6.131   5.205  72.609  1.00  0.00    -0.027 A  
HETATM   14  N   UNL     1      -6.268   6.319  73.328  1.00  0.00    -0.062 NA 
HETATM   15  C   UNL     1      -7.438   6.939  73.107  1.00  0.00    -0.077 A  
HETATM   16  C   UNL     1      -8.399   6.470  72.226  1.00  0.00    -0.106 A  
HETATM   17  N   UNL     1      -9.460   7.322  72.414  1.00  0.00    -0.147 NA 
HETATM   18  H   UNL     1     -10.376   7.250  71.971  1.00  0.00     0.000 HD 
HETATM   19  C   UNL     1      -9.066   8.289  73.305  1.00  0.00    -0.207 A  
HETATM   20  N   UNL     1      -7.849   8.073  73.749  1.00  0.00    -0.173 NA 
ENDBRANCH  10  11
ENDBRANCH   6  10
TORSDOF 2
ENDMDL
MODEL      345
REMARK 921   NORMALIZED FREE ENERGY PREDICTED BY IDOCK:   -1.99 KCAL/MOL
REMARK 922        TOTAL FREE ENERGY PREDICTED BY IDOCK:   -2.54 KCAL/MOL
REMARK 923 INTER-LIGAND FREE ENERGY PREDICTED BY IDOCK:   -2.02 KCAL/MOL
REMARK 924 INTRA-LIGAND FREE ENERGY PREDICTED BY IDOCK:   -0.51 KCAL/MOL
REMARK 927      BINDING AFFINITY PREDICTED BY RF-SCORE:    0.00 PKD
ROOT
HETATM    1  C   UNL     1     -10.141   9.535  69.001  1.00  0.00    -0.193 C  
HETATM    2  N   UNL     1      -9.274   9.416  67.854  1.00  0.00    -0.130 NA 
HETATM    3  C   UNL     1      -8.397  10.426  67.530  1.00  0.00    -0.114 A  
HETATM    4  N   UNL     1      -7.635  10.106  66.517  1.00  0.00    -0.106 NA 
HETATM    5  C   UNL     1      -8.020   8.823  66.175  1.00  0.00    -0.103 A  
HETATM    6  C   UNL     1      -9.068   8.366  66.982  1.00  0.00    -0.144 A  
HETATM    7  N   UNL     1      -7.270   8.141  65.136  1.00  0.00    -0.070 N  
HETATM    8  O   UNL     1      -6.279   8.717  64.670  1.00  0.00    -0.065 OA 
HETATM    9  O   UNL     1      -7.666   7.018  64.784  1.00  0.00    -0.101 OA 
ENDROOT
BRANCH   6  10
HETATM   10  S   UNL     1      -9.768   6.765  67.107  1.00  0.00    -0.161 SA 
BRANCH  10  11
HETATM   11  C   UNL     1      -8.629   5.685  67.931  1.00  0.00    -0.101 A  
HETATM   12  N   UNL     1      -8.063   4.649  67.272  1.00  0.00    -0.101 NA 
HETATM   13  C   UNL     1      -7.383   3.722  67.981  1.00  0.00    -0.062 A  
HETATM   14  N   UNL     1      -7.144   3.702  69.292  1.00  0.00    -0.045 NA 
HETATM   15  C   UNL     1      -7.721   4.726  69.940  1.00  0.00    -0.055 A  
HETATM   16  C   UNL     1      -8.482   5.699  69.311  1.00  0.00    -0.106 A  
HETATM   17  N   UNL     1      -8.973   6.453  70.349  1.00  0.00    -0.154 NA 
HETATM   18  H   UNL     1      -9.626   7.233  70.271  1.00  0.00     0.000 HD 
HETATM   19  C   UNL     1      -8.427   5.969  71.512  1.00  0.00    -0.128 A  
HETATM   20  N   UNL     1      -7.674   4.915  71.292  1.00  0.00    -0.085 NA 
ENDBRANCH  10  11
ENDBRANCH   6  10
TORSDOF 2
ENDMDL
MODEL      346
REMARK 921   NORMALIZED FREE ENERGY PREDICTED BY IDOCK:   11.21 KCAL/MOL
REMARK 922        TOTAL FREE ENERGY PREDICTED BY IDOCK:   12.20 KCAL/MOL
REMARK 923 INTER-LIGAND FREE ENERGY PREDICTED BY IDOCK:   12.43 KCAL/MOL
REMARK 924 INTRA-LIGAND FREE ENERGY PREDICTED BY IDOCK:   -0.23 KCAL/MOL
REMARK 927      BINDING AFFINITY PREDICTED BY RF-SCORE:    0.00 PKD
ROOT
HETATM    1  C   UNL     1      -8.880  12.724  68.114  1.00  0.00    -0.194 C  
HETATM    2  N   UNL     1      -8.345  13.414  69.263  1.00  0.00     0.542 NA 
HETATM    3  C   UNL     1      -9.119  14.308  69.967  1.00  0.00     1.417 A  
HETATM    4  N   UNL     1      -8.499  14.767  71.022  1.00  0.00     2.509 NA 
HETATM    5  C   UNL     1      -7.270  14.132  71.016  1.00  0.00     1.908 A  
HETATM    6  C   UNL     1      -7.131  13.290  69.907  1.00  0.00     0.599 A  
HETATM    7  N   UNL     1      -6.382  14.357  72.142  1.00  0.00     0.612 N  
HETATM    8  O   UNL     1      -6.805  15.042  73.080  1.00  0.00     2.403 OA 
HETATM    9  O   UNL     1      -5.253  13.842  72.094  1.00  0.00    -0.174 OA 
ENDROOT
BRANCH   6  10
HETATM   10  S   UNL     1      -5.883  12.115  69.545  1.00  0.00    -0.108 SA 
BRANCH  10  11
HETATM   11  C   UNL     1      -6.619  10.515  69.343  1.00  0.00    -0.069 A  
HETATM   12  N   UNL     1      -6.302   9.740  68.282  1.00  0.00    -0.055 NA 
HETATM   13  C   UNL     1      -7.041   8.635  68.040  1.00  0.00    -0.082 A  
HETATM   14  N   UNL     1      -8.059   8.155  68.754  1.00  0.00    -0.118 NA 
HETATM   15  C   UNL     1      -8.375   8.938  69.798  1.00  0.00    -0.125 A  
HETATM   16  C   UNL     1      -7.712  10.117  70.100  1.00  0.00    -0.069 A  
HETATM   17  N   UNL     1      -8.437  10.643  71.141  1.00  0.00     2.359 NA 
HETATM   18  H   UNL     1      -8.276  11.544  71.592  1.00  0.00     0.000 HD 
HETATM   19  C   UNL     1      -9.417   9.739  71.467  1.00  0.00     1.249 A  
HETATM   20  N   UNL     1      -9.408   8.702  70.661  1.00  0.00    -0.172 NA 
ENDBRANCH  10  11
ENDBRANCH   6  10
TORSDOF 2
ENDMDL
MODEL      347
REMARK 921   NORMALIZED FREE ENERGY PREDICTED BY IDOCK:   20.19 KCAL/MOL
REMARK 922        TOTAL FREE ENERGY PREDICTED BY IDOCK:   22.23 KCAL/MOL
REMARK 923 INTER-LIGAND FREE ENERGY PREDICTED BY IDOCK:   19.94 KCAL/MOL
REMARK 924 INTRA-LIGAND FREE ENERGY PREDICTED BY IDOCK:    2.28 KCAL/MOL
REMARK 927      BINDING AFFINITY PREDICTED BY RF-SCORE:    0.00 PKD
ROOT
HETATM    1  C   UNL     1     -12.546  17.666  67.857  1.00  0.00     4.731 C  
HETATM    2  N   UNL     1     -11.939  16.677  68.714  1.00  0.00     0.342 NA 
HETATM    3  C   UNL     1     -12.445  15.399  68.778  1.00  0.00     0.299 A  
HETATM    4  N   UNL     1     -11.717  14.622  69.536  1.00  0.00    -0.305 NA 
HETATM    5  C   UNL     1     -10.680  15.424  69.975  1.00  0.00    -0.307 A  
HETATM    6  C   UNL     1     -10.802  16.733  69.495  1.00  0.00    -0.225 A  
HETATM    7  N   UNL     1      -9.627  14.808  70.762  1.00  0.00     1.383 N  
HETATM    8  O   UNL     1      -9.677  13.584  70.930  1.00  0.00     4.844 OA 
HETATM    9  O   UNL     1      -8.738  15.549  71.213  1.00  0.00     2.698 OA 
ENDROOT
BRANCH   6  10
HETATM   10  S   UNL     1      -9.666  18.065  69.574  1.00  0.00     0.480 SA 
BRANCH  10  11
HETATM   11  C   UNL     1      -8.024  17.430  69.773  1.00  0.00     1.123 A  
HETATM   12  N   UNL     1      -7.431  17.421  70.989  1.00  0.00     4.655 NA 
HETATM   13  C   UNL     1      -6.112  17.143  71.066  1.00  0.00     1.180 A  
HETATM   14  N   UNL     1      -5.280  16.822  70.076  1.00  0.00    -0.169 NA 
HETATM   15  C   UNL     1      -5.873  16.846  68.872  1.00  0.00    -0.154 A  
HETATM   16  C   UNL     1      -7.207  17.170  68.681  1.00  0.00    -0.229 A  
HETATM   17  N   UNL     1      -7.345  17.199  67.315  1.00  0.00    -0.148 NA 
HETATM   18  H   UNL     1      -8.187  17.459  66.801  1.00  0.00     0.000 HD 
HETATM   19  C   UNL     1      -6.148  16.813  66.766  1.00  0.00    -0.136 A  
HETATM   20  N   UNL     1      -5.236  16.605  67.688  1.00  0.00    -0.121 NA 
ENDBRANCH  10  11
ENDBRANCH   6  10
TORSDOF 2
ENDMDL
