MODEL        1
REMARK 921   NORMALIZED FREE ENERGY PREDICTED BY IDOCK:   -4.97 KCAL/MOL
REMARK 922        TOTAL FREE ENERGY PREDICTED BY IDOCK:   -7.06 KCAL/MOL
REMARK 923 INTER-LIGAND FREE ENERGY PREDICTED BY IDOCK:   -6.71 KCAL/MOL
REMARK 924 INTRA-LIGAND FREE ENERGY PREDICTED BY IDOCK:   -0.35 KCAL/MOL
REMARK 927      BINDING AFFINITY PREDICTED BY RF-SCORE:    0.00 PKD
ROOT
HETATM    1  O   UNL     1     -12.661  14.594  64.017  1.00  0.00    -0.819 OA 
HETATM    2  C   UNL     1     -12.632  13.617  64.954  1.00  0.00    -0.336 C  
HETATM    3  O   UNL     1     -13.198  12.548  64.796  1.00  0.00    -0.839 OA 
HETATM    4  C   UNL     1     -11.833  14.017  66.175  1.00  0.00    -0.422 C  
ENDROOT
BRANCH   4   5
HETATM    5  C   UNL     1     -11.814  12.903  67.220  1.00  0.00    -0.416 C  
BRANCH   5   6
HETATM    6  C   UNL     1     -11.690  13.450  68.643  1.00  0.00    -0.384 C  
BRANCH   6   7
HETATM    7  C   UNL     1     -11.418  14.956  68.618  1.00  0.00    -0.326 C  
BRANCH   7   8
HETATM    8  C   UNL     1     -11.959  15.658  69.864  1.00  0.00    -0.376 C  
BRANCH   8   9
HETATM    9  C   UNL     1     -12.034  14.690  71.047  1.00  0.00    -0.399 C  
BRANCH   9  10
HETATM   10  C   UNL     1     -11.719  15.388  72.369  1.00  0.00    -0.565 C  
HETATM   11  C   UNL     1     -12.976  15.813  73.094  1.00  0.00    -0.544 C  
HETATM   12  O   UNL     1     -12.704  16.433  74.267  1.00  0.00    -0.718 OA 
HETATM   13  O   UNL     1     -14.115  15.636  72.699  1.00  0.00    -0.564 OA 
ENDBRANCH   9  10
ENDBRANCH   8   9
ENDBRANCH   7   8
ENDBRANCH   6   7
ENDBRANCH   5   6
ENDBRANCH   4   5
TORSDOF 6
ENDMDL
MODEL        2
REMARK 921   NORMALIZED FREE ENERGY PREDICTED BY IDOCK:   -4.80 KCAL/MOL
REMARK 922        TOTAL FREE ENERGY PREDICTED BY IDOCK:   -6.83 KCAL/MOL
REMARK 923 INTER-LIGAND FREE ENERGY PREDICTED BY IDOCK:   -6.45 KCAL/MOL
REMARK 924 INTRA-LIGAND FREE ENERGY PREDICTED BY IDOCK:   -0.38 KCAL/MOL
REMARK 927      BINDING AFFINITY PREDICTED BY RF-SCORE:    0.00 PKD
ROOT
HETATM    1  O   UNL     1     -12.663  16.226  74.228  1.00  0.00    -0.705 OA 
HETATM    2  C   UNL     1     -13.114  15.790  73.028  1.00  0.00    -0.543 C  
HETATM    3  O   UNL     1     -14.232  15.323  72.885  1.00  0.00    -0.318 OA 
HETATM    4  C   UNL     1     -12.083  15.956  71.933  1.00  0.00    -0.578 C  
ENDROOT
BRANCH   4   5
HETATM    5  C   UNL     1     -12.612  15.459  70.588  1.00  0.00    -0.491 C  
BRANCH   5   6
HETATM    6  C   UNL     1     -12.209  14.009  70.313  1.00  0.00    -0.430 C  
BRANCH   6   7
HETATM    7  C   UNL     1     -11.433  13.907  68.998  1.00  0.00    -0.341 C  
BRANCH   7   8
HETATM    8  C   UNL     1     -11.420  15.232  68.235  1.00  0.00    -0.359 C  
BRANCH   8   9
HETATM    9  C   UNL     1     -11.396  14.992  66.724  1.00  0.00    -0.293 C  
BRANCH   9  10
HETATM   10  C   UNL     1     -12.016  13.645  66.356  1.00  0.00    -0.466 C  
HETATM   11  C   UNL     1     -12.634  13.668  64.976  1.00  0.00    -0.390 C  
HETATM   12  O   UNL     1     -13.186  12.477  64.644  1.00  0.00    -0.848 OA 
HETATM   13  O   UNL     1     -12.653  14.628  64.225  1.00  0.00    -0.688 OA 
ENDBRANCH   9  10
ENDBRANCH   8   9
ENDBRANCH   7   8
ENDBRANCH   6   7
ENDBRANCH   5   6
ENDBRANCH   4   5
TORSDOF 6
ENDMDL
MODEL        3
REMARK 921   NORMALIZED FREE ENERGY PREDICTED BY IDOCK:   -4.78 KCAL/MOL
REMARK 922        TOTAL FREE ENERGY PREDICTED BY IDOCK:   -6.80 KCAL/MOL
REMARK 923 INTER-LIGAND FREE ENERGY PREDICTED BY IDOCK:   -6.57 KCAL/MOL
REMARK 924 INTRA-LIGAND FREE ENERGY PREDICTED BY IDOCK:   -0.23 KCAL/MOL
REMARK 927      BINDING AFFINITY PREDICTED BY RF-SCORE:    0.00 PKD
ROOT
HETATM    1  O   UNL     1     -12.345  15.221  74.458  1.00  0.00    -0.629 OA 
HETATM    2  C   UNL     1     -12.811  14.919  73.222  1.00  0.00    -0.530 C  
HETATM    3  O   UNL     1     -13.731  14.137  73.048  1.00  0.00    -0.617 OA 
HETATM    4  C   UNL     1     -12.065  15.657  72.132  1.00  0.00    -0.539 C  
ENDROOT
BRANCH   4   5
HETATM    5  C   UNL     1     -12.605  15.303  70.747  1.00  0.00    -0.474 C  
BRANCH   5   6
HETATM    6  C   UNL     1     -11.926  14.063  70.165  1.00  0.00    -0.399 C  
BRANCH   6   7
HETATM    7  C   UNL     1     -11.752  14.206  68.651  1.00  0.00    -0.385 C  
BRANCH   7   8
HETATM    8  C   UNL     1     -11.682  12.848  67.951  1.00  0.00    -0.405 C  
BRANCH   8   9
HETATM    9  C   UNL     1     -11.995  12.987  66.459  1.00  0.00    -0.457 C  
BRANCH   9  10
HETATM   10  C   UNL     1     -12.054  14.451  66.028  1.00  0.00    -0.370 C  
HETATM   11  C   UNL     1     -12.261  14.590  64.536  1.00  0.00    -0.465 C  
HETATM   12  O   UNL     1     -12.314  15.886  64.147  1.00  0.00    -0.634 OA 
HETATM   13  O   UNL     1     -12.371  13.668  63.747  1.00  0.00    -0.671 OA 
ENDBRANCH   9  10
ENDBRANCH   8   9
ENDBRANCH   7   8
ENDBRANCH   6   7
ENDBRANCH   5   6
ENDBRANCH   4   5
TORSDOF 6
ENDMDL
MODEL        4
REMARK 921   NORMALIZED FREE ENERGY PREDICTED BY IDOCK:   -4.76 KCAL/MOL
REMARK 922        TOTAL FREE ENERGY PREDICTED BY IDOCK:   -6.78 KCAL/MOL
REMARK 923 INTER-LIGAND FREE ENERGY PREDICTED BY IDOCK:   -6.50 KCAL/MOL
REMARK 924 INTRA-LIGAND FREE ENERGY PREDICTED BY IDOCK:   -0.28 KCAL/MOL
REMARK 927      BINDING AFFINITY PREDICTED BY RF-SCORE:    0.00 PKD
ROOT
HETATM    1  O   UNL     1     -11.629  16.688  63.791  1.00  0.00    -1.045 OA 
HETATM    2  C   UNL     1     -11.782  15.492  64.407  1.00  0.00    -0.242 C  
HETATM    3  O   UNL     1     -12.615  14.677  64.047  1.00  0.00    -0.819 OA 
HETATM    4  C   UNL     1     -10.814  15.311  65.556  1.00  0.00    -0.382 C  
ENDROOT
BRANCH   4   5
HETATM    5  C   UNL     1     -11.003  13.956  66.237  1.00  0.00    -0.298 C  
BRANCH   5   6
HETATM    6  C   UNL     1     -11.781  14.075  67.548  1.00  0.00    -0.421 C  
BRANCH   6   7
HETATM    7  C   UNL     1     -11.005  14.922  68.560  1.00  0.00    -0.260 C  
BRANCH   7   8
HETATM    8  C   UNL     1     -11.936  15.704  69.488  1.00  0.00    -0.363 C  
BRANCH   8   9
HETATM    9  C   UNL     1     -12.385  14.837  70.667  1.00  0.00    -0.401 C  
BRANCH   9  10
HETATM   10  C   UNL     1     -12.013  15.469  72.006  1.00  0.00    -0.518 C  
HETATM   11  C   UNL     1     -13.235  15.778  72.842  1.00  0.00    -0.545 C  
HETATM   12  O   UNL     1     -12.912  16.339  74.031  1.00  0.00    -0.689 OA 
HETATM   13  O   UNL     1     -14.389  15.562  72.516  1.00  0.00    -0.523 OA 
ENDBRANCH   9  10
ENDBRANCH   8   9
ENDBRANCH   7   8
ENDBRANCH   6   7
ENDBRANCH   5   6
ENDBRANCH   4   5
TORSDOF 6
ENDMDL
MODEL        5
REMARK 921   NORMALIZED FREE ENERGY PREDICTED BY IDOCK:   -4.68 KCAL/MOL
REMARK 922        TOTAL FREE ENERGY PREDICTED BY IDOCK:   -6.68 KCAL/MOL
REMARK 923 INTER-LIGAND FREE ENERGY PREDICTED BY IDOCK:   -6.42 KCAL/MOL
REMARK 924 INTRA-LIGAND FREE ENERGY PREDICTED BY IDOCK:   -0.26 KCAL/MOL
REMARK 927      BINDING AFFINITY PREDICTED BY RF-SCORE:    0.00 PKD
ROOT
HETATM    1  O   UNL     1     -13.913  15.615  72.086  1.00  0.00    -0.499 OA 
HETATM    2  C   UNL     1     -13.706  14.285  71.937  1.00  0.00    -0.436 C  
HETATM    3  O   UNL     1     -14.345  13.454  72.560  1.00  0.00    -0.692 OA 
HETATM    4  C   UNL     1     -12.617  13.984  70.930  1.00  0.00    -0.431 C  
ENDROOT
BRANCH   4   5
HETATM    5  C   UNL     1     -12.399  12.479  70.777  1.00  0.00    -0.376 C  
BRANCH   5   6
HETATM    6  C   UNL     1     -11.839  12.116  69.400  1.00  0.00    -0.370 C  
BRANCH   6   7
HETATM    7  C   UNL     1     -11.752  13.359  68.511  1.00  0.00    -0.392 C  
BRANCH   7   8
HETATM    8  C   UNL     1     -11.821  13.006  67.024  1.00  0.00    -0.437 C  
BRANCH   8   9
HETATM    9  C   UNL     1     -10.845  13.863  66.214  1.00  0.00    -0.290 C  
BRANCH   9  10
HETATM   10  C   UNL     1     -11.557  14.630  65.101  1.00  0.00    -0.371 C  
HETATM   11  C   UNL     1     -10.921  15.979  64.852  1.00  0.00    -0.384 C  
HETATM   12  O   UNL     1     -11.547  16.665  63.867  1.00  0.00    -1.204 OA 
HETATM   13  O   UNL     1      -9.958  16.429  65.450  1.00  0.00    -0.534 OA 
ENDBRANCH   9  10
ENDBRANCH   8   9
ENDBRANCH   7   8
ENDBRANCH   6   7
ENDBRANCH   5   6
ENDBRANCH   4   5
TORSDOF 6
ENDMDL
MODEL        6
REMARK 921   NORMALIZED FREE ENERGY PREDICTED BY IDOCK:   -4.64 KCAL/MOL
REMARK 922        TOTAL FREE ENERGY PREDICTED BY IDOCK:   -6.63 KCAL/MOL
REMARK 923 INTER-LIGAND FREE ENERGY PREDICTED BY IDOCK:   -6.27 KCAL/MOL
REMARK 924 INTRA-LIGAND FREE ENERGY PREDICTED BY IDOCK:   -0.35 KCAL/MOL
REMARK 927      BINDING AFFINITY PREDICTED BY RF-SCORE:    0.00 PKD
ROOT
HETATM    1  O   UNL     1     -12.964  16.096  74.012  1.00  0.00    -0.668 OA 
HETATM    2  C   UNL     1     -13.288  15.770  72.738  1.00  0.00    -0.547 C  
HETATM    3  O   UNL     1     -14.398  15.369  72.433  1.00  0.00    -0.543 OA 
HETATM    4  C   UNL     1     -12.129  15.965  71.784  1.00  0.00    -0.567 C  
ENDROOT
BRANCH   4   5
HETATM    5  C   UNL     1     -12.515  15.591  70.354  1.00  0.00    -0.443 C  
BRANCH   5   6
HETATM    6  C   UNL     1     -11.908  14.255  69.925  1.00  0.00    -0.382 C  
BRANCH   6   7
HETATM    7  C   UNL     1     -11.038  14.434  68.679  1.00  0.00    -0.269 C  
BRANCH   7   8
HETATM    8  C   UNL     1     -11.720  13.895  67.420  1.00  0.00    -0.422 C  
BRANCH   8   9
HETATM    9  C   UNL     1     -11.327  14.719  66.191  1.00  0.00    -0.330 C  
BRANCH   9  10
HETATM   10  C   UNL     1     -10.715  16.062  66.584  1.00  0.00    -0.247 C  
HETATM   11  C   UNL     1     -10.734  17.047  65.436  1.00  0.00    -0.116 C  
HETATM   12  O   UNL     1     -10.192  18.239  65.777  1.00  0.00    -0.576 OA 
HETATM   13  O   UNL     1     -11.177  16.827  64.322  1.00  0.00    -1.163 OA 
ENDBRANCH   9  10
ENDBRANCH   8   9
ENDBRANCH   7   8
ENDBRANCH   6   7
ENDBRANCH   5   6
ENDBRANCH   4   5
TORSDOF 6
ENDMDL
MODEL        7
REMARK 921   NORMALIZED FREE ENERGY PREDICTED BY IDOCK:   -4.64 KCAL/MOL
REMARK 922        TOTAL FREE ENERGY PREDICTED BY IDOCK:   -6.62 KCAL/MOL
REMARK 923 INTER-LIGAND FREE ENERGY PREDICTED BY IDOCK:   -6.36 KCAL/MOL
REMARK 924 INTRA-LIGAND FREE ENERGY PREDICTED BY IDOCK:   -0.26 KCAL/MOL
REMARK 927      BINDING AFFINITY PREDICTED BY RF-SCORE:    0.00 PKD
ROOT
HETATM    1  O   UNL     1     -12.074  16.123  63.730  1.00  0.00    -0.946 OA 
HETATM    2  C   UNL     1     -12.224  14.835  64.118  1.00  0.00    -0.295 C  
HETATM    3  O   UNL     1     -12.584  13.961  63.347  1.00  0.00    -0.853 OA 
HETATM    4  C   UNL     1     -11.895  14.635  65.582  1.00  0.00    -0.273 C  
ENDROOT
BRANCH   4   5
HETATM    5  C   UNL     1     -12.070  13.176  66.000  1.00  0.00    -0.495 C  
BRANCH   5   6
HETATM    6  C   UNL     1     -11.164  12.800  67.173  1.00  0.00    -0.336 C  
BRANCH   6   7
HETATM    7  C   UNL     1     -11.822  13.178  68.502  1.00  0.00    -0.377 C  
BRANCH   7   8
HETATM    8  C   UNL     1     -11.800  12.021  69.503  1.00  0.00    -0.390 C  
BRANCH   8   9
HETATM    9  C   UNL     1     -12.524  12.404  70.796  1.00  0.00    -0.356 C  
BRANCH   9  10
HETATM   10  C   UNL     1     -12.830  13.899  70.850  1.00  0.00    -0.370 C  
HETATM   11  C   UNL     1     -13.832  14.229  71.934  1.00  0.00    -0.457 C  
HETATM   12  O   UNL     1     -14.109  15.553  71.988  1.00  0.00    -0.498 OA 
HETATM   13  O   UNL     1     -14.350  13.424  72.689  1.00  0.00    -0.709 OA 
ENDBRANCH   9  10
ENDBRANCH   8   9
ENDBRANCH   7   8
ENDBRANCH   6   7
ENDBRANCH   5   6
ENDBRANCH   4   5
TORSDOF 6
ENDMDL
MODEL        8
REMARK 921   NORMALIZED FREE ENERGY PREDICTED BY IDOCK:   -4.62 KCAL/MOL
REMARK 922        TOTAL FREE ENERGY PREDICTED BY IDOCK:   -6.59 KCAL/MOL
REMARK 923 INTER-LIGAND FREE ENERGY PREDICTED BY IDOCK:   -6.23 KCAL/MOL
REMARK 924 INTRA-LIGAND FREE ENERGY PREDICTED BY IDOCK:   -0.37 KCAL/MOL
REMARK 927      BINDING AFFINITY PREDICTED BY RF-SCORE:    0.00 PKD
ROOT
HETATM    1  O   UNL     1     -14.113  15.932  73.021  1.00  0.00    -0.518 OA 
HETATM    2  C   UNL     1     -13.682  14.869  72.301  1.00  0.00    -0.458 C  
HETATM    3  O   UNL     1     -13.887  13.719  72.654  1.00  0.00    -0.691 OA 
HETATM    4  C   UNL     1     -12.944  15.286  71.048  1.00  0.00    -0.526 C  
ENDROOT
BRANCH   4   5
HETATM    5  C   UNL     1     -12.467  14.073  70.250  1.00  0.00    -0.403 C  
BRANCH   5   6
HETATM    6  C   UNL     1     -11.298  14.416  69.326  1.00  0.00    -0.319 C  
BRANCH   6   7
HETATM    7  C   UNL     1     -11.558  15.736  68.597  1.00  0.00    -0.392 C  
BRANCH   7   8
HETATM    8  C   UNL     1     -10.878  15.780  67.228  1.00  0.00    -0.298 C  
BRANCH   8   9
HETATM    9  C   UNL     1     -10.800  14.381  66.612  1.00  0.00    -0.304 C  
BRANCH   9  10
HETATM   10  C   UNL     1     -10.971  14.421  65.095  1.00  0.00    -0.380 C  
HETATM   11  C   UNL     1     -12.396  14.126  64.682  1.00  0.00    -0.410 C  
HETATM   12  O   UNL     1     -12.556  14.160  63.338  1.00  0.00    -0.818 OA 
HETATM   13  O   UNL     1     -13.317  13.881  65.442  1.00  0.00    -0.710 OA 
ENDBRANCH   9  10
ENDBRANCH   8   9
ENDBRANCH   7   8
ENDBRANCH   6   7
ENDBRANCH   5   6
ENDBRANCH   4   5
TORSDOF 6
ENDMDL
MODEL        9
REMARK 921   NORMALIZED FREE ENERGY PREDICTED BY IDOCK:   -4.61 KCAL/MOL
REMARK 922        TOTAL FREE ENERGY PREDICTED BY IDOCK:   -6.58 KCAL/MOL
REMARK 923 INTER-LIGAND FREE ENERGY PREDICTED BY IDOCK:   -6.29 KCAL/MOL
REMARK 924 INTRA-LIGAND FREE ENERGY PREDICTED BY IDOCK:   -0.29 KCAL/MOL
REMARK 927      BINDING AFFINITY PREDICTED BY RF-SCORE:    0.00 PKD
ROOT
HETATM    1  O   UNL     1     -10.459  17.472  65.530  1.00  0.00    -0.628 OA 
HETATM    2  C   UNL     1     -10.930  16.386  64.873  1.00  0.00    -0.263 C  
HETATM    3  O   UNL     1     -11.639  16.481  63.884  1.00  0.00    -1.175 OA 
HETATM    4  C   UNL     1     -10.474  15.090  65.506  1.00  0.00    -0.385 C  
ENDROOT
BRANCH   4   5
HETATM    5  C   UNL     1     -11.017  13.877  64.751  1.00  0.00    -0.407 C  
BRANCH   5   6
HETATM    6  C   UNL     1     -12.061  13.112  65.565  1.00  0.00    -0.490 C  
BRANCH   6   7
HETATM    7  C   UNL     1     -11.943  13.458  67.051  1.00  0.00    -0.429 C  
BRANCH   7   8
HETATM    8  C   UNL     1     -11.623  12.230  67.904  1.00  0.00    -0.416 C  
BRANCH   8   9
HETATM    9  C   UNL     1     -11.757  12.549  69.394  1.00  0.00    -0.383 C  
BRANCH   9  10
HETATM   10  C   UNL     1     -12.037  11.294  70.218  1.00  0.00    -0.459 C  
HETATM   11  C   UNL     1     -12.829  11.606  71.468  1.00  0.00    -0.364 C  
HETATM   12  O   UNL     1     -13.081  10.498  72.204  1.00  0.00    -0.459 OA 
HETATM   13  O   UNL     1     -13.212  12.714  71.806  1.00  0.00    -0.432 OA 
ENDBRANCH   9  10
ENDBRANCH   8   9
ENDBRANCH   7   8
ENDBRANCH   6   7
ENDBRANCH   5   6
ENDBRANCH   4   5
TORSDOF 6
ENDMDL
MODEL       10
REMARK 921   NORMALIZED FREE ENERGY PREDICTED BY IDOCK:   -4.56 KCAL/MOL
REMARK 922        TOTAL FREE ENERGY PREDICTED BY IDOCK:   -6.52 KCAL/MOL
REMARK 923 INTER-LIGAND FREE ENERGY PREDICTED BY IDOCK:   -6.01 KCAL/MOL
REMARK 924 INTRA-LIGAND FREE ENERGY PREDICTED BY IDOCK:   -0.51 KCAL/MOL
REMARK 927      BINDING AFFINITY PREDICTED BY RF-SCORE:    0.00 PKD
ROOT
HETATM    1  O   UNL     1     -12.562  14.541  63.904  1.00  0.00    -0.827 OA 
HETATM    2  C   UNL     1     -12.566  13.691  64.958  1.00  0.00    -0.390 C  
HETATM    3  O   UNL     1     -13.096  12.594  64.907  1.00  0.00    -0.850 OA 
HETATM    4  C   UNL     1     -11.850  14.266  66.161  1.00  0.00    -0.413 C  
ENDROOT
BRANCH   4   5
HETATM    5  C   UNL     1     -11.866  13.293  67.339  1.00  0.00    -0.413 C  
BRANCH   5   6
HETATM    6  C   UNL     1     -11.887  14.020  68.685  1.00  0.00    -0.396 C  
BRANCH   6   7
HETATM    7  C   UNL     1     -11.721  15.528  68.484  1.00  0.00    -0.351 C  
BRANCH   7   8
HETATM    8  C   UNL     1     -10.664  16.118  69.419  1.00  0.00    -0.307 C  
BRANCH   8   9
HETATM    9  C   UNL     1      -9.988  17.333  68.780  1.00  0.00    -0.325 C  
BRANCH   9  10
HETATM   10  C   UNL     1     -10.079  17.294  67.256  1.00  0.00    -0.300 C  
HETATM   11  C   UNL     1     -10.578  18.604  66.688  1.00  0.00    -0.359 C  
HETATM   12  O   UNL     1     -10.661  18.576  65.337  1.00  0.00    -0.589 OA 
HETATM   13  O   UNL     1     -10.880  19.589  67.339  1.00  0.00    -0.486 OA 
ENDBRANCH   9  10
ENDBRANCH   8   9
ENDBRANCH   7   8
ENDBRANCH   6   7
ENDBRANCH   5   6
ENDBRANCH   4   5
TORSDOF 6
ENDMDL
MODEL       11
REMARK 921   NORMALIZED FREE ENERGY PREDICTED BY IDOCK:   -4.54 KCAL/MOL
REMARK 922        TOTAL FREE ENERGY PREDICTED BY IDOCK:   -6.49 KCAL/MOL
REMARK 923 INTER-LIGAND FREE ENERGY PREDICTED BY IDOCK:   -6.16 KCAL/MOL
REMARK 924 INTRA-LIGAND FREE ENERGY PREDICTED BY IDOCK:   -0.32 KCAL/MOL
REMARK 927      BINDING AFFINITY PREDICTED BY RF-SCORE:    0.00 PKD
ROOT
HETATM    1  O   UNL     1     -13.312  11.631  72.146  1.00  0.00    -0.491 OA 
HETATM    2  C   UNL     1     -13.396  12.972  71.982  1.00  0.00    -0.492 C  
HETATM    3  O   UNL     1     -14.123  13.667  72.673  1.00  0.00    -0.746 OA 
HETATM    4  C   UNL     1     -12.498  13.472  70.871  1.00  0.00    -0.448 C  
ENDROOT
BRANCH   4   5
HETATM    5  C   UNL     1     -12.608  14.986  70.702  1.00  0.00    -0.429 C  
BRANCH   5   6
HETATM    6  C   UNL     1     -11.627  15.521  69.658  1.00  0.00    -0.359 C  
BRANCH   6   7
HETATM    7  C   UNL     1     -11.627  14.630  68.414  1.00  0.00    -0.351 C  
BRANCH   7   8
HETATM    8  C   UNL     1     -11.168  15.386  67.166  1.00  0.00    -0.256 C  
BRANCH   8   9
HETATM    9  C   UNL     1     -10.632  14.418  66.108  1.00  0.00    -0.298 C  
BRANCH   9  10
HETATM   10  C   UNL     1     -11.572  13.232  65.901  1.00  0.00    -0.380 C  
HETATM   11  C   UNL     1     -12.499  13.447  64.726  1.00  0.00    -0.365 C  
HETATM   12  O   UNL     1     -13.335  12.399  64.536  1.00  0.00    -0.800 OA 
HETATM   13  O   UNL     1     -12.521  14.435  64.012  1.00  0.00    -0.748 OA 
ENDBRANCH   9  10
ENDBRANCH   8   9
ENDBRANCH   7   8
ENDBRANCH   6   7
ENDBRANCH   5   6
ENDBRANCH   4   5
TORSDOF 6
ENDMDL
MODEL       12
REMARK 921   NORMALIZED FREE ENERGY PREDICTED BY IDOCK:   -4.53 KCAL/MOL
REMARK 922        TOTAL FREE ENERGY PREDICTED BY IDOCK:   -6.47 KCAL/MOL
REMARK 923 INTER-LIGAND FREE ENERGY PREDICTED BY IDOCK:   -5.75 KCAL/MOL
REMARK 924 INTRA-LIGAND FREE ENERGY PREDICTED BY IDOCK:   -0.72 KCAL/MOL
REMARK 927      BINDING AFFINITY PREDICTED BY RF-SCORE:    0.00 PKD
ROOT
HETATM    1  O   UNL     1      -9.390  11.429  62.834  1.00  0.00    -0.355 OA 
HETATM    2  C   UNL     1     -10.264  11.524  63.865  1.00  0.00    -0.362 C  
HETATM    3  O   UNL     1     -10.024  11.056  64.965  1.00  0.00    -0.245 OA 
HETATM    4  C   UNL     1     -11.527  12.262  63.479  1.00  0.00    -0.558 C  
ENDROOT
BRANCH   4   5
HETATM    5  C   UNL     1     -12.499  12.358  64.655  1.00  0.00    -0.500 C  
BRANCH   5   6
HETATM    6  C   UNL     1     -12.563  13.771  65.235  1.00  0.00    -0.510 C  
BRANCH   6   7
HETATM    7  C   UNL     1     -12.108  13.774  66.696  1.00  0.00    -0.471 C  
BRANCH   7   8
HETATM    8  C   UNL     1     -10.609  14.049  66.829  1.00  0.00    -0.277 C  
BRANCH   8   9
HETATM    9  C   UNL     1     -10.114  14.942  65.690  1.00  0.00    -0.387 C  
BRANCH   9  10
HETATM   10  C   UNL     1     -10.023  16.405  66.117  1.00  0.00    -0.360 C  
HETATM   11  C   UNL     1     -10.771  17.316  65.169  1.00  0.00     0.064 C  
HETATM   12  O   UNL     1     -10.695  18.615  65.542  1.00  0.00    -0.577 OA 
HETATM   13  O   UNL     1     -11.381  16.957  64.176  1.00  0.00    -1.208 OA 
ENDBRANCH   9  10
ENDBRANCH   8   9
ENDBRANCH   7   8
ENDBRANCH   6   7
ENDBRANCH   5   6
ENDBRANCH   4   5
TORSDOF 6
ENDMDL
MODEL       13
REMARK 921   NORMALIZED FREE ENERGY PREDICTED BY IDOCK:   -4.50 KCAL/MOL
REMARK 922        TOTAL FREE ENERGY PREDICTED BY IDOCK:   -6.43 KCAL/MOL
REMARK 923 INTER-LIGAND FREE ENERGY PREDICTED BY IDOCK:   -6.25 KCAL/MOL
REMARK 924 INTRA-LIGAND FREE ENERGY PREDICTED BY IDOCK:   -0.18 KCAL/MOL
REMARK 927      BINDING AFFINITY PREDICTED BY RF-SCORE:    0.00 PKD
ROOT
HETATM    1  O   UNL     1     -13.352  11.760  72.193  1.00  0.00    -0.497 OA 
HETATM    2  C   UNL     1     -13.467  13.090  71.966  1.00  0.00    -0.492 C  
HETATM    3  O   UNL     1     -14.280  13.782  72.557  1.00  0.00    -0.706 OA 
HETATM    4  C   UNL     1     -12.487  13.581  70.923  1.00  0.00    -0.448 C  
ENDROOT
BRANCH   4   5
HETATM    5  C   UNL     1     -12.633  15.082  70.681  1.00  0.00    -0.429 C  
BRANCH   5   6
HETATM    6  C   UNL     1     -11.343  15.708  70.148  1.00  0.00    -0.354 C  
BRANCH   6   7
HETATM    7  C   UNL     1     -11.308  15.647  68.620  1.00  0.00    -0.359 C  
BRANCH   7   8
HETATM    8  C   UNL     1     -10.768  14.310  68.110  1.00  0.00    -0.249 C  
BRANCH   8   9
HETATM    9  C   UNL     1     -11.014  14.159  66.607  1.00  0.00    -0.303 C  
BRANCH   9  10
HETATM   10  C   UNL     1     -10.721  15.454  65.854  1.00  0.00    -0.343 C  
HETATM   11  C   UNL     1     -11.638  15.633  64.664  1.00  0.00    -0.249 C  
HETATM   12  O   UNL     1     -11.384  16.780  63.991  1.00  0.00    -1.153 OA 
HETATM   13  O   UNL     1     -12.513  14.856  64.322  1.00  0.00    -0.670 OA 
ENDBRANCH   9  10
ENDBRANCH   8   9
ENDBRANCH   7   8
ENDBRANCH   6   7
ENDBRANCH   5   6
ENDBRANCH   4   5
TORSDOF 6
ENDMDL
MODEL       14
REMARK 921   NORMALIZED FREE ENERGY PREDICTED BY IDOCK:   -4.46 KCAL/MOL
REMARK 922        TOTAL FREE ENERGY PREDICTED BY IDOCK:   -6.38 KCAL/MOL
REMARK 923 INTER-LIGAND FREE ENERGY PREDICTED BY IDOCK:   -5.85 KCAL/MOL
REMARK 924 INTRA-LIGAND FREE ENERGY PREDICTED BY IDOCK:   -0.53 KCAL/MOL
REMARK 927      BINDING AFFINITY PREDICTED BY RF-SCORE:    0.00 PKD
ROOT
HETATM    1  O   UNL     1     -12.863  12.359  63.741  1.00  0.00    -0.734 OA 
HETATM    2  C   UNL     1     -12.658  12.953  64.941  1.00  0.00    -0.458 C  
HETATM    3  O   UNL     1     -13.183  14.013  65.240  1.00  0.00    -0.782 OA 
HETATM    4  C   UNL     1     -11.728  12.152  65.826  1.00  0.00    -0.391 C  
ENDROOT
BRANCH   4   5
HETATM    5  C   UNL     1     -11.509  12.839  67.173  1.00  0.00    -0.394 C  
BRANCH   5   6
HETATM    6  C   UNL     1     -10.051  12.764  67.627  1.00  0.00    -0.220 C  
BRANCH   6   7
HETATM    7  C   UNL     1      -9.618  14.087  68.264  1.00  0.00    -0.224 C  
BRANCH   7   8
HETATM    8  C   UNL     1      -8.474  14.747  67.494  1.00  0.00    -0.204 C  
BRANCH   8   9
HETATM    9  C   UNL     1      -8.944  16.036  66.815  1.00  0.00    -0.275 C  
BRANCH   9  10
HETATM   10  C   UNL     1      -9.888  15.748  65.650  1.00  0.00    -0.357 C  
HETATM   11  C   UNL     1     -10.623  16.991  65.200  1.00  0.00    -0.015 C  
HETATM   12  O   UNL     1     -11.461  16.743  64.167  1.00  0.00    -1.171 OA 
HETATM   13  O   UNL     1     -10.500  18.102  65.687  1.00  0.00    -0.626 OA 
ENDBRANCH   9  10
ENDBRANCH   8   9
ENDBRANCH   7   8
ENDBRANCH   6   7
ENDBRANCH   5   6
ENDBRANCH   4   5
TORSDOF 6
ENDMDL
MODEL       15
REMARK 921   NORMALIZED FREE ENERGY PREDICTED BY IDOCK:   -4.45 KCAL/MOL
REMARK 922        TOTAL FREE ENERGY PREDICTED BY IDOCK:   -6.37 KCAL/MOL
REMARK 923 INTER-LIGAND FREE ENERGY PREDICTED BY IDOCK:   -6.01 KCAL/MOL
REMARK 924 INTRA-LIGAND FREE ENERGY PREDICTED BY IDOCK:   -0.36 KCAL/MOL
REMARK 927      BINDING AFFINITY PREDICTED BY RF-SCORE:    0.00 PKD
ROOT
HETATM    1  O   UNL     1     -12.971  12.246  64.104  1.00  0.00    -0.721 OA 
HETATM    2  C   UNL     1     -12.586  13.286  64.881  1.00  0.00    -0.384 C  
HETATM    3  O   UNL     1     -12.715  14.445  64.524  1.00  0.00    -0.663 OA 
HETATM    4  C   UNL     1     -11.999  12.831  66.199  1.00  0.00    -0.476 C  
ENDROOT
BRANCH   4   5
HETATM    5  C   UNL     1     -11.571  14.020  67.059  1.00  0.00    -0.394 C  
BRANCH   5   6
HETATM    6  C   UNL     1     -10.884  13.576  68.352  1.00  0.00    -0.286 C  
BRANCH   6   7
HETATM    7  C   UNL     1     -11.735  12.535  69.083  1.00  0.00    -0.375 C  
BRANCH   7   8
HETATM    8  C   UNL     1     -12.199  13.031  70.453  1.00  0.00    -0.386 C  
BRANCH   8   9
HETATM    9  C   UNL     1     -11.915  14.526  70.617  1.00  0.00    -0.387 C  
BRANCH   9  10
HETATM   10  C   UNL     1     -13.084  15.254  71.276  1.00  0.00    -0.540 C  
HETATM   11  C   UNL     1     -12.841  15.491  72.750  1.00  0.00    -0.435 C  
HETATM   12  O   UNL     1     -13.874  16.136  73.341  1.00  0.00    -0.558 OA 
HETATM   13  O   UNL     1     -11.845  15.154  73.366  1.00  0.00    -0.406 OA 
ENDBRANCH   9  10
ENDBRANCH   8   9
ENDBRANCH   7   8
ENDBRANCH   6   7
ENDBRANCH   5   6
ENDBRANCH   4   5
TORSDOF 6
ENDMDL
MODEL       16
REMARK 921   NORMALIZED FREE ENERGY PREDICTED BY IDOCK:   -4.43 KCAL/MOL
REMARK 922        TOTAL FREE ENERGY PREDICTED BY IDOCK:   -6.34 KCAL/MOL
REMARK 923 INTER-LIGAND FREE ENERGY PREDICTED BY IDOCK:   -5.79 KCAL/MOL
REMARK 924 INTRA-LIGAND FREE ENERGY PREDICTED BY IDOCK:   -0.55 KCAL/MOL
REMARK 927      BINDING AFFINITY PREDICTED BY RF-SCORE:    0.00 PKD
ROOT
HETATM    1  O   UNL     1     -12.588  13.699  63.045  1.00  0.00    -0.729 OA 
HETATM    2  C   UNL     1     -12.233  13.283  64.283  1.00  0.00    -0.392 C  
HETATM    3  O   UNL     1     -13.029  12.765  65.049  1.00  0.00    -0.811 OA 
HETATM    4  C   UNL     1     -10.770  13.536  64.575  1.00  0.00    -0.431 C  
ENDROOT
BRANCH   4   5
HETATM    5  C   UNL     1     -10.389  13.061  65.977  1.00  0.00    -0.293 C  
BRANCH   5   6
HETATM    6  C   UNL     1     -10.151  14.228  66.936  1.00  0.00    -0.264 C  
BRANCH   6   7
HETATM    7  C   UNL     1     -11.370  14.442  67.836  1.00  0.00    -0.322 C  
BRANCH   7   8
HETATM    8  C   UNL     1     -11.493  15.894  68.299  1.00  0.00    -0.320 C  
BRANCH   8   9
HETATM    9  C   UNL     1     -10.194  16.661  68.045  1.00  0.00    -0.280 C  
BRANCH   9  10
HETATM   10  C   UNL     1     -10.462  18.114  67.658  1.00  0.00    -0.432 C  
HETATM   11  C   UNL     1     -10.489  18.302  66.158  1.00  0.00    -0.383 C  
HETATM   12  O   UNL     1     -10.726  19.588  65.808  1.00  0.00    -0.503 OA 
HETATM   13  O   UNL     1     -10.320  17.422  65.331  1.00  0.00    -0.631 OA 
ENDBRANCH   9  10
ENDBRANCH   8   9
ENDBRANCH   7   8
ENDBRANCH   6   7
ENDBRANCH   5   6
ENDBRANCH   4   5
TORSDOF 6
ENDMDL
MODEL       17
REMARK 921   NORMALIZED FREE ENERGY PREDICTED BY IDOCK:   -4.42 KCAL/MOL
REMARK 922        TOTAL FREE ENERGY PREDICTED BY IDOCK:   -6.32 KCAL/MOL
REMARK 923 INTER-LIGAND FREE ENERGY PREDICTED BY IDOCK:   -6.03 KCAL/MOL
REMARK 924 INTRA-LIGAND FREE ENERGY PREDICTED BY IDOCK:   -0.29 KCAL/MOL
REMARK 927      BINDING AFFINITY PREDICTED BY RF-SCORE:    0.00 PKD
ROOT
HETATM    1  O   UNL     1     -12.505  17.155  73.959  1.00  0.00    -0.272 OA 
HETATM    2  C   UNL     1     -12.633  15.840  73.666  1.00  0.00    -0.592 C  
HETATM    3  O   UNL     1     -12.193  14.965  74.393  1.00  0.00    -0.578 OA 
HETATM    4  C   UNL     1     -13.370  15.612  72.363  1.00  0.00    -0.576 C  
ENDROOT
BRANCH   4   5
HETATM    5  C   UNL     1     -13.503  14.122  72.050  1.00  0.00    -0.518 C  
BRANCH   5   6
HETATM    6  C   UNL     1     -12.465  13.653  71.029  1.00  0.00    -0.456 C  
BRANCH   6   7
HETATM    7  C   UNL     1     -12.346  14.660  69.883  1.00  0.00    -0.341 C  
BRANCH   7   8
HETATM    8  C   UNL     1     -11.260  14.264  68.882  1.00  0.00    -0.289 C  
BRANCH   8   9
HETATM    9  C   UNL     1     -11.694  14.588  67.450  1.00  0.00    -0.425 C  
BRANCH   9  10
HETATM   10  C   UNL     1     -12.316  13.376  66.760  1.00  0.00    -0.287 C  
HETATM   11  C   UNL     1     -12.385  13.556  65.260  1.00  0.00    -0.467 C  
HETATM   12  O   UNL     1     -12.935  12.485  64.642  1.00  0.00    -0.803 OA 
HETATM   13  O   UNL     1     -12.000  14.536  64.646  1.00  0.00    -0.425 OA 
ENDBRANCH   9  10
ENDBRANCH   8   9
ENDBRANCH   7   8
ENDBRANCH   6   7
ENDBRANCH   5   6
ENDBRANCH   4   5
TORSDOF 6
ENDMDL
MODEL       18
REMARK 921   NORMALIZED FREE ENERGY PREDICTED BY IDOCK:   -4.38 KCAL/MOL
REMARK 922        TOTAL FREE ENERGY PREDICTED BY IDOCK:   -6.27 KCAL/MOL
REMARK 923 INTER-LIGAND FREE ENERGY PREDICTED BY IDOCK:   -5.96 KCAL/MOL
REMARK 924 INTRA-LIGAND FREE ENERGY PREDICTED BY IDOCK:   -0.31 KCAL/MOL
REMARK 927      BINDING AFFINITY PREDICTED BY RF-SCORE:    0.00 PKD
ROOT
HETATM    1  O   UNL     1     -12.479  12.844  63.227  1.00  0.00    -0.685 OA 
HETATM    2  C   UNL     1     -12.411  13.744  64.237  1.00  0.00    -0.337 C  
HETATM    3  O   UNL     1     -12.528  14.943  64.048  1.00  0.00    -0.807 OA 
HETATM    4  C   UNL     1     -12.181  13.083  65.579  1.00  0.00    -0.521 C  
ENDROOT
BRANCH   4   5
HETATM    5  C   UNL     1     -12.107  14.114  66.704  1.00  0.00    -0.480 C  
BRANCH   5   6
HETATM    6  C   UNL     1     -11.899  13.460  68.071  1.00  0.00    -0.392 C  
BRANCH   6   7
HETATM    7  C   UNL     1     -11.321  12.052  67.911  1.00  0.00    -0.369 C  
BRANCH   7   8
HETATM    8  C   UNL     1     -12.028  11.036  68.810  1.00  0.00    -0.295 C  
BRANCH   8   9
HETATM    9  C   UNL     1     -11.958  11.464  70.277  1.00  0.00    -0.460 C  
BRANCH   9  10
HETATM   10  C   UNL     1     -12.763  10.529  71.177  1.00  0.00    -0.518 C  
HETATM   11  C   UNL     1     -11.914   9.404  71.725  1.00  0.00    -0.382 C  
HETATM   12  O   UNL     1     -12.622   8.571  72.523  1.00  0.00    -0.376 OA 
HETATM   13  O   UNL     1     -10.729   9.235  71.495  1.00  0.00    -0.334 OA 
ENDBRANCH   9  10
ENDBRANCH   8   9
ENDBRANCH   7   8
ENDBRANCH   6   7
ENDBRANCH   5   6
ENDBRANCH   4   5
TORSDOF 6
ENDMDL
MODEL       19
REMARK 921   NORMALIZED FREE ENERGY PREDICTED BY IDOCK:   -4.33 KCAL/MOL
REMARK 922        TOTAL FREE ENERGY PREDICTED BY IDOCK:   -6.20 KCAL/MOL
REMARK 923 INTER-LIGAND FREE ENERGY PREDICTED BY IDOCK:   -5.56 KCAL/MOL
REMARK 924 INTRA-LIGAND FREE ENERGY PREDICTED BY IDOCK:   -0.64 KCAL/MOL
REMARK 927      BINDING AFFINITY PREDICTED BY RF-SCORE:    0.00 PKD
ROOT
HETATM    1  O   UNL     1     -12.536  14.041  63.445  1.00  0.00    -0.845 OA 
HETATM    2  C   UNL     1     -12.242  12.720  63.475  1.00  0.00    -0.525 C  
HETATM    3  O   UNL     1     -13.107  11.860  63.442  1.00  0.00    -0.710 OA 
HETATM    4  C   UNL     1     -10.752  12.466  63.550  1.00  0.00    -0.473 C  
ENDROOT
BRANCH   4   5
HETATM    5  C   UNL     1     -10.441  10.970  63.583  1.00  0.00    -0.388 C  
BRANCH   5   6
HETATM    6  C   UNL     1      -9.735  10.558  64.876  1.00  0.00    -0.360 C  
BRANCH   6   7
HETATM    7  C   UNL     1      -9.737  11.713  65.881  1.00  0.00    -0.260 C  
BRANCH   7   8
HETATM    8  C   UNL     1     -10.295  11.290  67.240  1.00  0.00    -0.236 C  
BRANCH   8   9
HETATM    9  C   UNL     1     -11.697  11.865  67.458  1.00  0.00    -0.335 C  
BRANCH   9  10
HETATM   10  C   UNL     1     -11.722  13.379  67.265  1.00  0.00    -0.424 C  
HETATM   11  C   UNL     1     -11.862  14.112  68.581  1.00  0.00    -0.348 C  
HETATM   12  O   UNL     1     -11.886  15.456  68.417  1.00  0.00    -0.347 OA 
HETATM   13  O   UNL     1     -11.948  13.587  69.678  1.00  0.00    -0.310 OA 
ENDBRANCH   9  10
ENDBRANCH   8   9
ENDBRANCH   7   8
ENDBRANCH   6   7
ENDBRANCH   5   6
ENDBRANCH   4   5
TORSDOF 6
ENDMDL
MODEL       20
REMARK 921   NORMALIZED FREE ENERGY PREDICTED BY IDOCK:   -4.32 KCAL/MOL
REMARK 922        TOTAL FREE ENERGY PREDICTED BY IDOCK:   -6.19 KCAL/MOL
REMARK 923 INTER-LIGAND FREE ENERGY PREDICTED BY IDOCK:   -5.92 KCAL/MOL
REMARK 924 INTRA-LIGAND FREE ENERGY PREDICTED BY IDOCK:   -0.27 KCAL/MOL
REMARK 927      BINDING AFFINITY PREDICTED BY RF-SCORE:    0.00 PKD
ROOT
HETATM    1  O   UNL     1     -13.639   9.438  72.614  1.00  0.00    -0.425 OA 
HETATM    2  C   UNL     1     -13.079  10.438  71.892  1.00  0.00    -0.458 C  
HETATM    3  O   UNL     1     -13.369  11.610  72.071  1.00  0.00    -0.481 OA 
HETATM    4  C   UNL     1     -12.083   9.924  70.876  1.00  0.00    -0.431 C  
ENDROOT
BRANCH   4   5
HETATM    5  C   UNL     1     -11.463  11.067  70.073  1.00  0.00    -0.398 C  
BRANCH   5   6
HETATM    6  C   UNL     1     -10.549  10.557  68.958  1.00  0.00    -0.250 C  
BRANCH   6   7
HETATM    7  C   UNL     1     -11.109  10.940  67.586  1.00  0.00    -0.376 C  
BRANCH   7   8
HETATM    8  C   UNL     1     -10.671  12.341  67.158  1.00  0.00    -0.265 C  
BRANCH   8   9
HETATM    9  C   UNL     1     -11.835  13.330  67.251  1.00  0.00    -0.421 C  
BRANCH   9  10
HETATM   10  C   UNL     1     -11.849  14.298  66.070  1.00  0.00    -0.399 C  
HETATM   11  C   UNL     1     -12.571  13.718  64.874  1.00  0.00    -0.341 C  
HETATM   12  O   UNL     1     -12.587  14.571  63.823  1.00  0.00    -0.825 OA 
HETATM   13  O   UNL     1     -13.089  12.615  64.827  1.00  0.00    -0.852 OA 
ENDBRANCH   9  10
ENDBRANCH   8   9
ENDBRANCH   7   8
ENDBRANCH   6   7
ENDBRANCH   5   6
ENDBRANCH   4   5
TORSDOF 6
ENDMDL
MODEL       21
REMARK 921   NORMALIZED FREE ENERGY PREDICTED BY IDOCK:   -4.32 KCAL/MOL
REMARK 922        TOTAL FREE ENERGY PREDICTED BY IDOCK:   -6.18 KCAL/MOL
REMARK 923 INTER-LIGAND FREE ENERGY PREDICTED BY IDOCK:   -5.95 KCAL/MOL
REMARK 924 INTRA-LIGAND FREE ENERGY PREDICTED BY IDOCK:   -0.23 KCAL/MOL
REMARK 927      BINDING AFFINITY PREDICTED BY RF-SCORE:    0.00 PKD
ROOT
HETATM    1  O   UNL     1     -11.399  16.705  64.191  1.00  0.00    -1.141 OA 
HETATM    2  C   UNL     1     -11.725  15.406  64.388  1.00  0.00    -0.258 C  
HETATM    3  O   UNL     1     -12.711  14.899  63.879  1.00  0.00    -0.789 OA 
HETATM    4  C   UNL     1     -10.737  14.696  65.288  1.00  0.00    -0.396 C  
ENDROOT
BRANCH   4   5
HETATM    5  C   UNL     1     -11.122  13.233  65.497  1.00  0.00    -0.299 C  
BRANCH   5   6
HETATM    6  C   UNL     1     -11.892  13.021  66.802  1.00  0.00    -0.451 C  
BRANCH   6   7
HETATM    7  C   UNL     1     -10.946  13.097  68.002  1.00  0.00    -0.270 C  
BRANCH   7   8
HETATM    8  C   UNL     1     -11.675  12.849  69.324  1.00  0.00    -0.378 C  
BRANCH   8   9
HETATM    9  C   UNL     1     -11.611  11.370  69.713  1.00  0.00    -0.407 C  
BRANCH   9  10
HETATM   10  C   UNL     1     -12.535  11.056  70.888  1.00  0.00    -0.509 C  
HETATM   11  C   UNL     1     -12.464   9.598  71.285  1.00  0.00    -0.355 C  
HETATM   12  O   UNL     1     -13.281   9.312  72.326  1.00  0.00    -0.417 OA 
HETATM   13  O   UNL     1     -11.767   8.752  70.752  1.00  0.00    -0.279 OA 
ENDBRANCH   9  10
ENDBRANCH   8   9
ENDBRANCH   7   8
ENDBRANCH   6   7
ENDBRANCH   5   6
ENDBRANCH   4   5
TORSDOF 6
ENDMDL
MODEL       22
REMARK 921   NORMALIZED FREE ENERGY PREDICTED BY IDOCK:   -4.31 KCAL/MOL
REMARK 922        TOTAL FREE ENERGY PREDICTED BY IDOCK:   -6.18 KCAL/MOL
REMARK 923 INTER-LIGAND FREE ENERGY PREDICTED BY IDOCK:   -5.82 KCAL/MOL
REMARK 924 INTRA-LIGAND FREE ENERGY PREDICTED BY IDOCK:   -0.36 KCAL/MOL
REMARK 927      BINDING AFFINITY PREDICTED BY RF-SCORE:    0.00 PKD
ROOT
HETATM    1  O   UNL     1     -12.651  14.205  63.608  1.00  0.00    -0.831 OA 
HETATM    2  C   UNL     1     -12.384  12.943  64.019  1.00  0.00    -0.380 C  
HETATM    3  O   UNL     1     -13.239  12.223  64.506  1.00  0.00    -0.799 OA 
HETATM    4  C   UNL     1     -10.936  12.562  63.797  1.00  0.00    -0.496 C  
ENDROOT
BRANCH   4   5
HETATM    5  C   UNL     1     -10.655  11.136  64.266  1.00  0.00    -0.425 C  
BRANCH   5   6
HETATM    6  C   UNL     1      -9.777  11.104  65.518  1.00  0.00    -0.271 C  
BRANCH   6   7
HETATM    7  C   UNL     1     -10.511  10.418  66.672  1.00  0.00    -0.279 C  
BRANCH   7   8
HETATM    8  C   UNL     1     -11.182  11.426  67.607  1.00  0.00    -0.346 C  
BRANCH   8   9
HETATM    9  C   UNL     1     -11.646  10.749  68.898  1.00  0.00    -0.361 C  
BRANCH   9  10
HETATM   10  C   UNL     1     -12.032  11.771  69.965  1.00  0.00    -0.421 C  
HETATM   11  C   UNL     1     -12.873  11.153  71.059  1.00  0.00    -0.329 C  
HETATM   12  O   UNL     1     -13.219  12.054  72.008  1.00  0.00    -0.499 OA 
HETATM   13  O   UNL     1     -13.218   9.985  71.113  1.00  0.00    -0.384 OA 
ENDBRANCH   9  10
ENDBRANCH   8   9
ENDBRANCH   7   8
ENDBRANCH   6   7
ENDBRANCH   5   6
ENDBRANCH   4   5
TORSDOF 6
ENDMDL
MODEL       23
REMARK 921   NORMALIZED FREE ENERGY PREDICTED BY IDOCK:   -4.31 KCAL/MOL
REMARK 922        TOTAL FREE ENERGY PREDICTED BY IDOCK:   -6.17 KCAL/MOL
REMARK 923 INTER-LIGAND FREE ENERGY PREDICTED BY IDOCK:   -5.84 KCAL/MOL
REMARK 924 INTRA-LIGAND FREE ENERGY PREDICTED BY IDOCK:   -0.33 KCAL/MOL
REMARK 927      BINDING AFFINITY PREDICTED BY RF-SCORE:    0.00 PKD
ROOT
HETATM    1  O   UNL     1     -11.298  11.619  63.076  1.00  0.00    -0.165 OA 
HETATM    2  C   UNL     1     -12.196  12.227  63.886  1.00  0.00    -0.515 C  
HETATM    3  O   UNL     1     -13.351  11.846  63.979  1.00  0.00    -0.646 OA 
HETATM    4  C   UNL     1     -11.594  13.398  64.633  1.00  0.00    -0.386 C  
ENDROOT
BRANCH   4   5
HETATM    5  C   UNL     1     -12.622  14.071  65.541  1.00  0.00    -0.543 C  
BRANCH   5   6
HETATM    6  C   UNL     1     -12.150  14.140  66.993  1.00  0.00    -0.449 C  
BRANCH   6   7
HETATM    7  C   UNL     1     -11.427  12.850  67.386  1.00  0.00    -0.388 C  
BRANCH   7   8
HETATM    8  C   UNL     1     -11.429  12.627  68.899  1.00  0.00    -0.354 C  
BRANCH   8   9
HETATM    9  C   UNL     1     -11.989  13.850  69.629  1.00  0.00    -0.399 C  
BRANCH   9  10
HETATM   10  C   UNL     1     -12.574  13.476  70.990  1.00  0.00    -0.438 C  
HETATM   11  C   UNL     1     -13.495  14.552  71.521  1.00  0.00    -0.374 C  
HETATM   12  O   UNL     1     -14.017  14.227  72.727  1.00  0.00    -0.600 OA 
HETATM   13  O   UNL     1     -13.758  15.600  70.958  1.00  0.00    -0.582 OA 
ENDBRANCH   9  10
ENDBRANCH   8   9
ENDBRANCH   7   8
ENDBRANCH   6   7
ENDBRANCH   5   6
ENDBRANCH   4   5
TORSDOF 6
ENDMDL
MODEL       24
REMARK 921   NORMALIZED FREE ENERGY PREDICTED BY IDOCK:   -4.29 KCAL/MOL
REMARK 922        TOTAL FREE ENERGY PREDICTED BY IDOCK:   -6.14 KCAL/MOL
REMARK 923 INTER-LIGAND FREE ENERGY PREDICTED BY IDOCK:   -5.79 KCAL/MOL
REMARK 924 INTRA-LIGAND FREE ENERGY PREDICTED BY IDOCK:   -0.35 KCAL/MOL
REMARK 927      BINDING AFFINITY PREDICTED BY RF-SCORE:    0.00 PKD
ROOT
HETATM    1  O   UNL     1     -11.562   9.209  71.938  1.00  0.00    -0.358 OA 
HETATM    2  C   UNL     1     -12.103  10.194  71.182  1.00  0.00    -0.388 C  
HETATM    3  O   UNL     1     -13.116  10.787  71.514  1.00  0.00    -0.406 OA 
HETATM    4  C   UNL     1     -11.309  10.450  69.920  1.00  0.00    -0.370 C  
ENDROOT
BRANCH   4   5
HETATM    5  C   UNL     1     -11.935  11.563  69.081  1.00  0.00    -0.386 C  
BRANCH   5   6
HETATM    6  C   UNL     1     -11.303  12.926  69.369  1.00  0.00    -0.265 C  
BRANCH   6   7
HETATM    7  C   UNL     1     -10.956  13.644  68.063  1.00  0.00    -0.270 C  
BRANCH   7   8
HETATM    8  C   UNL     1     -11.840  13.185  66.903  1.00  0.00    -0.444 C  
BRANCH   8   9
HETATM    9  C   UNL     1     -11.082  13.262  65.576  1.00  0.00    -0.299 C  
BRANCH   9  10
HETATM   10  C   UNL     1     -10.773  14.706  65.185  1.00  0.00    -0.430 C  
HETATM   11  C   UNL     1     -11.805  15.264  64.232  1.00  0.00    -0.225 C  
HETATM   12  O   UNL     1     -11.537  16.544  63.881  1.00  0.00    -1.175 OA 
HETATM   13  O   UNL     1     -12.777  14.662  63.807  1.00  0.00    -0.778 OA 
ENDBRANCH   9  10
ENDBRANCH   8   9
ENDBRANCH   7   8
ENDBRANCH   6   7
ENDBRANCH   5   6
ENDBRANCH   4   5
TORSDOF 6
ENDMDL
MODEL       25
REMARK 921   NORMALIZED FREE ENERGY PREDICTED BY IDOCK:   -4.25 KCAL/MOL
REMARK 922        TOTAL FREE ENERGY PREDICTED BY IDOCK:   -6.09 KCAL/MOL
REMARK 923 INTER-LIGAND FREE ENERGY PREDICTED BY IDOCK:   -5.56 KCAL/MOL
REMARK 924 INTRA-LIGAND FREE ENERGY PREDICTED BY IDOCK:   -0.53 KCAL/MOL
REMARK 927      BINDING AFFINITY PREDICTED BY RF-SCORE:    0.00 PKD
ROOT
HETATM    1  O   UNL     1     -11.539  16.515  63.751  1.00  0.00    -1.109 OA 
HETATM    2  C   UNL     1     -10.991  15.695  64.678  1.00  0.00    -0.325 C  
HETATM    3  O   UNL     1      -9.927  15.946  65.220  1.00  0.00    -0.424 OA 
HETATM    4  C   UNL     1     -11.845  14.474  64.941  1.00  0.00    -0.417 C  
ENDROOT
BRANCH   4   5
HETATM    5  C   UNL     1     -11.209  13.562  65.989  1.00  0.00    -0.305 C  
BRANCH   5   6
HETATM    6  C   UNL     1     -11.883  13.697  67.355  1.00  0.00    -0.429 C  
BRANCH   6   7
HETATM    7  C   UNL     1     -11.047  14.583  68.281  1.00  0.00    -0.275 C  
BRANCH   7   8
HETATM    8  C   UNL     1     -11.653  15.978  68.442  1.00  0.00    -0.279 C  
BRANCH   8   9
HETATM    9  C   UNL     1     -10.558  17.030  68.630  1.00  0.00    -0.362 C  
BRANCH   9  10
HETATM   10  C   UNL     1     -10.635  18.122  67.565  1.00  0.00    -0.419 C  
HETATM   11  C   UNL     1     -10.135  19.452  68.084  1.00  0.00    -0.425 C  
HETATM   12  O   UNL     1     -10.201  20.425  67.146  1.00  0.00    -0.405 OA 
HETATM   13  O   UNL     1      -9.715  19.660  69.210  1.00  0.00    -0.386 OA 
ENDBRANCH   9  10
ENDBRANCH   8   9
ENDBRANCH   7   8
ENDBRANCH   6   7
ENDBRANCH   5   6
ENDBRANCH   4   5
TORSDOF 6
ENDMDL
MODEL       26
REMARK 921   NORMALIZED FREE ENERGY PREDICTED BY IDOCK:   -4.24 KCAL/MOL
REMARK 922        TOTAL FREE ENERGY PREDICTED BY IDOCK:   -6.08 KCAL/MOL
REMARK 923 INTER-LIGAND FREE ENERGY PREDICTED BY IDOCK:   -5.63 KCAL/MOL
REMARK 924 INTRA-LIGAND FREE ENERGY PREDICTED BY IDOCK:   -0.45 KCAL/MOL
REMARK 927      BINDING AFFINITY PREDICTED BY RF-SCORE:    0.00 PKD
ROOT
HETATM    1  O   UNL     1     -10.007  16.874  65.216  1.00  0.00    -0.526 OA 
HETATM    2  C   UNL     1     -10.980  16.105  64.673  1.00  0.00    -0.245 C  
HETATM    3  O   UNL     1     -11.774  16.542  63.858  1.00  0.00    -1.148 OA 
HETATM    4  C   UNL     1     -10.946  14.685  65.195  1.00  0.00    -0.395 C  
ENDROOT
BRANCH   4   5
HETATM    5  C   UNL     1     -12.051  13.834  64.571  1.00  0.00    -0.463 C  
BRANCH   5   6
HETATM    6  C   UNL     1     -12.189  12.475  65.260  1.00  0.00    -0.493 C  
BRANCH   6   7
HETATM    7  C   UNL     1     -11.003  12.222  66.192  1.00  0.00    -0.328 C  
BRANCH   7   8
HETATM    8  C   UNL     1     -11.445  12.026  67.643  1.00  0.00    -0.392 C  
BRANCH   8   9
HETATM    9  C   UNL     1     -10.899  13.143  68.536  1.00  0.00    -0.285 C  
BRANCH   9  10
HETATM   10  C   UNL     1     -12.023  13.915  69.224  1.00  0.00    -0.402 C  
HETATM   11  C   UNL     1     -11.489  15.043  70.079  1.00  0.00    -0.276 C  
HETATM   12  O   UNL     1     -12.480  15.732  70.692  1.00  0.00    -0.420 OA 
HETATM   13  O   UNL     1     -10.312  15.327  70.222  1.00  0.00    -0.253 OA 
ENDBRANCH   9  10
ENDBRANCH   8   9
ENDBRANCH   7   8
ENDBRANCH   6   7
ENDBRANCH   5   6
ENDBRANCH   4   5
TORSDOF 6
ENDMDL
MODEL       27
REMARK 921   NORMALIZED FREE ENERGY PREDICTED BY IDOCK:   -4.23 KCAL/MOL
REMARK 922        TOTAL FREE ENERGY PREDICTED BY IDOCK:   -6.07 KCAL/MOL
REMARK 923 INTER-LIGAND FREE ENERGY PREDICTED BY IDOCK:   -5.62 KCAL/MOL
REMARK 924 INTRA-LIGAND FREE ENERGY PREDICTED BY IDOCK:   -0.44 KCAL/MOL
REMARK 927      BINDING AFFINITY PREDICTED BY RF-SCORE:    0.00 PKD
ROOT
HETATM    1  O   UNL     1     -10.707  19.406  65.360  1.00  0.00    -0.468 OA 
HETATM    2  C   UNL     1     -10.555  19.230  66.694  1.00  0.00    -0.438 C  
HETATM    3  O   UNL     1     -10.630  20.156  67.485  1.00  0.00    -0.321 OA 
HETATM    4  C   UNL     1     -10.291  17.784  67.055  1.00  0.00    -0.344 C  
ENDROOT
BRANCH   4   5
HETATM    5  C   UNL     1     -10.122  17.607  68.563  1.00  0.00    -0.375 C  
BRANCH   5   6
HETATM    6  C   UNL     1     -10.413  16.174  69.010  1.00  0.00    -0.261 C  
BRANCH   6   7
HETATM    7  C   UNL     1     -11.418  15.510  68.066  1.00  0.00    -0.313 C  
BRANCH   7   8
HETATM    8  C   UNL     1     -11.584  14.018  68.361  1.00  0.00    -0.366 C  
BRANCH   8   9
HETATM    9  C   UNL     1     -11.667  13.211  67.063  1.00  0.00    -0.431 C  
BRANCH   9  10
HETATM   10  C   UNL     1     -11.730  14.119  65.837  1.00  0.00    -0.369 C  
HETATM   11  C   UNL     1     -12.552  13.507  64.725  1.00  0.00    -0.301 C  
HETATM   12  O   UNL     1     -12.612  14.306  63.634  1.00  0.00    -0.831 OA 
HETATM   13  O   UNL     1     -13.109  12.423  64.770  1.00  0.00    -0.806 OA 
ENDBRANCH   9  10
ENDBRANCH   8   9
ENDBRANCH   7   8
ENDBRANCH   6   7
ENDBRANCH   5   6
ENDBRANCH   4   5
TORSDOF 6
ENDMDL
MODEL       28
REMARK 921   NORMALIZED FREE ENERGY PREDICTED BY IDOCK:   -4.22 KCAL/MOL
REMARK 922        TOTAL FREE ENERGY PREDICTED BY IDOCK:   -6.05 KCAL/MOL
REMARK 923 INTER-LIGAND FREE ENERGY PREDICTED BY IDOCK:   -5.63 KCAL/MOL
REMARK 924 INTRA-LIGAND FREE ENERGY PREDICTED BY IDOCK:   -0.42 KCAL/MOL
REMARK 927      BINDING AFFINITY PREDICTED BY RF-SCORE:    0.00 PKD
ROOT
HETATM    1  O   UNL     1     -12.565  14.094  63.384  1.00  0.00    -0.818 OA 
HETATM    2  C   UNL     1     -12.104  13.748  64.609  1.00  0.00    -0.421 C  
HETATM    3  O   UNL     1     -12.731  13.980  65.629  1.00  0.00    -0.526 OA 
HETATM    4  C   UNL     1     -10.758  13.060  64.542  1.00  0.00    -0.404 C  
ENDROOT
BRANCH   4   5
HETATM    5  C   UNL     1     -10.255  12.678  65.933  1.00  0.00    -0.290 C  
BRANCH   5   6
HETATM    6  C   UNL     1     -10.771  11.308  66.376  1.00  0.00    -0.320 C  
BRANCH   6   7
HETATM    7  C   UNL     1     -11.543  11.425  67.693  1.00  0.00    -0.315 C  
BRANCH   7   8
HETATM    8  C   UNL     1     -11.059  12.603  68.540  1.00  0.00    -0.300 C  
BRANCH   8   9
HETATM    9  C   UNL     1     -11.819  12.670  69.866  1.00  0.00    -0.364 C  
BRANCH   9  10
HETATM   10  C   UNL     1     -12.120  11.277  70.416  1.00  0.00    -0.474 C  
HETATM   11  C   UNL     1     -13.004  11.335  71.642  1.00  0.00    -0.432 C  
HETATM   12  O   UNL     1     -13.275  10.103  72.135  1.00  0.00    -0.444 OA 
HETATM   13  O   UNL     1     -13.440  12.352  72.153  1.00  0.00    -0.525 OA 
ENDBRANCH   9  10
ENDBRANCH   8   9
ENDBRANCH   7   8
ENDBRANCH   6   7
ENDBRANCH   5   6
ENDBRANCH   4   5
TORSDOF 6
ENDMDL
MODEL       29
REMARK 921   NORMALIZED FREE ENERGY PREDICTED BY IDOCK:   -4.20 KCAL/MOL
REMARK 922        TOTAL FREE ENERGY PREDICTED BY IDOCK:   -6.03 KCAL/MOL
REMARK 923 INTER-LIGAND FREE ENERGY PREDICTED BY IDOCK:   -5.75 KCAL/MOL
REMARK 924 INTRA-LIGAND FREE ENERGY PREDICTED BY IDOCK:   -0.28 KCAL/MOL
REMARK 927      BINDING AFFINITY PREDICTED BY RF-SCORE:    0.00 PKD
ROOT
HETATM    1  O   UNL     1     -13.994  14.038  72.774  1.00  0.00    -0.669 OA 
HETATM    2  C   UNL     1     -13.534  14.874  71.813  1.00  0.00    -0.388 C  
HETATM    3  O   UNL     1     -14.284  15.480  71.066  1.00  0.00    -0.490 OA 
HETATM    4  C   UNL     1     -12.023  14.951  71.794  1.00  0.00    -0.435 C  
ENDROOT
BRANCH   4   5
HETATM    5  C   UNL     1     -11.525  15.898  70.703  1.00  0.00    -0.426 C  
BRANCH   5   6
HETATM    6  C   UNL     1     -10.520  15.223  69.769  1.00  0.00    -0.287 C  
BRANCH   6   7
HETATM    7  C   UNL     1     -11.239  14.295  68.787  1.00  0.00    -0.286 C  
BRANCH   7   8
HETATM    8  C   UNL     1     -11.306  14.890  67.380  1.00  0.00    -0.354 C  
BRANCH   8   9
HETATM    9  C   UNL     1     -12.172  14.025  66.462  1.00  0.00    -0.485 C  
BRANCH   9  10
HETATM   10  C   UNL     1     -11.325  13.229  65.471  1.00  0.00    -0.315 C  
HETATM   11  C   UNL     1     -12.180  12.392  64.546  1.00  0.00    -0.431 C  
HETATM   12  O   UNL     1     -11.435  11.683  63.664  1.00  0.00    -0.418 OA 
HETATM   13  O   UNL     1     -13.397  12.336  64.563  1.00  0.00    -0.769 OA 
ENDBRANCH   9  10
ENDBRANCH   8   9
ENDBRANCH   7   8
ENDBRANCH   6   7
ENDBRANCH   5   6
ENDBRANCH   4   5
TORSDOF 6
ENDMDL
MODEL       30
REMARK 921   NORMALIZED FREE ENERGY PREDICTED BY IDOCK:   -4.20 KCAL/MOL
REMARK 922        TOTAL FREE ENERGY PREDICTED BY IDOCK:   -6.03 KCAL/MOL
REMARK 923 INTER-LIGAND FREE ENERGY PREDICTED BY IDOCK:   -5.73 KCAL/MOL
REMARK 924 INTRA-LIGAND FREE ENERGY PREDICTED BY IDOCK:   -0.30 KCAL/MOL
REMARK 927      BINDING AFFINITY PREDICTED BY RF-SCORE:    0.00 PKD
ROOT
HETATM    1  O   UNL     1     -11.189   6.909  72.752  1.00  0.00    -0.266 OA 
HETATM    2  C   UNL     1     -11.815   7.765  71.911  1.00  0.00    -0.297 C  
HETATM    3  O   UNL     1     -12.766   7.426  71.226  1.00  0.00    -0.349 OA 
HETATM    4  C   UNL     1     -11.198   9.147  71.936  1.00  0.00    -0.400 C  
ENDROOT
BRANCH   4   5
HETATM    5  C   UNL     1     -11.918  10.098  70.980  1.00  0.00    -0.474 C  
BRANCH   5   6
HETATM    6  C   UNL     1     -13.015  10.899  71.683  1.00  0.00    -0.569 C  
BRANCH   6   7
HETATM    7  C   UNL     1     -12.816  12.398  71.454  1.00  0.00    -0.360 C  
BRANCH   7   8
HETATM    8  C   UNL     1     -13.683  13.242  72.389  1.00  0.00    -0.678 C  
BRANCH   8   9
HETATM    9  C   UNL     1     -13.942  14.627  71.792  1.00  0.00    -0.564 C  
BRANCH   9  10
HETATM   10  C   UNL     1     -12.902  14.989  70.733  1.00  0.00    -0.447 C  
HETATM   11  C   UNL     1     -11.880  15.971  71.261  1.00  0.00    -0.449 C  
HETATM   12  O   UNL     1     -10.955  16.297  70.328  1.00  0.00    -0.347 OA 
HETATM   13  O   UNL     1     -11.861  16.436  72.388  1.00  0.00    -0.533 OA 
ENDBRANCH   9  10
ENDBRANCH   8   9
ENDBRANCH   7   8
ENDBRANCH   6   7
ENDBRANCH   5   6
ENDBRANCH   4   5
TORSDOF 6
ENDMDL
MODEL       31
REMARK 921   NORMALIZED FREE ENERGY PREDICTED BY IDOCK:   -4.20 KCAL/MOL
REMARK 922        TOTAL FREE ENERGY PREDICTED BY IDOCK:   -6.02 KCAL/MOL
REMARK 923 INTER-LIGAND FREE ENERGY PREDICTED BY IDOCK:   -5.65 KCAL/MOL
REMARK 924 INTRA-LIGAND FREE ENERGY PREDICTED BY IDOCK:   -0.37 KCAL/MOL
REMARK 927      BINDING AFFINITY PREDICTED BY RF-SCORE:    0.00 PKD
ROOT
HETATM    1  O   UNL     1     -11.914   7.945  72.491  1.00  0.00    -0.340 OA 
HETATM    2  C   UNL     1     -12.455   9.113  72.071  1.00  0.00    -0.382 C  
HETATM    3  O   UNL     1     -13.542   9.504  72.462  1.00  0.00    -0.433 OA 
HETATM    4  C   UNL     1     -11.560   9.840  71.091  1.00  0.00    -0.469 C  
ENDROOT
BRANCH   4   5
HETATM    5  C   UNL     1     -12.188  11.155  70.629  1.00  0.00    -0.492 C  
BRANCH   5   6
HETATM    6  C   UNL     1     -12.022  11.375  69.125  1.00  0.00    -0.395 C  
BRANCH   6   7
HETATM    7  C   UNL     1     -11.174  12.619  68.854  1.00  0.00    -0.329 C  
BRANCH   7   8
HETATM    8  C   UNL     1     -12.028  13.817  68.438  1.00  0.00    -0.395 C  
BRANCH   8   9
HETATM    9  C   UNL     1     -11.693  14.258  67.011  1.00  0.00    -0.427 C  
BRANCH   9  10
HETATM   10  C   UNL     1     -12.778  13.840  66.022  1.00  0.00    -0.407 C  
HETATM   11  C   UNL     1     -12.353  12.652  65.188  1.00  0.00    -0.484 C  
HETATM   12  O   UNL     1     -13.310  12.276  64.308  1.00  0.00    -0.777 OA 
HETATM   13  O   UNL     1     -11.282  12.076  65.271  1.00  0.00    -0.317 OA 
ENDBRANCH   9  10
ENDBRANCH   8   9
ENDBRANCH   7   8
ENDBRANCH   6   7
ENDBRANCH   5   6
ENDBRANCH   4   5
TORSDOF 6
ENDMDL
MODEL       32
REMARK 921   NORMALIZED FREE ENERGY PREDICTED BY IDOCK:   -4.18 KCAL/MOL
REMARK 922        TOTAL FREE ENERGY PREDICTED BY IDOCK:   -6.00 KCAL/MOL
REMARK 923 INTER-LIGAND FREE ENERGY PREDICTED BY IDOCK:   -5.76 KCAL/MOL
REMARK 924 INTRA-LIGAND FREE ENERGY PREDICTED BY IDOCK:   -0.24 KCAL/MOL
REMARK 927      BINDING AFFINITY PREDICTED BY RF-SCORE:    0.00 PKD
ROOT
HETATM    1  O   UNL     1     -14.402   8.602  72.588  1.00  0.00    -0.533 OA 
HETATM    2  C   UNL     1     -13.200   9.099  72.214  1.00  0.00    -0.461 C  
HETATM    3  O   UNL     1     -12.153   8.523  72.459  1.00  0.00    -0.389 OA 
HETATM    4  C   UNL     1     -13.328  10.414  71.476  1.00  0.00    -0.405 C  
ENDROOT
BRANCH   4   5
HETATM    5  C   UNL     1     -11.961  10.959  71.063  1.00  0.00    -0.375 C  
BRANCH   5   6
HETATM    6  C   UNL     1     -11.462  10.332  69.760  1.00  0.00    -0.320 C  
BRANCH   6   7
HETATM    7  C   UNL     1     -11.875  11.187  68.560  1.00  0.00    -0.330 C  
BRANCH   7   8
HETATM    8  C   UNL     1     -10.977  12.412  68.391  1.00  0.00    -0.272 C  
BRANCH   8   9
HETATM    9  C   UNL     1     -11.370  13.211  67.146  1.00  0.00    -0.354 C  
BRANCH   9  10
HETATM   10  C   UNL     1     -11.845  12.299  66.017  1.00  0.00    -0.409 C  
HETATM   11  C   UNL     1     -12.654  13.054  64.986  1.00  0.00    -0.454 C  
HETATM   12  O   UNL     1     -13.078  12.251  63.982  1.00  0.00    -0.764 OA 
HETATM   13  O   UNL     1     -12.914  14.244  65.023  1.00  0.00    -0.693 OA 
ENDBRANCH   9  10
ENDBRANCH   8   9
ENDBRANCH   7   8
ENDBRANCH   6   7
ENDBRANCH   5   6
ENDBRANCH   4   5
TORSDOF 6
ENDMDL
MODEL       33
REMARK 921   NORMALIZED FREE ENERGY PREDICTED BY IDOCK:   -4.17 KCAL/MOL
REMARK 922        TOTAL FREE ENERGY PREDICTED BY IDOCK:   -5.99 KCAL/MOL
REMARK 923 INTER-LIGAND FREE ENERGY PREDICTED BY IDOCK:   -5.68 KCAL/MOL
REMARK 924 INTRA-LIGAND FREE ENERGY PREDICTED BY IDOCK:   -0.31 KCAL/MOL
REMARK 927      BINDING AFFINITY PREDICTED BY RF-SCORE:    0.00 PKD
ROOT
HETATM    1  O   UNL     1     -12.087  10.452  71.082  1.00  0.00    -0.348 OA 
HETATM    2  C   UNL     1     -11.531   9.910  69.973  1.00  0.00    -0.217 C  
HETATM    3  O   UNL     1     -11.052   8.788  69.967  1.00  0.00    -0.237 OA 
HETATM    4  C   UNL     1     -11.584  10.848  68.787  1.00  0.00    -0.378 C  
ENDROOT
BRANCH   4   5
HETATM    5  C   UNL     1     -10.952  10.219  67.547  1.00  0.00    -0.344 C  
BRANCH   5   6
HETATM    6  C   UNL     1     -10.685  11.251  66.450  1.00  0.00    -0.320 C  
BRANCH   6   7
HETATM    7  C   UNL     1     -11.703  12.390  66.524  1.00  0.00    -0.443 C  
BRANCH   7   8
HETATM    8  C   UNL     1     -12.413  12.614  65.188  1.00  0.00    -0.531 C  
BRANCH   8   9
HETATM    9  C   UNL     1     -12.422  14.098  64.816  1.00  0.00    -0.395 C  
BRANCH   9  10
HETATM   10  C   UNL     1     -11.294  14.861  65.508  1.00  0.00    -0.339 C  
HETATM   11  C   UNL     1     -11.033  16.198  64.852  1.00  0.00    -0.349 C  
HETATM   12  O   UNL     1     -10.034  16.879  65.461  1.00  0.00    -0.572 OA 
HETATM   13  O   UNL     1     -11.631  16.642  63.887  1.00  0.00    -1.204 OA 
ENDBRANCH   9  10
ENDBRANCH   8   9
ENDBRANCH   7   8
ENDBRANCH   6   7
ENDBRANCH   5   6
ENDBRANCH   4   5
TORSDOF 6
ENDMDL
MODEL       34
REMARK 921   NORMALIZED FREE ENERGY PREDICTED BY IDOCK:   -4.17 KCAL/MOL
REMARK 922        TOTAL FREE ENERGY PREDICTED BY IDOCK:   -5.98 KCAL/MOL
REMARK 923 INTER-LIGAND FREE ENERGY PREDICTED BY IDOCK:   -5.62 KCAL/MOL
REMARK 924 INTRA-LIGAND FREE ENERGY PREDICTED BY IDOCK:   -0.37 KCAL/MOL
REMARK 927      BINDING AFFINITY PREDICTED BY RF-SCORE:    0.00 PKD
ROOT
HETATM    1  O   UNL     1     -12.385  11.654  63.115  1.00  0.00    -0.399 OA 
HETATM    2  C   UNL     1     -12.389  12.784  63.860  1.00  0.00    -0.426 C  
HETATM    3  O   UNL     1     -12.554  13.887  63.367  1.00  0.00    -0.853 OA 
HETATM    4  C   UNL     1     -12.170  12.502  65.331  1.00  0.00    -0.475 C  
ENDROOT
BRANCH   4   5
HETATM    5  C   UNL     1     -12.176  13.789  66.154  1.00  0.00    -0.499 C  
BRANCH   5   6
HETATM    6  C   UNL     1     -11.006  13.849  67.137  1.00  0.00    -0.298 C  
BRANCH   6   7
HETATM    7  C   UNL     1      -9.673  13.754  66.392  1.00  0.00    -0.304 C  
BRANCH   7   8
HETATM    8  C   UNL     1      -8.794  14.983  66.629  1.00  0.00    -0.307 C  
BRANCH   8   9
HETATM    9  C   UNL     1      -9.454  16.243  66.064  1.00  0.00    -0.369 C  
BRANCH   9  10
HETATM   10  C   UNL     1      -9.890  17.198  67.173  1.00  0.00    -0.271 C  
HETATM   11  C   UNL     1     -10.515  18.458  66.618  1.00  0.00    -0.385 C  
HETATM   12  O   UNL     1     -10.904  19.309  67.596  1.00  0.00    -0.458 OA 
HETATM   13  O   UNL     1     -10.668  18.711  65.435  1.00  0.00    -0.572 OA 
ENDBRANCH   9  10
ENDBRANCH   8   9
ENDBRANCH   7   8
ENDBRANCH   6   7
ENDBRANCH   5   6
ENDBRANCH   4   5
TORSDOF 6
ENDMDL
MODEL       35
REMARK 921   NORMALIZED FREE ENERGY PREDICTED BY IDOCK:   -4.15 KCAL/MOL
REMARK 922        TOTAL FREE ENERGY PREDICTED BY IDOCK:   -5.96 KCAL/MOL
REMARK 923 INTER-LIGAND FREE ENERGY PREDICTED BY IDOCK:   -5.45 KCAL/MOL
REMARK 924 INTRA-LIGAND FREE ENERGY PREDICTED BY IDOCK:   -0.51 KCAL/MOL
REMARK 927      BINDING AFFINITY PREDICTED BY RF-SCORE:    0.00 PKD
ROOT
HETATM    1  O   UNL     1     -13.824  14.994  73.075  1.00  0.00    -0.473 OA 
HETATM    2  C   UNL     1     -12.950  15.300  72.087  1.00  0.00    -0.366 C  
HETATM    3  O   UNL     1     -12.196  16.256  72.160  1.00  0.00    -0.476 OA 
HETATM    4  C   UNL     1     -13.031  14.331  70.929  1.00  0.00    -0.395 C  
ENDROOT
BRANCH   4   5
HETATM    5  C   UNL     1     -12.037  14.693  69.826  1.00  0.00    -0.371 C  
BRANCH   5   6
HETATM    6  C   UNL     1     -12.052  13.679  68.681  1.00  0.00    -0.325 C  
BRANCH   6   7
HETATM    7  C   UNL     1     -11.130  12.499  68.997  1.00  0.00    -0.287 C  
BRANCH   7   8
HETATM    8  C   UNL     1     -11.912  11.206  69.233  1.00  0.00    -0.421 C  
BRANCH   8   9
HETATM    9  C   UNL     1     -11.686  10.682  70.652  1.00  0.00    -0.454 C  
BRANCH   9  10
HETATM   10  C   UNL     1     -13.001  10.517  71.410  1.00  0.00    -0.542 C  
HETATM   11  C   UNL     1     -13.079   9.183  72.120  1.00  0.00    -0.446 C  
HETATM   12  O   UNL     1     -14.243   9.030  72.794  1.00  0.00    -0.572 OA 
HETATM   13  O   UNL     1     -12.215   8.324  72.108  1.00  0.00    -0.325 OA 
ENDBRANCH   9  10
ENDBRANCH   8   9
ENDBRANCH   7   8
ENDBRANCH   6   7
ENDBRANCH   5   6
ENDBRANCH   4   5
TORSDOF 6
ENDMDL
MODEL       36
REMARK 921   NORMALIZED FREE ENERGY PREDICTED BY IDOCK:   -4.15 KCAL/MOL
REMARK 922        TOTAL FREE ENERGY PREDICTED BY IDOCK:   -5.96 KCAL/MOL
REMARK 923 INTER-LIGAND FREE ENERGY PREDICTED BY IDOCK:   -5.70 KCAL/MOL
REMARK 924 INTRA-LIGAND FREE ENERGY PREDICTED BY IDOCK:   -0.26 KCAL/MOL
REMARK 927      BINDING AFFINITY PREDICTED BY RF-SCORE:    0.00 PKD
ROOT
HETATM    1  O   UNL     1     -12.669  14.988  63.910  1.00  0.00    -0.775 OA 
HETATM    2  C   UNL     1     -11.647  15.658  64.494  1.00  0.00    -0.262 C  
HETATM    3  O   UNL     1     -11.183  16.680  64.016  1.00  0.00    -1.052 OA 
HETATM    4  C   UNL     1     -11.179  14.992  65.769  1.00  0.00    -0.318 C  
ENDROOT
BRANCH   4   5
HETATM    5  C   UNL     1     -10.026  15.761  66.411  1.00  0.00    -0.294 C  
BRANCH   5   6
HETATM    6  C   UNL     1     -10.509  17.005  67.158  1.00  0.00    -0.291 C  
BRANCH   6   7
HETATM    7  C   UNL     1     -11.105  16.620  68.514  1.00  0.00    -0.301 C  
BRANCH   7   8
HETATM    8  C   UNL     1     -10.374  15.436  69.147  1.00  0.00    -0.240 C  
BRANCH   8   9
HETATM    9  C   UNL     1     -11.312  14.636  70.054  1.00  0.00    -0.288 C  
BRANCH   9  10
HETATM   10  C   UNL     1     -11.394  15.239  71.454  1.00  0.00    -0.419 C  
HETATM   11  C   UNL     1     -12.809  15.629  71.817  1.00  0.00    -0.458 C  
HETATM   12  O   UNL     1     -12.890  16.165  73.058  1.00  0.00    -0.457 OA 
HETATM   13  O   UNL     1     -13.787  15.493  71.102  1.00  0.00    -0.549 OA 
ENDBRANCH   9  10
ENDBRANCH   8   9
ENDBRANCH   7   8
ENDBRANCH   6   7
ENDBRANCH   5   6
ENDBRANCH   4   5
TORSDOF 6
ENDMDL
MODEL       37
REMARK 921   NORMALIZED FREE ENERGY PREDICTED BY IDOCK:   -4.15 KCAL/MOL
REMARK 922        TOTAL FREE ENERGY PREDICTED BY IDOCK:   -5.95 KCAL/MOL
REMARK 923 INTER-LIGAND FREE ENERGY PREDICTED BY IDOCK:   -5.59 KCAL/MOL
REMARK 924 INTRA-LIGAND FREE ENERGY PREDICTED BY IDOCK:   -0.37 KCAL/MOL
REMARK 927      BINDING AFFINITY PREDICTED BY RF-SCORE:    0.00 PKD
ROOT
HETATM    1  O   UNL     1     -11.160   8.656  72.025  1.00  0.00    -0.321 OA 
HETATM    2  C   UNL     1     -11.998   9.602  71.539  1.00  0.00    -0.406 C  
HETATM    3  O   UNL     1     -13.119   9.771  71.992  1.00  0.00    -0.414 OA 
HETATM    4  C   UNL     1     -11.380  10.389  70.405  1.00  0.00    -0.417 C  
ENDROOT
BRANCH   4   5
HETATM    5  C   UNL     1     -12.342  11.450  69.871  1.00  0.00    -0.280 C  
BRANCH   5   6
HETATM    6  C   UNL     1     -11.754  12.215  68.685  1.00  0.00    -0.382 C  
BRANCH   6   7
HETATM    7  C   UNL     1     -12.054  13.710  68.807  1.00  0.00    -0.332 C  
BRANCH   7   8
HETATM    8  C   UNL     1     -11.613  14.276  70.158  1.00  0.00    -0.312 C  
BRANCH   8   9
HETATM    9  C   UNL     1     -12.693  15.186  70.748  1.00  0.00    -0.463 C  
BRANCH   9  10
HETATM   10  C   UNL     1     -12.262  15.780  72.087  1.00  0.00    -0.552 C  
HETATM   11  C   UNL     1     -12.853  15.023  73.255  1.00  0.00    -0.531 C  
HETATM   12  O   UNL     1     -12.474  15.544  74.446  1.00  0.00    -0.628 OA 
HETATM   13  O   UNL     1     -13.587  14.053  73.172  1.00  0.00    -0.551 OA 
ENDBRANCH   9  10
ENDBRANCH   8   9
ENDBRANCH   7   8
ENDBRANCH   6   7
ENDBRANCH   5   6
ENDBRANCH   4   5
TORSDOF 6
ENDMDL
MODEL       38
REMARK 921   NORMALIZED FREE ENERGY PREDICTED BY IDOCK:   -4.14 KCAL/MOL
REMARK 922        TOTAL FREE ENERGY PREDICTED BY IDOCK:   -5.95 KCAL/MOL
REMARK 923 INTER-LIGAND FREE ENERGY PREDICTED BY IDOCK:   -5.58 KCAL/MOL
REMARK 924 INTRA-LIGAND FREE ENERGY PREDICTED BY IDOCK:   -0.37 KCAL/MOL
REMARK 927      BINDING AFFINITY PREDICTED BY RF-SCORE:    0.00 PKD
ROOT
HETATM    1  O   UNL     1     -11.461  12.594  63.149  1.00  0.00    -0.424 OA 
HETATM    2  C   UNL     1     -12.056  12.410  64.351  1.00  0.00    -0.426 C  
HETATM    3  O   UNL     1     -13.258  12.238  64.462  1.00  0.00    -0.799 OA 
HETATM    4  C   UNL     1     -11.064  12.444  65.493  1.00  0.00    -0.338 C  
ENDROOT
BRANCH   4   5
HETATM    5  C   UNL     1     -11.754  12.235  66.840  1.00  0.00    -0.404 C  
BRANCH   5   6
HETATM    6  C   UNL     1     -11.888  13.540  67.626  1.00  0.00    -0.399 C  
BRANCH   6   7
HETATM    7  C   UNL     1     -10.914  14.592  67.093  1.00  0.00    -0.304 C  
BRANCH   7   8
HETATM    8  C   UNL     1     -10.637  15.691  68.119  1.00  0.00    -0.274 C  
BRANCH   8   9
HETATM    9  C   UNL     1     -11.774  15.785  69.138  1.00  0.00    -0.398 C  
BRANCH   9  10
HETATM   10  C   UNL     1     -11.249  16.044  70.549  1.00  0.00    -0.397 C  
HETATM   11  C   UNL     1     -12.316  15.821  71.597  1.00  0.00    -0.457 C  
HETATM   12  O   UNL     1     -11.857  16.049  72.850  1.00  0.00    -0.465 OA 
HETATM   13  O   UNL     1     -13.465  15.478  71.376  1.00  0.00    -0.496 OA 
ENDBRANCH   9  10
ENDBRANCH   8   9
ENDBRANCH   7   8
ENDBRANCH   6   7
ENDBRANCH   5   6
ENDBRANCH   4   5
TORSDOF 6
ENDMDL
MODEL       39
REMARK 921   NORMALIZED FREE ENERGY PREDICTED BY IDOCK:   -4.14 KCAL/MOL
REMARK 922        TOTAL FREE ENERGY PREDICTED BY IDOCK:   -5.94 KCAL/MOL
REMARK 923 INTER-LIGAND FREE ENERGY PREDICTED BY IDOCK:   -5.68 KCAL/MOL
REMARK 924 INTRA-LIGAND FREE ENERGY PREDICTED BY IDOCK:   -0.27 KCAL/MOL
REMARK 927      BINDING AFFINITY PREDICTED BY RF-SCORE:    0.00 PKD
ROOT
HETATM    1  O   UNL     1     -12.612  16.426  74.289  1.00  0.00    -0.706 OA 
HETATM    2  C   UNL     1     -12.998  15.933  73.089  1.00  0.00    -0.549 C  
HETATM    3  O   UNL     1     -14.151  15.606  72.861  1.00  0.00    -0.507 OA 
HETATM    4  C   UNL     1     -11.850  15.846  72.107  1.00  0.00    -0.615 C  
ENDROOT
BRANCH   4   5
HETATM    5  C   UNL     1     -12.306  15.287  70.761  1.00  0.00    -0.433 C  
BRANCH   5   6
HETATM    6  C   UNL     1     -11.307  14.280  70.188  1.00  0.00    -0.187 C  
BRANCH   6   7
HETATM    7  C   UNL     1     -12.033  13.031  69.682  1.00  0.00    -0.367 C  
BRANCH   7   8
HETATM    8  C   UNL     1     -12.286  12.021  70.802  1.00  0.00    -0.403 C  
BRANCH   8   9
HETATM    9  C   UNL     1     -11.708  10.650  70.441  1.00  0.00    -0.446 C  
BRANCH   9  10
HETATM   10  C   UNL     1     -11.998   9.613  71.524  1.00  0.00    -0.485 C  
HETATM   11  C   UNL     1     -10.739   8.912  71.984  1.00  0.00    -0.319 C  
HETATM   12  O   UNL     1     -10.989   7.990  72.943  1.00  0.00    -0.378 OA 
HETATM   13  O   UNL     1      -9.616   9.125  71.562  1.00  0.00    -0.283 OA 
ENDBRANCH   9  10
ENDBRANCH   8   9
ENDBRANCH   7   8
ENDBRANCH   6   7
ENDBRANCH   5   6
ENDBRANCH   4   5
TORSDOF 6
ENDMDL
MODEL       40
REMARK 921   NORMALIZED FREE ENERGY PREDICTED BY IDOCK:   -4.13 KCAL/MOL
REMARK 922        TOTAL FREE ENERGY PREDICTED BY IDOCK:   -5.94 KCAL/MOL
REMARK 923 INTER-LIGAND FREE ENERGY PREDICTED BY IDOCK:   -5.28 KCAL/MOL
REMARK 924 INTRA-LIGAND FREE ENERGY PREDICTED BY IDOCK:   -0.66 KCAL/MOL
REMARK 927      BINDING AFFINITY PREDICTED BY RF-SCORE:    0.00 PKD
ROOT
HETATM    1  O   UNL     1     -12.659  13.849  62.978  1.00  0.00    -0.694 OA 
HETATM    2  C   UNL     1     -12.403  12.713  63.670  1.00  0.00    -0.492 C  
HETATM    3  O   UNL     1     -13.272  12.113  64.279  1.00  0.00    -0.768 OA 
HETATM    4  C   UNL     1     -10.948  12.306  63.584  1.00  0.00    -0.532 C  
ENDROOT
BRANCH   4   5
HETATM    5  C   UNL     1     -10.679  11.024  64.371  1.00  0.00    -0.340 C  
BRANCH   5   6
HETATM    6  C   UNL     1     -10.030  11.306  65.727  1.00  0.00    -0.281 C  
BRANCH   6   7
HETATM    7  C   UNL     1     -11.003  10.990  66.864  1.00  0.00    -0.311 C  
BRANCH   7   8
HETATM    8  C   UNL     1     -11.727  12.240  67.366  1.00  0.00    -0.405 C  
BRANCH   8   9
HETATM    9  C   UNL     1     -10.881  13.493  67.127  1.00  0.00    -0.291 C  
BRANCH   9  10
HETATM   10  C   UNL     1     -10.172  13.948  68.401  1.00  0.00    -0.243 C  
HETATM   11  C   UNL     1     -10.845  15.152  69.021  1.00  0.00    -0.242 C  
HETATM   12  O   UNL     1     -10.222  15.561  70.151  1.00  0.00    -0.308 OA 
HETATM   13  O   UNL     1     -11.833  15.715  68.581  1.00  0.00    -0.372 OA 
ENDBRANCH   9  10
ENDBRANCH   8   9
ENDBRANCH   7   8
ENDBRANCH   6   7
ENDBRANCH   5   6
ENDBRANCH   4   5
TORSDOF 6
ENDMDL
MODEL       41
REMARK 921   NORMALIZED FREE ENERGY PREDICTED BY IDOCK:   -4.13 KCAL/MOL
REMARK 922        TOTAL FREE ENERGY PREDICTED BY IDOCK:   -5.94 KCAL/MOL
REMARK 923 INTER-LIGAND FREE ENERGY PREDICTED BY IDOCK:   -5.63 KCAL/MOL
REMARK 924 INTRA-LIGAND FREE ENERGY PREDICTED BY IDOCK:   -0.30 KCAL/MOL
REMARK 927      BINDING AFFINITY PREDICTED BY RF-SCORE:    0.00 PKD
ROOT
HETATM    1  O   UNL     1     -13.422  16.445  73.593  1.00  0.00    -0.631 OA 
HETATM    2  C   UNL     1     -13.074  15.262  73.034  1.00  0.00    -0.506 C  
HETATM    3  O   UNL     1     -12.825  14.274  73.705  1.00  0.00    -0.442 OA 
HETATM    4  C   UNL     1     -13.040  15.330  71.522  1.00  0.00    -0.517 C  
ENDROOT
BRANCH   4   5
HETATM    5  C   UNL     1     -12.646  13.986  70.911  1.00  0.00    -0.431 C  
BRANCH   5   6
HETATM    6  C   UNL     1     -12.119  14.135  69.483  1.00  0.00    -0.388 C  
BRANCH   6   7
HETATM    7  C   UNL     1     -11.900  15.611  69.143  1.00  0.00    -0.378 C  
BRANCH   7   8
HETATM    8  C   UNL     1     -10.469  15.887  68.682  1.00  0.00    -0.240 C  
BRANCH   8   9
HETATM    9  C   UNL     1     -10.223  17.390  68.533  1.00  0.00    -0.369 C  
BRANCH   9  10
HETATM   10  C   UNL     1     -10.397  17.851  67.088  1.00  0.00    -0.371 C  
HETATM   11  C   UNL     1     -10.456  19.358  66.980  1.00  0.00    -0.463 C  
HETATM   12  O   UNL     1     -10.610  19.774  65.701  1.00  0.00    -0.507 OA 
HETATM   13  O   UNL     1     -10.378  20.138  67.914  1.00  0.00    -0.388 OA 
ENDBRANCH   9  10
ENDBRANCH   8   9
ENDBRANCH   7   8
ENDBRANCH   6   7
ENDBRANCH   5   6
ENDBRANCH   4   5
TORSDOF 6
ENDMDL
MODEL       42
REMARK 921   NORMALIZED FREE ENERGY PREDICTED BY IDOCK:   -4.13 KCAL/MOL
REMARK 922        TOTAL FREE ENERGY PREDICTED BY IDOCK:   -5.93 KCAL/MOL
REMARK 923 INTER-LIGAND FREE ENERGY PREDICTED BY IDOCK:   -5.50 KCAL/MOL
REMARK 924 INTRA-LIGAND FREE ENERGY PREDICTED BY IDOCK:   -0.43 KCAL/MOL
REMARK 927      BINDING AFFINITY PREDICTED BY RF-SCORE:    0.00 PKD
ROOT
HETATM    1  O   UNL     1     -11.942   6.663  71.161  1.00  0.00    -0.348 OA 
HETATM    2  C   UNL     1     -12.910   7.556  71.475  1.00  0.00    -0.360 C  
HETATM    3  O   UNL     1     -14.095   7.268  71.446  1.00  0.00    -0.413 OA 
HETATM    4  C   UNL     1     -12.343   8.907  71.854  1.00  0.00    -0.445 C  
ENDROOT
BRANCH   4   5
HETATM    5  C   UNL     1     -13.450   9.900  72.204  1.00  0.00    -0.454 C  
BRANCH   5   6
HETATM    6  C   UNL     1     -13.126  11.316  71.726  1.00  0.00    -0.527 C  
BRANCH   6   7
HETATM    7  C   UNL     1     -12.042  11.283  70.646  1.00  0.00    -0.480 C  
BRANCH   7   8
HETATM    8  C   UNL     1     -11.817  12.659  70.016  1.00  0.00    -0.358 C  
BRANCH   8   9
HETATM    9  C   UNL     1     -12.770  13.696  70.615  1.00  0.00    -0.303 C  
BRANCH   9  10
HETATM   10  C   UNL     1     -12.012  14.819  71.318  1.00  0.00    -0.404 C  
HETATM   11  C   UNL     1     -12.619  15.153  72.663  1.00  0.00    -0.375 C  
HETATM   12  O   UNL     1     -11.952  16.149  73.291  1.00  0.00    -0.465 OA 
HETATM   13  O   UNL     1     -13.594  14.611  73.153  1.00  0.00    -0.569 OA 
ENDBRANCH   9  10
ENDBRANCH   8   9
ENDBRANCH   7   8
ENDBRANCH   6   7
ENDBRANCH   5   6
ENDBRANCH   4   5
TORSDOF 6
ENDMDL
MODEL       43
REMARK 921   NORMALIZED FREE ENERGY PREDICTED BY IDOCK:   -4.10 KCAL/MOL
REMARK 922        TOTAL FREE ENERGY PREDICTED BY IDOCK:   -5.89 KCAL/MOL
REMARK 923 INTER-LIGAND FREE ENERGY PREDICTED BY IDOCK:   -5.45 KCAL/MOL
REMARK 924 INTRA-LIGAND FREE ENERGY PREDICTED BY IDOCK:   -0.44 KCAL/MOL
REMARK 927      BINDING AFFINITY PREDICTED BY RF-SCORE:    0.00 PKD
ROOT
HETATM    1  O   UNL     1      -9.603  11.487  62.795  1.00  0.00    -0.358 OA 
HETATM    2  C   UNL     1     -10.459  11.500  63.844  1.00  0.00    -0.385 C  
HETATM    3  O   UNL     1     -10.396  10.680  64.745  1.00  0.00    -0.335 OA 
HETATM    4  C   UNL     1     -11.462  12.629  63.751  1.00  0.00    -0.539 C  
ENDROOT
BRANCH   4   5
HETATM    5  C   UNL     1     -12.418  12.627  64.943  1.00  0.00    -0.564 C  
BRANCH   5   6
HETATM    6  C   UNL     1     -12.585  14.021  65.549  1.00  0.00    -0.543 C  
BRANCH   6   7
HETATM    7  C   UNL     1     -11.815  14.131  66.867  1.00  0.00    -0.458 C  
BRANCH   7   8
HETATM    8  C   UNL     1     -11.689  12.780  67.573  1.00  0.00    -0.422 C  
BRANCH   8   9
HETATM    9  C   UNL     1     -11.908  12.928  69.080  1.00  0.00    -0.353 C  
BRANCH   9  10
HETATM   10  C   UNL     1     -11.794  14.384  69.526  1.00  0.00    -0.376 C  
HETATM   11  C   UNL     1     -12.659  14.673  70.733  1.00  0.00    -0.350 C  
HETATM   12  O   UNL     1     -12.562  15.962  71.134  1.00  0.00    -0.456 OA 
HETATM   13  O   UNL     1     -13.371  13.865  71.303  1.00  0.00    -0.312 OA 
ENDBRANCH   9  10
ENDBRANCH   8   9
ENDBRANCH   7   8
ENDBRANCH   6   7
ENDBRANCH   5   6
ENDBRANCH   4   5
TORSDOF 6
ENDMDL
MODEL       44
REMARK 921   NORMALIZED FREE ENERGY PREDICTED BY IDOCK:   -4.09 KCAL/MOL
REMARK 922        TOTAL FREE ENERGY PREDICTED BY IDOCK:   -5.88 KCAL/MOL
REMARK 923 INTER-LIGAND FREE ENERGY PREDICTED BY IDOCK:   -5.41 KCAL/MOL
REMARK 924 INTRA-LIGAND FREE ENERGY PREDICTED BY IDOCK:   -0.48 KCAL/MOL
REMARK 927      BINDING AFFINITY PREDICTED BY RF-SCORE:    0.00 PKD
ROOT
HETATM    1  O   UNL     1     -12.881  11.940  63.141  1.00  0.00    -0.636 OA 
HETATM    2  C   UNL     1     -12.282  13.041  63.653  1.00  0.00    -0.491 C  
HETATM    3  O   UNL     1     -12.713  14.166  63.460  1.00  0.00    -0.794 OA 
HETATM    4  C   UNL     1     -11.053  12.699  64.468  1.00  0.00    -0.365 C  
ENDROOT
BRANCH   4   5
HETATM    5  C   UNL     1     -10.392  13.954  65.036  1.00  0.00    -0.418 C  
BRANCH   5   6
HETATM    6  C   UNL     1     -10.268  13.899  66.560  1.00  0.00    -0.280 C  
BRANCH   6   7
HETATM    7  C   UNL     1     -11.569  14.358  67.222  1.00  0.00    -0.401 C  
BRANCH   7   8
HETATM    8  C   UNL     1     -11.908  13.526  68.459  1.00  0.00    -0.398 C  
BRANCH   8   9
HETATM    9  C   UNL     1     -11.777  12.030  68.164  1.00  0.00    -0.398 C  
BRANCH   9  10
HETATM   10  C   UNL     1     -12.159  11.180  69.374  1.00  0.00    -0.396 C  
HETATM   11  C   UNL     1     -10.969  10.432  69.933  1.00  0.00    -0.305 C  
HETATM   12  O   UNL     1     -11.300   9.676  71.006  1.00  0.00    -0.312 OA 
HETATM   13  O   UNL     1      -9.833  10.479  69.494  1.00  0.00    -0.213 OA 
ENDBRANCH   9  10
ENDBRANCH   8   9
ENDBRANCH   7   8
ENDBRANCH   6   7
ENDBRANCH   5   6
ENDBRANCH   4   5
TORSDOF 6
ENDMDL
MODEL       45
REMARK 921   NORMALIZED FREE ENERGY PREDICTED BY IDOCK:   -4.07 KCAL/MOL
REMARK 922        TOTAL FREE ENERGY PREDICTED BY IDOCK:   -5.85 KCAL/MOL
REMARK 923 INTER-LIGAND FREE ENERGY PREDICTED BY IDOCK:   -5.55 KCAL/MOL
REMARK 924 INTRA-LIGAND FREE ENERGY PREDICTED BY IDOCK:   -0.30 KCAL/MOL
REMARK 927      BINDING AFFINITY PREDICTED BY RF-SCORE:    0.00 PKD
ROOT
HETATM    1  O   UNL     1     -14.239  13.234  72.556  1.00  0.00    -0.697 OA 
HETATM    2  C   UNL     1     -13.163  12.985  71.772  1.00  0.00    -0.392 C  
HETATM    3  O   UNL     1     -12.406  13.870  71.409  1.00  0.00    -0.348 OA 
HETATM    4  C   UNL     1     -13.033  11.518  71.425  1.00  0.00    -0.450 C  
ENDROOT
BRANCH   4   5
HETATM    5  C   UNL     1     -11.814  11.259  70.541  1.00  0.00    -0.421 C  
BRANCH   5   6
HETATM    6  C   UNL     1     -12.088  11.589  69.073  1.00  0.00    -0.303 C  
BRANCH   6   7
HETATM    7  C   UNL     1     -10.950  12.428  68.489  1.00  0.00    -0.277 C  
BRANCH   7   8
HETATM    8  C   UNL     1     -10.135  11.649  67.455  1.00  0.00    -0.218 C  
BRANCH   8   9
HETATM    9  C   UNL     1     -10.825  11.669  66.089  1.00  0.00    -0.343 C  
BRANCH   9  10
HETATM   10  C   UNL     1     -11.136  13.093  65.634  1.00  0.00    -0.296 C  
HETATM   11  C   UNL     1     -12.403  13.158  64.811  1.00  0.00    -0.423 C  
HETATM   12  O   UNL     1     -12.685  14.418  64.404  1.00  0.00    -0.665 OA 
HETATM   13  O   UNL     1     -13.112  12.208  64.527  1.00  0.00    -0.720 OA 
ENDBRANCH   9  10
ENDBRANCH   8   9
ENDBRANCH   7   8
ENDBRANCH   6   7
ENDBRANCH   5   6
ENDBRANCH   4   5
TORSDOF 6
ENDMDL
MODEL       46
REMARK 921   NORMALIZED FREE ENERGY PREDICTED BY IDOCK:   -4.07 KCAL/MOL
REMARK 922        TOTAL FREE ENERGY PREDICTED BY IDOCK:   -5.85 KCAL/MOL
REMARK 923 INTER-LIGAND FREE ENERGY PREDICTED BY IDOCK:   -5.62 KCAL/MOL
REMARK 924 INTRA-LIGAND FREE ENERGY PREDICTED BY IDOCK:   -0.23 KCAL/MOL
REMARK 927      BINDING AFFINITY PREDICTED BY RF-SCORE:    0.00 PKD
ROOT
HETATM    1  O   UNL     1     -12.745  13.597  63.268  1.00  0.00    -0.765 OA 
HETATM    2  C   UNL     1     -11.855  12.803  63.908  1.00  0.00    -0.468 C  
HETATM    3  O   UNL     1     -10.957  12.226  63.318  1.00  0.00    -0.432 OA 
HETATM    4  C   UNL     1     -12.116  12.733  65.397  1.00  0.00    -0.512 C  
ENDROOT
BRANCH   4   5
HETATM    5  C   UNL     1     -11.102  11.832  66.100  1.00  0.00    -0.358 C  
BRANCH   5   6
HETATM    6  C   UNL     1     -10.818  12.292  67.531  1.00  0.00    -0.271 C  
BRANCH   6   7
HETATM    7  C   UNL     1     -11.499  11.364  68.540  1.00  0.00    -0.361 C  
BRANCH   7   8
HETATM    8  C   UNL     1     -11.911  12.104  69.813  1.00  0.00    -0.397 C  
BRANCH   8   9
HETATM    9  C   UNL     1     -12.454  11.128  70.860  1.00  0.00    -0.509 C  
BRANCH   9  10
HETATM   10  C   UNL     1     -11.563   9.897  71.000  1.00  0.00    -0.470 C  
HETATM   11  C   UNL     1     -12.161   8.872  71.938  1.00  0.00    -0.374 C  
HETATM   12  O   UNL     1     -11.376   7.777  72.067  1.00  0.00    -0.257 OA 
HETATM   13  O   UNL     1     -13.223   8.986  72.526  1.00  0.00    -0.445 OA 
ENDBRANCH   9  10
ENDBRANCH   8   9
ENDBRANCH   7   8
ENDBRANCH   6   7
ENDBRANCH   5   6
ENDBRANCH   4   5
TORSDOF 6
ENDMDL
MODEL       47
REMARK 921   NORMALIZED FREE ENERGY PREDICTED BY IDOCK:   -4.06 KCAL/MOL
REMARK 922        TOTAL FREE ENERGY PREDICTED BY IDOCK:   -5.83 KCAL/MOL
REMARK 923 INTER-LIGAND FREE ENERGY PREDICTED BY IDOCK:   -5.67 KCAL/MOL
REMARK 924 INTRA-LIGAND FREE ENERGY PREDICTED BY IDOCK:   -0.16 KCAL/MOL
REMARK 927      BINDING AFFINITY PREDICTED BY RF-SCORE:    0.00 PKD
ROOT
HETATM    1  O   UNL     1     -11.856   6.258  72.380  1.00  0.00    -0.291 OA 
HETATM    2  C   UNL     1     -12.423   7.338  71.793  1.00  0.00    -0.343 C  
HETATM    3  O   UNL     1     -13.553   7.310  71.335  1.00  0.00    -0.388 OA 
HETATM    4  C   UNL     1     -11.500   8.537  71.784  1.00  0.00    -0.378 C  
ENDROOT
BRANCH   4   5
HETATM    5  C   UNL     1     -12.159   9.744  71.117  1.00  0.00    -0.460 C  
BRANCH   5   6
HETATM    6  C   UNL     1     -11.170  10.540  70.264  1.00  0.00    -0.391 C  
BRANCH   6   7
HETATM    7  C   UNL     1     -11.895  11.238  69.111  1.00  0.00    -0.423 C  
BRANCH   7   8
HETATM    8  C   UNL     1     -10.926  11.977  68.187  1.00  0.00    -0.273 C  
BRANCH   8   9
HETATM    9  C   UNL     1     -11.684  12.879  67.210  1.00  0.00    -0.431 C  
BRANCH   9  10
HETATM   10  C   UNL     1     -11.818  12.233  65.833  1.00  0.00    -0.420 C  
HETATM   11  C   UNL     1     -12.737  13.023  64.928  1.00  0.00    -0.390 C  
HETATM   12  O   UNL     1     -12.860  12.456  63.705  1.00  0.00    -0.743 OA 
HETATM   13  O   UNL     1     -13.316  14.052  65.230  1.00  0.00    -0.741 OA 
ENDBRANCH   9  10
ENDBRANCH   8   9
ENDBRANCH   7   8
ENDBRANCH   6   7
ENDBRANCH   5   6
ENDBRANCH   4   5
TORSDOF 6
ENDMDL
MODEL       48
REMARK 921   NORMALIZED FREE ENERGY PREDICTED BY IDOCK:   -4.05 KCAL/MOL
REMARK 922        TOTAL FREE ENERGY PREDICTED BY IDOCK:   -5.83 KCAL/MOL
REMARK 923 INTER-LIGAND FREE ENERGY PREDICTED BY IDOCK:   -5.55 KCAL/MOL
REMARK 924 INTRA-LIGAND FREE ENERGY PREDICTED BY IDOCK:   -0.28 KCAL/MOL
REMARK 927      BINDING AFFINITY PREDICTED BY RF-SCORE:    0.00 PKD
ROOT
HETATM    1  O   UNL     1      -8.323  19.374  68.788  1.00  0.00    -0.363 OA 
HETATM    2  C   UNL     1      -9.486  18.835  68.350  1.00  0.00    -0.349 C  
HETATM    3  O   UNL     1     -10.368  19.513  67.849  1.00  0.00    -0.402 OA 
HETATM    4  C   UNL     1      -9.539  17.338  68.559  1.00  0.00    -0.291 C  
ENDROOT
BRANCH   4   5
HETATM    5  C   UNL     1     -10.858  16.750  68.059  1.00  0.00    -0.341 C  
BRANCH   5   6
HETATM    6  C   UNL     1     -11.563  15.922  69.135  1.00  0.00    -0.382 C  
BRANCH   6   7
HETATM    7  C   UNL     1     -11.904  14.528  68.603  1.00  0.00    -0.355 C  
BRANCH   7   8
HETATM    8  C   UNL     1     -11.244  14.253  67.251  1.00  0.00    -0.330 C  
BRANCH   8   9
HETATM    9  C   UNL     1     -12.297  14.110  66.149  1.00  0.00    -0.463 C  
BRANCH   9  10
HETATM   10  C   UNL     1     -12.182  12.768  65.429  1.00  0.00    -0.532 C  
HETATM   11  C   UNL     1     -12.375  12.913  63.936  1.00  0.00    -0.396 C  
HETATM   12  O   UNL     1     -12.275  11.727  63.291  1.00  0.00    -0.489 OA 
HETATM   13  O   UNL     1     -12.598  13.957  63.348  1.00  0.00    -0.853 OA 
ENDBRANCH   9  10
ENDBRANCH   8   9
ENDBRANCH   7   8
ENDBRANCH   6   7
ENDBRANCH   5   6
ENDBRANCH   4   5
TORSDOF 6
ENDMDL
MODEL       49
REMARK 921   NORMALIZED FREE ENERGY PREDICTED BY IDOCK:   -4.04 KCAL/MOL
REMARK 922        TOTAL FREE ENERGY PREDICTED BY IDOCK:   -5.81 KCAL/MOL
REMARK 923 INTER-LIGAND FREE ENERGY PREDICTED BY IDOCK:   -5.31 KCAL/MOL
REMARK 924 INTRA-LIGAND FREE ENERGY PREDICTED BY IDOCK:   -0.49 KCAL/MOL
REMARK 927      BINDING AFFINITY PREDICTED BY RF-SCORE:    0.00 PKD
ROOT
HETATM    1  O   UNL     1     -12.275  16.011  63.786  1.00  0.00    -0.895 OA 
HETATM    2  C   UNL     1     -12.049  14.871  64.482  1.00  0.00    -0.407 C  
HETATM    3  O   UNL     1     -12.827  13.933  64.463  1.00  0.00    -0.644 OA 
HETATM    4  C   UNL     1     -10.748  14.920  65.254  1.00  0.00    -0.409 C  
ENDROOT
BRANCH   4   5
HETATM    5  C   UNL     1     -10.511  13.626  66.032  1.00  0.00    -0.300 C  
BRANCH   5   6
HETATM    6  C   UNL     1     -10.692  13.820  67.538  1.00  0.00    -0.262 C  
BRANCH   6   7
HETATM    7  C   UNL     1      -9.361  14.186  68.197  1.00  0.00    -0.206 C  
BRANCH   7   8
HETATM    8  C   UNL     1      -9.424  15.540  68.905  1.00  0.00    -0.223 C  
BRANCH   8   9
HETATM    9  C   UNL     1      -8.989  16.668  67.967  1.00  0.00    -0.211 C  
BRANCH   9  10
HETATM   10  C   UNL     1      -9.773  17.952  68.227  1.00  0.00    -0.327 C  
HETATM   11  C   UNL     1     -10.287  18.567  66.944  1.00  0.00    -0.397 C  
HETATM   12  O   UNL     1     -10.984  19.706  67.166  1.00  0.00    -0.467 OA 
HETATM   13  O   UNL     1     -10.114  18.117  65.824  1.00  0.00    -0.563 OA 
ENDBRANCH   9  10
ENDBRANCH   8   9
ENDBRANCH   7   8
ENDBRANCH   6   7
ENDBRANCH   5   6
ENDBRANCH   4   5
TORSDOF 6
ENDMDL
MODEL       50
REMARK 921   NORMALIZED FREE ENERGY PREDICTED BY IDOCK:   -4.04 KCAL/MOL
REMARK 922        TOTAL FREE ENERGY PREDICTED BY IDOCK:   -5.81 KCAL/MOL
REMARK 923 INTER-LIGAND FREE ENERGY PREDICTED BY IDOCK:   -5.34 KCAL/MOL
REMARK 924 INTRA-LIGAND FREE ENERGY PREDICTED BY IDOCK:   -0.46 KCAL/MOL
REMARK 927      BINDING AFFINITY PREDICTED BY RF-SCORE:    0.00 PKD
ROOT
HETATM    1  O   UNL     1      -9.912  16.410  65.385  1.00  0.00    -0.534 OA 
HETATM    2  C   UNL     1     -10.966  15.870  64.727  1.00  0.00    -0.375 C  
HETATM    3  O   UNL     1     -11.639  16.514  63.939  1.00  0.00    -1.175 OA 
HETATM    4  C   UNL     1     -11.184  14.417  65.087  1.00  0.00    -0.359 C  
ENDROOT
BRANCH   4   5
HETATM    5  C   UNL     1     -12.376  13.827  64.336  1.00  0.00    -0.389 C  
BRANCH   5   6
HETATM    6  C   UNL     1     -12.089  12.418  63.815  1.00  0.00    -0.618 C  
BRANCH   6   7
HETATM    7  C   UNL     1     -10.603  12.259  63.486  1.00  0.00    -0.488 C  
BRANCH   7   8
HETATM    8  C   UNL     1     -10.062  10.896  63.917  1.00  0.00    -0.422 C  
BRANCH   8   9
HETATM    9  C   UNL     1      -9.752  10.881  65.416  1.00  0.00    -0.287 C  
BRANCH   9  10
HETATM   10  C   UNL     1      -9.897   9.481  66.009  1.00  0.00    -0.353 C  
HETATM   11  C   UNL     1      -8.557   8.882  66.371  1.00  0.00    -0.126 C  
HETATM   12  O   UNL     1      -8.678   7.640  66.897  1.00  0.00    -0.122 OA 
HETATM   13  O   UNL     1      -7.475   9.423  66.221  1.00  0.00    -0.095 OA 
ENDBRANCH   9  10
ENDBRANCH   8   9
ENDBRANCH   7   8
ENDBRANCH   6   7
ENDBRANCH   5   6
ENDBRANCH   4   5
TORSDOF 6
ENDMDL
MODEL       51
REMARK 921   NORMALIZED FREE ENERGY PREDICTED BY IDOCK:   -4.02 KCAL/MOL
REMARK 922        TOTAL FREE ENERGY PREDICTED BY IDOCK:   -5.79 KCAL/MOL
REMARK 923 INTER-LIGAND FREE ENERGY PREDICTED BY IDOCK:   -5.40 KCAL/MOL
REMARK 924 INTRA-LIGAND FREE ENERGY PREDICTED BY IDOCK:   -0.39 KCAL/MOL
REMARK 927      BINDING AFFINITY PREDICTED BY RF-SCORE:    0.00 PKD
ROOT
HETATM    1  O   UNL     1     -12.111  16.208  71.344  1.00  0.00    -0.432 OA 
HETATM    2  C   UNL     1     -12.883  15.271  71.943  1.00  0.00    -0.368 C  
HETATM    3  O   UNL     1     -13.722  15.558  72.780  1.00  0.00    -0.520 OA 
HETATM    4  C   UNL     1     -12.575  13.874  71.449  1.00  0.00    -0.444 C  
ENDROOT
BRANCH   4   5
HETATM    5  C   UNL     1     -13.456  12.832  72.137  1.00  0.00    -0.591 C  
BRANCH   5   6
HETATM    6  C   UNL     1     -12.960  11.406  71.890  1.00  0.00    -0.466 C  
BRANCH   6   7
HETATM    7  C   UNL     1     -12.856  11.125  70.389  1.00  0.00    -0.176 C  
BRANCH   7   8
HETATM    8  C   UNL     1     -11.422  10.809  69.962  1.00  0.00    -0.412 C  
BRANCH   8   9
HETATM    9  C   UNL     1     -10.912  11.841  68.953  1.00  0.00    -0.288 C  
BRANCH   9  10
HETATM   10  C   UNL     1     -11.382  11.525  67.535  1.00  0.00    -0.366 C  
HETATM   11  C   UNL     1     -11.999  12.732  66.865  1.00  0.00    -0.310 C  
HETATM   12  O   UNL     1     -12.418  12.459  65.607  1.00  0.00    -0.640 OA 
HETATM   13  O   UNL     1     -12.122  13.836  67.367  1.00  0.00    -0.386 OA 
ENDBRANCH   9  10
ENDBRANCH   8   9
ENDBRANCH   7   8
ENDBRANCH   6   7
ENDBRANCH   5   6
ENDBRANCH   4   5
TORSDOF 6
ENDMDL
MODEL       52
REMARK 921   NORMALIZED FREE ENERGY PREDICTED BY IDOCK:   -4.01 KCAL/MOL
REMARK 922        TOTAL FREE ENERGY PREDICTED BY IDOCK:   -5.77 KCAL/MOL
REMARK 923 INTER-LIGAND FREE ENERGY PREDICTED BY IDOCK:   -5.60 KCAL/MOL
REMARK 924 INTRA-LIGAND FREE ENERGY PREDICTED BY IDOCK:   -0.17 KCAL/MOL
REMARK 927      BINDING AFFINITY PREDICTED BY RF-SCORE:    0.00 PKD
ROOT
HETATM    1  O   UNL     1     -13.267  11.218  72.070  1.00  0.00    -0.506 OA 
HETATM    2  C   UNL     1     -13.345  12.565  71.955  1.00  0.00    -0.426 C  
HETATM    3  O   UNL     1     -14.070  13.237  72.670  1.00  0.00    -0.744 OA 
HETATM    4  C   UNL     1     -12.445  13.101  70.863  1.00  0.00    -0.407 C  
ENDROOT
BRANCH   4   5
HETATM    5  C   UNL     1     -12.549  14.621  70.749  1.00  0.00    -0.415 C  
BRANCH   5   6
HETATM    6  C   UNL     1     -12.010  15.136  69.414  1.00  0.00    -0.337 C  
BRANCH   6   7
HETATM    7  C   UNL     1     -11.006  16.269  69.640  1.00  0.00    -0.346 C  
BRANCH   7   8
HETATM    8  C   UNL     1     -10.405  16.774  68.328  1.00  0.00    -0.319 C  
BRANCH   8   9
HETATM    9  C   UNL     1      -9.944  18.227  68.463  1.00  0.00    -0.413 C  
BRANCH   9  10
HETATM   10  C   UNL     1     -10.641  19.137  67.454  1.00  0.00    -0.577 C  
HETATM   11  C   UNL     1      -9.851  19.265  66.171  1.00  0.00    -0.367 C  
HETATM   12  O   UNL     1     -10.464  20.071  65.272  1.00  0.00    -0.269 OA 
HETATM   13  O   UNL     1      -8.785  18.722  65.939  1.00  0.00    -0.471 OA 
ENDBRANCH   9  10
ENDBRANCH   8   9
ENDBRANCH   7   8
ENDBRANCH   6   7
ENDBRANCH   5   6
ENDBRANCH   4   5
TORSDOF 6
ENDMDL
MODEL       53
REMARK 921   NORMALIZED FREE ENERGY PREDICTED BY IDOCK:   -4.00 KCAL/MOL
REMARK 922        TOTAL FREE ENERGY PREDICTED BY IDOCK:   -5.75 KCAL/MOL
REMARK 923 INTER-LIGAND FREE ENERGY PREDICTED BY IDOCK:   -5.20 KCAL/MOL
REMARK 924 INTRA-LIGAND FREE ENERGY PREDICTED BY IDOCK:   -0.55 KCAL/MOL
REMARK 927      BINDING AFFINITY PREDICTED BY RF-SCORE:    0.00 PKD
ROOT
HETATM    1  O   UNL     1     -12.553  14.323  63.261  1.00  0.00    -0.716 OA 
HETATM    2  C   UNL     1     -12.364  13.257  64.073  1.00  0.00    -0.346 C  
HETATM    3  O   UNL     1     -13.269  12.492  64.363  1.00  0.00    -0.782 OA 
HETATM    4  C   UNL     1     -10.932  13.147  64.550  1.00  0.00    -0.392 C  
ENDROOT
BRANCH   4   5
HETATM    5  C   UNL     1     -10.739  11.938  65.465  1.00  0.00    -0.329 C  
BRANCH   5   6
HETATM    6  C   UNL     1     -10.490  12.350  66.917  1.00  0.00    -0.243 C  
BRANCH   6   7
HETATM    7  C   UNL     1     -11.764  12.926  67.539  1.00  0.00    -0.422 C  
BRANCH   7   8
HETATM    8  C   UNL     1     -11.464  14.084  68.492  1.00  0.00    -0.336 C  
BRANCH   8   9
HETATM    9  C   UNL     1     -10.175  14.804  68.088  1.00  0.00    -0.228 C  
BRANCH   9  10
HETATM   10  C   UNL     1     -10.453  15.976  67.149  1.00  0.00    -0.308 C  
HETATM   11  C   UNL     1     -10.519  17.291  67.894  1.00  0.00    -0.382 C  
HETATM   12  O   UNL     1     -10.765  18.334  67.067  1.00  0.00    -0.370 OA 
HETATM   13  O   UNL     1     -10.373  17.432  69.096  1.00  0.00    -0.342 OA 
ENDBRANCH   9  10
ENDBRANCH   8   9
ENDBRANCH   7   8
ENDBRANCH   6   7
ENDBRANCH   5   6
ENDBRANCH   4   5
TORSDOF 6
ENDMDL
MODEL       54
REMARK 921   NORMALIZED FREE ENERGY PREDICTED BY IDOCK:   -3.99 KCAL/MOL
REMARK 922        TOTAL FREE ENERGY PREDICTED BY IDOCK:   -5.74 KCAL/MOL
REMARK 923 INTER-LIGAND FREE ENERGY PREDICTED BY IDOCK:   -5.53 KCAL/MOL
REMARK 924 INTRA-LIGAND FREE ENERGY PREDICTED BY IDOCK:   -0.20 KCAL/MOL
REMARK 927      BINDING AFFINITY PREDICTED BY RF-SCORE:    0.00 PKD
ROOT
HETATM    1  O   UNL     1     -11.182   7.680  72.335  1.00  0.00    -0.274 OA 
HETATM    2  C   UNL     1     -10.649   8.773  71.739  1.00  0.00    -0.347 C  
HETATM    3  O   UNL     1      -9.524   9.168  71.993  1.00  0.00    -0.323 OA 
HETATM    4  C   UNL     1     -11.603   9.410  70.752  1.00  0.00    -0.364 C  
ENDROOT
BRANCH   4   5
HETATM    5  C   UNL     1     -10.984  10.641  70.092  1.00  0.00    -0.292 C  
BRANCH   5   6
HETATM    6  C   UNL     1     -11.998  11.410  69.243  1.00  0.00    -0.400 C  
BRANCH   6   7
HETATM    7  C   UNL     1     -11.734  12.915  69.322  1.00  0.00    -0.378 C  
BRANCH   7   8
HETATM    8  C   UNL     1     -12.275  13.525  70.616  1.00  0.00    -0.434 C  
BRANCH   8   9
HETATM    9  C   UNL     1     -12.219  15.053  70.564  1.00  0.00    -0.391 C  
BRANCH   9  10
HETATM   10  C   UNL     1     -12.000  15.658  71.950  1.00  0.00    -0.530 C  
HETATM   11  C   UNL     1     -13.298  15.797  72.714  1.00  0.00    -0.547 C  
HETATM   12  O   UNL     1     -13.112  16.332  73.944  1.00  0.00    -0.693 OA 
HETATM   13  O   UNL     1     -14.400  15.476  72.303  1.00  0.00    -0.562 OA 
ENDBRANCH   9  10
ENDBRANCH   8   9
ENDBRANCH   7   8
ENDBRANCH   6   7
ENDBRANCH   5   6
ENDBRANCH   4   5
TORSDOF 6
ENDMDL
MODEL       55
REMARK 921   NORMALIZED FREE ENERGY PREDICTED BY IDOCK:   -3.98 KCAL/MOL
REMARK 922        TOTAL FREE ENERGY PREDICTED BY IDOCK:   -5.73 KCAL/MOL
REMARK 923 INTER-LIGAND FREE ENERGY PREDICTED BY IDOCK:   -5.17 KCAL/MOL
REMARK 924 INTRA-LIGAND FREE ENERGY PREDICTED BY IDOCK:   -0.56 KCAL/MOL
REMARK 927      BINDING AFFINITY PREDICTED BY RF-SCORE:    0.00 PKD
ROOT
HETATM    1  O   UNL     1      -7.065  17.312  68.177  1.00  0.00    -0.179 OA 
HETATM    2  C   UNL     1      -8.337  17.624  68.521  1.00  0.00    -0.291 C  
HETATM    3  O   UNL     1      -8.714  18.777  68.640  1.00  0.00    -0.337 OA 
HETATM    4  C   UNL     1      -9.193  16.393  68.727  1.00  0.00    -0.239 C  
ENDROOT
BRANCH   4   5
HETATM    5  C   UNL     1     -10.624  16.765  69.114  1.00  0.00    -0.343 C  
BRANCH   5   6
HETATM    6  C   UNL     1     -11.410  15.562  69.635  1.00  0.00    -0.319 C  
BRANCH   6   7
HETATM    7  C   UNL     1     -10.998  14.288  68.894  1.00  0.00    -0.275 C  
BRANCH   7   8
HETATM    8  C   UNL     1     -11.913  13.995  67.704  1.00  0.00    -0.404 C  
BRANCH   8   9
HETATM    9  C   UNL     1     -11.100  13.833  66.417  1.00  0.00    -0.309 C  
BRANCH   9  10
HETATM   10  C   UNL     1     -11.755  14.554  65.241  1.00  0.00    -0.361 C  
HETATM   11  C   UNL     1     -11.015  15.822  64.876  1.00  0.00    -0.427 C  
HETATM   12  O   UNL     1     -11.591  16.467  63.835  1.00  0.00    -1.175 OA 
HETATM   13  O   UNL     1     -10.017  16.244  65.433  1.00  0.00    -0.514 OA 
ENDBRANCH   9  10
ENDBRANCH   8   9
ENDBRANCH   7   8
ENDBRANCH   6   7
ENDBRANCH   5   6
ENDBRANCH   4   5
TORSDOF 6
ENDMDL
MODEL       56
REMARK 921   NORMALIZED FREE ENERGY PREDICTED BY IDOCK:   -3.98 KCAL/MOL
REMARK 922        TOTAL FREE ENERGY PREDICTED BY IDOCK:   -5.73 KCAL/MOL
REMARK 923 INTER-LIGAND FREE ENERGY PREDICTED BY IDOCK:   -5.35 KCAL/MOL
REMARK 924 INTRA-LIGAND FREE ENERGY PREDICTED BY IDOCK:   -0.38 KCAL/MOL
REMARK 927      BINDING AFFINITY PREDICTED BY RF-SCORE:    0.00 PKD
ROOT
HETATM    1  O   UNL     1     -11.750  10.674  70.141  1.00  0.00    -0.276 OA 
HETATM    2  C   UNL     1     -11.927  11.508  69.089  1.00  0.00    -0.320 C  
HETATM    3  O   UNL     1     -12.211  11.098  67.976  1.00  0.00    -0.584 OA 
HETATM    4  C   UNL     1     -11.734  12.960  69.469  1.00  0.00    -0.387 C  
ENDROOT
BRANCH   4   5
HETATM    5  C   UNL     1     -11.937  13.883  68.268  1.00  0.00    -0.392 C  
BRANCH   5   6
HETATM    6  C   UNL     1     -10.611  14.289  67.623  1.00  0.00    -0.253 C  
BRANCH   6   7
HETATM    7  C   UNL     1     -10.737  15.658  66.952  1.00  0.00    -0.307 C  
BRANCH   7   8
HETATM    8  C   UNL     1     -10.441  15.593  65.453  1.00  0.00    -0.435 C  
BRANCH   8   9
HETATM    9  C   UNL     1     -10.451  14.145  64.957  1.00  0.00    -0.447 C  
BRANCH   9  10
HETATM   10  C   UNL     1     -11.745  13.810  64.219  1.00  0.00    -0.426 C  
HETATM   11  C   UNL     1     -11.889  12.323  63.982  1.00  0.00    -0.444 C  
HETATM   12  O   UNL     1     -13.034  12.019  63.327  1.00  0.00    -0.736 OA 
HETATM   13  O   UNL     1     -11.088  11.471  64.325  1.00  0.00    -0.342 OA 
ENDBRANCH   9  10
ENDBRANCH   8   9
ENDBRANCH   7   8
ENDBRANCH   6   7
ENDBRANCH   5   6
ENDBRANCH   4   5
TORSDOF 6
ENDMDL
MODEL       57
REMARK 921   NORMALIZED FREE ENERGY PREDICTED BY IDOCK:   -3.97 KCAL/MOL
REMARK 922        TOTAL FREE ENERGY PREDICTED BY IDOCK:   -5.72 KCAL/MOL
REMARK 923 INTER-LIGAND FREE ENERGY PREDICTED BY IDOCK:   -5.33 KCAL/MOL
REMARK 924 INTRA-LIGAND FREE ENERGY PREDICTED BY IDOCK:   -0.39 KCAL/MOL
REMARK 927      BINDING AFFINITY PREDICTED BY RF-SCORE:    0.00 PKD
ROOT
HETATM    1  O   UNL     1      -9.102  19.190  68.738  1.00  0.00    -0.363 OA 
HETATM    2  C   UNL     1     -10.130  18.415  68.319  1.00  0.00    -0.383 C  
HETATM    3  O   UNL     1     -10.963  18.815  67.522  1.00  0.00    -0.407 OA 
HETATM    4  C   UNL     1     -10.105  17.040  68.949  1.00  0.00    -0.307 C  
ENDROOT
BRANCH   4   5
HETATM    5  C   UNL     1     -11.273  16.182  68.465  1.00  0.00    -0.365 C  
BRANCH   5   6
HETATM    6  C   UNL     1     -12.038  15.543  69.625  1.00  0.00    -0.352 C  
BRANCH   6   7
HETATM    7  C   UNL     1     -11.243  15.669  70.927  1.00  0.00    -0.407 C  
BRANCH   7   8
HETATM    8  C   UNL     1     -12.018  15.124  72.127  1.00  0.00    -0.489 C  
BRANCH   8   9
HETATM    9  C   UNL     1     -13.377  14.568  71.694  1.00  0.00    -0.441 C  
BRANCH   9  10
HETATM   10  C   UNL     1     -13.650  13.198  72.311  1.00  0.00    -0.677 C  
HETATM   11  C   UNL     1     -12.936  12.093  71.566  1.00  0.00    -0.295 C  
HETATM   12  O   UNL     1     -13.173  10.875  72.107  1.00  0.00    -0.474 OA 
HETATM   13  O   UNL     1     -12.223  12.244  70.588  1.00  0.00    -0.371 OA 
ENDBRANCH   9  10
ENDBRANCH   8   9
ENDBRANCH   7   8
ENDBRANCH   6   7
ENDBRANCH   5   6
ENDBRANCH   4   5
TORSDOF 6
ENDMDL
MODEL       58
REMARK 921   NORMALIZED FREE ENERGY PREDICTED BY IDOCK:   -3.97 KCAL/MOL
REMARK 922        TOTAL FREE ENERGY PREDICTED BY IDOCK:   -5.71 KCAL/MOL
REMARK 923 INTER-LIGAND FREE ENERGY PREDICTED BY IDOCK:   -5.03 KCAL/MOL
REMARK 924 INTRA-LIGAND FREE ENERGY PREDICTED BY IDOCK:   -0.68 KCAL/MOL
REMARK 927      BINDING AFFINITY PREDICTED BY RF-SCORE:    0.00 PKD
ROOT
HETATM    1  O   UNL     1     -10.686  12.890  68.211  1.00  0.00    -0.228 OA 
HETATM    2  C   UNL     1     -11.549  11.980  68.722  1.00  0.00    -0.311 C  
HETATM    3  O   UNL     1     -12.147  11.184  68.018  1.00  0.00    -0.635 OA 
HETATM    4  C   UNL     1     -11.664  12.082  70.228  1.00  0.00    -0.267 C  
ENDROOT
BRANCH   4   5
HETATM    5  C   UNL     1     -12.642  11.048  70.784  1.00  0.00    -0.463 C  
BRANCH   5   6
HETATM    6  C   UNL     1     -13.574  11.647  71.838  1.00  0.00    -0.101 C  
BRANCH   6   7
HETATM    7  C   UNL     1     -13.162  13.084  72.166  1.00  0.00    -0.558 C  
BRANCH   7   8
HETATM    8  C   UNL     1     -14.314  14.070  71.971  1.00  0.00    -0.548 C  
BRANCH   8   9
HETATM    9  C   UNL     1     -13.789  15.451  71.569  1.00  0.00    -0.599 C  
BRANCH   9  10
HETATM   10  C   UNL     1     -12.263  15.507  71.607  1.00  0.00    -0.468 C  
HETATM   11  C   UNL     1     -11.672  15.685  70.226  1.00  0.00    -0.357 C  
HETATM   12  O   UNL     1     -10.319  15.735  70.252  1.00  0.00    -0.286 OA 
HETATM   13  O   UNL     1     -12.308  15.775  69.190  1.00  0.00    -0.212 OA 
ENDBRANCH   9  10
ENDBRANCH   8   9
ENDBRANCH   7   8
ENDBRANCH   6   7
ENDBRANCH   5   6
ENDBRANCH   4   5
TORSDOF 6
ENDMDL
MODEL       59
REMARK 921   NORMALIZED FREE ENERGY PREDICTED BY IDOCK:   -3.94 KCAL/MOL
REMARK 922        TOTAL FREE ENERGY PREDICTED BY IDOCK:   -5.67 KCAL/MOL
REMARK 923 INTER-LIGAND FREE ENERGY PREDICTED BY IDOCK:   -5.30 KCAL/MOL
REMARK 924 INTRA-LIGAND FREE ENERGY PREDICTED BY IDOCK:   -0.38 KCAL/MOL
REMARK 927      BINDING AFFINITY PREDICTED BY RF-SCORE:    0.00 PKD
ROOT
HETATM    1  O   UNL     1      -6.333  19.022  69.370  1.00  0.00    -0.266 OA 
HETATM    2  C   UNL     1      -7.172  19.762  68.607  1.00  0.00    -0.323 C  
HETATM    3  O   UNL     1      -6.790  20.735  67.978  1.00  0.00    -0.294 OA 
HETATM    4  C   UNL     1      -8.590  19.236  68.637  1.00  0.00    -0.401 C  
ENDROOT
BRANCH   4   5
HETATM    5  C   UNL     1      -9.520  20.084  67.771  1.00  0.00    -0.486 C  
BRANCH   5   6
HETATM    6  C   UNL     1     -10.829  19.361  67.453  1.00  0.00    -0.555 C  
BRANCH   6   7
HETATM    7  C   UNL     1     -10.596  17.853  67.335  1.00  0.00    -0.370 C  
BRANCH   7   8
HETATM    8  C   UNL     1     -10.392  17.415  65.884  1.00  0.00    -0.276 C  
BRANCH   8   9
HETATM    9  C   UNL     1     -10.083  15.918  65.804  1.00  0.00    -0.389 C  
BRANCH   9  10
HETATM   10  C   UNL     1     -11.126  15.170  64.977  1.00  0.00    -0.428 C  
HETATM   11  C   UNL     1     -12.082  14.389  65.850  1.00  0.00    -0.348 C  
HETATM   12  O   UNL     1     -13.010  13.723  65.123  1.00  0.00    -0.738 OA 
HETATM   13  O   UNL     1     -12.052  14.341  67.068  1.00  0.00    -0.425 OA 
ENDBRANCH   9  10
ENDBRANCH   8   9
ENDBRANCH   7   8
ENDBRANCH   6   7
ENDBRANCH   5   6
ENDBRANCH   4   5
TORSDOF 6
ENDMDL
MODEL       60
REMARK 921   NORMALIZED FREE ENERGY PREDICTED BY IDOCK:   -3.93 KCAL/MOL
REMARK 922        TOTAL FREE ENERGY PREDICTED BY IDOCK:   -5.66 KCAL/MOL
REMARK 923 INTER-LIGAND FREE ENERGY PREDICTED BY IDOCK:   -5.20 KCAL/MOL
REMARK 924 INTRA-LIGAND FREE ENERGY PREDICTED BY IDOCK:   -0.46 KCAL/MOL
REMARK 927      BINDING AFFINITY PREDICTED BY RF-SCORE:    0.00 PKD
ROOT
HETATM    1  O   UNL     1     -11.637  12.484  69.418  1.00  0.00    -0.284 OA 
HETATM    2  C   UNL     1     -11.796  12.486  68.073  1.00  0.00    -0.325 C  
HETATM    3  O   UNL     1     -11.806  11.456  67.419  1.00  0.00    -0.609 OA 
HETATM    4  C   UNL     1     -11.955  13.883  67.516  1.00  0.00    -0.421 C  
ENDROOT
BRANCH   4   5
HETATM    5  C   UNL     1     -12.132  13.864  65.998  1.00  0.00    -0.465 C  
BRANCH   5   6
HETATM    6  C   UNL     1     -11.194  14.847  65.297  1.00  0.00    -0.369 C  
BRANCH   6   7
HETATM    7  C   UNL     1      -9.834  14.885  65.996  1.00  0.00    -0.345 C  
BRANCH   7   8
HETATM    8  C   UNL     1      -9.320  16.314  66.176  1.00  0.00    -0.374 C  
BRANCH   8   9
HETATM    9  C   UNL     1     -10.429  17.231  66.697  1.00  0.00    -0.257 C  
BRANCH   9  10
HETATM   10  C   UNL     1      -9.860  18.448  67.425  1.00  0.00    -0.323 C  
HETATM   11  C   UNL     1     -10.152  19.734  66.686  1.00  0.00    -0.461 C  
HETATM   12  O   UNL     1      -9.650  20.816  67.325  1.00  0.00    -0.457 OA 
HETATM   13  O   UNL     1     -10.764  19.823  65.635  1.00  0.00    -0.505 OA 
ENDBRANCH   9  10
ENDBRANCH   8   9
ENDBRANCH   7   8
ENDBRANCH   6   7
ENDBRANCH   5   6
ENDBRANCH   4   5
TORSDOF 6
ENDMDL
MODEL       61
REMARK 921   NORMALIZED FREE ENERGY PREDICTED BY IDOCK:   -3.92 KCAL/MOL
REMARK 922        TOTAL FREE ENERGY PREDICTED BY IDOCK:   -5.65 KCAL/MOL
REMARK 923 INTER-LIGAND FREE ENERGY PREDICTED BY IDOCK:   -5.33 KCAL/MOL
REMARK 924 INTRA-LIGAND FREE ENERGY PREDICTED BY IDOCK:   -0.32 KCAL/MOL
REMARK 927      BINDING AFFINITY PREDICTED BY RF-SCORE:    0.00 PKD
ROOT
HETATM    1  O   UNL     1      -7.010  19.671  68.947  1.00  0.00    -0.321 OA 
HETATM    2  C   UNL     1      -8.104  19.614  68.152  1.00  0.00    -0.318 C  
HETATM    3  O   UNL     1      -8.377  20.497  67.356  1.00  0.00    -0.341 OA 
HETATM    4  C   UNL     1      -8.910  18.352  68.375  1.00  0.00    -0.340 C  
ENDROOT
BRANCH   4   5
HETATM    5  C   UNL     1     -10.139  18.307  67.468  1.00  0.00    -0.362 C  
BRANCH   5   6
HETATM    6  C   UNL     1     -10.527  16.875  67.096  1.00  0.00    -0.296 C  
BRANCH   6   7
HETATM    7  C   UNL     1      -9.564  16.312  66.049  1.00  0.00    -0.371 C  
BRANCH   7   8
HETATM    8  C   UNL     1      -9.997  14.931  65.554  1.00  0.00    -0.392 C  
BRANCH   8   9
HETATM    9  C   UNL     1     -11.500  14.727  65.753  1.00  0.00    -0.322 C  
BRANCH   9  10
HETATM   10  C   UNL     1     -12.158  14.131  64.510  1.00  0.00    -0.489 C  
HETATM   11  C   UNL     1     -12.380  12.642  64.649  1.00  0.00    -0.476 C  
HETATM   12  O   UNL     1     -12.962  12.107  63.550  1.00  0.00    -0.794 OA 
HETATM   13  O   UNL     1     -12.081  11.969  65.621  1.00  0.00    -0.508 OA 
ENDBRANCH   9  10
ENDBRANCH   8   9
ENDBRANCH   7   8
ENDBRANCH   6   7
ENDBRANCH   5   6
ENDBRANCH   4   5
TORSDOF 6
ENDMDL
MODEL       62
REMARK 921   NORMALIZED FREE ENERGY PREDICTED BY IDOCK:   -3.91 KCAL/MOL
REMARK 922        TOTAL FREE ENERGY PREDICTED BY IDOCK:   -5.63 KCAL/MOL
REMARK 923 INTER-LIGAND FREE ENERGY PREDICTED BY IDOCK:   -5.20 KCAL/MOL
REMARK 924 INTRA-LIGAND FREE ENERGY PREDICTED BY IDOCK:   -0.43 KCAL/MOL
REMARK 927      BINDING AFFINITY PREDICTED BY RF-SCORE:    0.00 PKD
ROOT
HETATM    1  O   UNL     1     -10.799  19.305  67.385  1.00  0.00    -0.486 OA 
HETATM    2  C   UNL     1     -10.593  18.038  67.815  1.00  0.00    -0.394 C  
HETATM    3  O   UNL     1     -10.568  17.750  69.000  1.00  0.00    -0.249 OA 
HETATM    4  C   UNL     1     -10.409  17.067  66.670  1.00  0.00    -0.299 C  
ENDROOT
BRANCH   4   5
HETATM    5  C   UNL     1     -10.178  15.644  67.175  1.00  0.00    -0.270 C  
BRANCH   5   6
HETATM    6  C   UNL     1     -11.158  14.646  66.556  1.00  0.00    -0.329 C  
BRANCH   6   7
HETATM    7  C   UNL     1     -11.915  13.888  67.649  1.00  0.00    -0.403 C  
BRANCH   7   8
HETATM    8  C   UNL     1     -11.379  14.206  69.045  1.00  0.00    -0.310 C  
BRANCH   8   9
HETATM    9  C   UNL     1     -12.374  13.773  70.124  1.00  0.00    -0.390 C  
BRANCH   9  10
HETATM   10  C   UNL     1     -12.934  14.970  70.890  1.00  0.00    -0.463 C  
HETATM   11  C   UNL     1     -13.610  14.549  72.176  1.00  0.00    -0.419 C  
HETATM   12  O   UNL     1     -14.109  15.606  72.860  1.00  0.00    -0.507 OA 
HETATM   13  O   UNL     1     -13.712  13.404  72.580  1.00  0.00    -0.687 OA 
ENDBRANCH   9  10
ENDBRANCH   8   9
ENDBRANCH   7   8
ENDBRANCH   6   7
ENDBRANCH   5   6
ENDBRANCH   4   5
TORSDOF 6
ENDMDL
MODEL       63
REMARK 921   NORMALIZED FREE ENERGY PREDICTED BY IDOCK:   -3.91 KCAL/MOL
REMARK 922        TOTAL FREE ENERGY PREDICTED BY IDOCK:   -5.63 KCAL/MOL
REMARK 923 INTER-LIGAND FREE ENERGY PREDICTED BY IDOCK:   -5.24 KCAL/MOL
REMARK 924 INTRA-LIGAND FREE ENERGY PREDICTED BY IDOCK:   -0.39 KCAL/MOL
REMARK 927      BINDING AFFINITY PREDICTED BY RF-SCORE:    0.00 PKD
ROOT
HETATM    1  O   UNL     1      -7.432  20.232  66.833  1.00  0.00    -0.270 OA 
HETATM    2  C   UNL     1      -8.666  19.974  67.328  1.00  0.00    -0.343 C  
HETATM    3  O   UNL     1      -9.661  20.554  66.926  1.00  0.00    -0.432 OA 
HETATM    4  C   UNL     1      -8.642  18.909  68.402  1.00  0.00    -0.381 C  
ENDROOT
BRANCH   4   5
HETATM    5  C   UNL     1     -10.043  18.634  68.947  1.00  0.00    -0.357 C  
BRANCH   5   6
HETATM    6  C   UNL     1     -10.426  17.157  68.830  1.00  0.00    -0.346 C  
BRANCH   6   7
HETATM    7  C   UNL     1      -9.529  16.449  67.813  1.00  0.00    -0.222 C  
BRANCH   7   8
HETATM    8  C   UNL     1     -10.025  15.037  67.496  1.00  0.00    -0.226 C  
BRANCH   8   9
HETATM    9  C   UNL     1      -9.720  14.665  66.043  1.00  0.00    -0.340 C  
BRANCH   9  10
HETATM   10  C   UNL     1     -10.986  14.273  65.283  1.00  0.00    -0.347 C  
HETATM   11  C   UNL     1     -11.528  15.420  64.461  1.00  0.00    -0.311 C  
HETATM   12  O   UNL     1     -12.650  15.080  63.785  1.00  0.00    -0.776 OA 
HETATM   13  O   UNL     1     -11.038  16.535  64.391  1.00  0.00    -0.894 OA 
ENDBRANCH   9  10
ENDBRANCH   8   9
ENDBRANCH   7   8
ENDBRANCH   6   7
ENDBRANCH   5   6
ENDBRANCH   4   5
TORSDOF 6
ENDMDL
MODEL       64
REMARK 921   NORMALIZED FREE ENERGY PREDICTED BY IDOCK:   -3.90 KCAL/MOL
REMARK 922        TOTAL FREE ENERGY PREDICTED BY IDOCK:   -5.63 KCAL/MOL
REMARK 923 INTER-LIGAND FREE ENERGY PREDICTED BY IDOCK:   -5.29 KCAL/MOL
REMARK 924 INTRA-LIGAND FREE ENERGY PREDICTED BY IDOCK:   -0.34 KCAL/MOL
REMARK 927      BINDING AFFINITY PREDICTED BY RF-SCORE:    0.00 PKD
ROOT
HETATM    1  O   UNL     1     -11.064   5.908  69.564  1.00  0.00    -0.381 OA 
HETATM    2  C   UNL     1     -11.006   7.203  69.953  1.00  0.00    -0.253 C  
HETATM    3  O   UNL     1     -10.342   8.033  69.354  1.00  0.00    -0.210 OA 
HETATM    4  C   UNL     1     -11.846   7.471  71.182  1.00  0.00    -0.324 C  
ENDROOT
BRANCH   4   5
HETATM    5  C   UNL     1     -11.767   8.938  71.604  1.00  0.00    -0.411 C  
BRANCH   5   6
HETATM    6  C   UNL     1     -13.116   9.469  72.093  1.00  0.00    -0.522 C  
BRANCH   6   7
HETATM    7  C   UNL     1     -13.208  10.981  71.875  1.00  0.00    -0.503 C  
BRANCH   7   8
HETATM    8  C   UNL     1     -12.289  11.456  70.749  1.00  0.00    -0.483 C  
BRANCH   8   9
HETATM    9  C   UNL     1     -12.318  12.982  70.628  1.00  0.00    -0.391 C  
BRANCH   9  10
HETATM   10  C   UNL     1     -13.324  13.606  71.593  1.00  0.00    -0.424 C  
HETATM   11  C   UNL     1     -13.250  15.117  71.584  1.00  0.00    -0.409 C  
HETATM   12  O   UNL     1     -14.139  15.677  72.437  1.00  0.00    -0.543 OA 
HETATM   13  O   UNL     1     -12.491  15.784  70.902  1.00  0.00    -0.431 OA 
ENDBRANCH   9  10
ENDBRANCH   8   9
ENDBRANCH   7   8
ENDBRANCH   6   7
ENDBRANCH   5   6
ENDBRANCH   4   5
TORSDOF 6
ENDMDL
MODEL       65
REMARK 921   NORMALIZED FREE ENERGY PREDICTED BY IDOCK:   -3.90 KCAL/MOL
REMARK 922        TOTAL FREE ENERGY PREDICTED BY IDOCK:   -5.62 KCAL/MOL
REMARK 923 INTER-LIGAND FREE ENERGY PREDICTED BY IDOCK:   -5.20 KCAL/MOL
REMARK 924 INTRA-LIGAND FREE ENERGY PREDICTED BY IDOCK:   -0.42 KCAL/MOL
REMARK 927      BINDING AFFINITY PREDICTED BY RF-SCORE:    0.00 PKD
ROOT
HETATM    1  O   UNL     1      -9.495  11.390  62.748  1.00  0.00    -0.369 OA 
HETATM    2  C   UNL     1     -10.391  11.393  63.763  1.00  0.00    -0.393 C  
HETATM    3  O   UNL     1     -10.344  10.584  64.675  1.00  0.00    -0.344 OA 
HETATM    4  C   UNL     1     -11.418  12.495  63.617  1.00  0.00    -0.568 C  
ENDROOT
BRANCH   4   5
HETATM    5  C   UNL     1     -12.420  12.481  64.771  1.00  0.00    -0.532 C  
BRANCH   5   6
HETATM    6  C   UNL     1     -12.583  13.862  65.408  1.00  0.00    -0.538 C  
BRANCH   6   7
HETATM    7  C   UNL     1     -12.073  13.852  66.851  1.00  0.00    -0.467 C  
BRANCH   7   8
HETATM    8  C   UNL     1     -11.664  12.450  67.306  1.00  0.00    -0.419 C  
BRANCH   8   9
HETATM    9  C   UNL     1     -11.059  12.487  68.711  1.00  0.00    -0.314 C  
BRANCH   9  10
HETATM   10  C   UNL     1     -12.104  12.188  69.784  1.00  0.00    -0.306 C  
HETATM   11  C   UNL     1     -12.094  10.731  70.189  1.00  0.00    -0.346 C  
HETATM   12  O   UNL     1     -13.018  10.458  71.139  1.00  0.00    -0.367 OA 
HETATM   13  O   UNL     1     -11.355   9.874  69.733  1.00  0.00    -0.239 OA 
ENDBRANCH   9  10
ENDBRANCH   8   9
ENDBRANCH   7   8
ENDBRANCH   6   7
ENDBRANCH   5   6
ENDBRANCH   4   5
TORSDOF 6
ENDMDL
MODEL       66
REMARK 921   NORMALIZED FREE ENERGY PREDICTED BY IDOCK:   -3.90 KCAL/MOL
REMARK 922        TOTAL FREE ENERGY PREDICTED BY IDOCK:   -5.62 KCAL/MOL
REMARK 923 INTER-LIGAND FREE ENERGY PREDICTED BY IDOCK:   -5.08 KCAL/MOL
REMARK 924 INTRA-LIGAND FREE ENERGY PREDICTED BY IDOCK:   -0.54 KCAL/MOL
REMARK 927      BINDING AFFINITY PREDICTED BY RF-SCORE:    0.00 PKD
ROOT
HETATM    1  O   UNL     1      -8.813   9.257  64.657  1.00  0.00    -0.198 OA 
HETATM    2  C   UNL     1      -9.309  10.166  63.784  1.00  0.00    -0.288 C  
HETATM    3  O   UNL     1      -9.078  10.112  62.588  1.00  0.00    -0.238 OA 
HETATM    4  C   UNL     1     -10.156  11.216  64.470  1.00  0.00    -0.364 C  
ENDROOT
BRANCH   4   5
HETATM    5  C   UNL     1     -10.706  12.232  63.470  1.00  0.00    -0.497 C  
BRANCH   5   6
HETATM    6  C   UNL     1     -12.196  12.499  63.681  1.00  0.00    -0.642 C  
BRANCH   6   7
HETATM    7  C   UNL     1     -12.516  12.614  65.173  1.00  0.00    -0.531 C  
BRANCH   7   8
HETATM    8  C   UNL     1     -12.464  14.061  65.663  1.00  0.00    -0.531 C  
BRANCH   8   9
HETATM    9  C   UNL     1     -11.967  14.132  67.109  1.00  0.00    -0.460 C  
BRANCH   9  10
HETATM   10  C   UNL     1     -11.641  12.746  67.662  1.00  0.00    -0.412 C  
HETATM   11  C   UNL     1     -11.766  12.698  69.168  1.00  0.00    -0.321 C  
HETATM   12  O   UNL     1     -11.478  11.472  69.666  1.00  0.00    -0.275 OA 
HETATM   13  O   UNL     1     -12.084  13.633  69.883  1.00  0.00    -0.319 OA 
ENDBRANCH   9  10
ENDBRANCH   8   9
ENDBRANCH   7   8
ENDBRANCH   6   7
ENDBRANCH   5   6
ENDBRANCH   4   5
TORSDOF 6
ENDMDL
MODEL       67
REMARK 921   NORMALIZED FREE ENERGY PREDICTED BY IDOCK:   -3.89 KCAL/MOL
REMARK 922        TOTAL FREE ENERGY PREDICTED BY IDOCK:   -5.60 KCAL/MOL
REMARK 923 INTER-LIGAND FREE ENERGY PREDICTED BY IDOCK:   -5.36 KCAL/MOL
REMARK 924 INTRA-LIGAND FREE ENERGY PREDICTED BY IDOCK:   -0.24 KCAL/MOL
REMARK 927      BINDING AFFINITY PREDICTED BY RF-SCORE:    0.00 PKD
ROOT
HETATM    1  O   UNL     1      -5.134  18.423  71.915  1.00  0.00    -0.689 OA 
HETATM    2  C   UNL     1      -5.862  19.372  71.280  1.00  0.00    -0.071 C  
HETATM    3  O   UNL     1      -6.147  20.434  71.808  1.00  0.00    -0.634 OA 
HETATM    4  C   UNL     1      -6.255  18.953  69.880  1.00  0.00    -0.206 C  
ENDROOT
BRANCH   4   5
HETATM    5  C   UNL     1      -7.075  20.037  69.182  1.00  0.00    -0.228 C  
BRANCH   5   6
HETATM    6  C   UNL     1      -7.180  19.797  67.675  1.00  0.00    -0.295 C  
BRANCH   6   7
HETATM    7  C   UNL     1      -8.644  19.645  67.255  1.00  0.00    -0.356 C  
BRANCH   7   8
HETATM    8  C   UNL     1      -8.889  18.344  66.490  1.00  0.00    -0.289 C  
BRANCH   8   9
HETATM    9  C   UNL     1     -10.327  17.858  66.686  1.00  0.00    -0.362 C  
BRANCH   9  10
HETATM   10  C   UNL     1     -10.450  16.352  66.463  1.00  0.00    -0.282 C  
HETATM   11  C   UNL     1     -10.947  16.027  65.072  1.00  0.00    -0.380 C  
HETATM   12  O   UNL     1     -11.058  14.693  64.868  1.00  0.00    -0.366 OA 
HETATM   13  O   UNL     1     -11.225  16.843  64.211  1.00  0.00    -1.204 OA 
ENDBRANCH   9  10
ENDBRANCH   8   9
ENDBRANCH   7   8
ENDBRANCH   6   7
ENDBRANCH   5   6
ENDBRANCH   4   5
TORSDOF 6
ENDMDL
MODEL       68
REMARK 921   NORMALIZED FREE ENERGY PREDICTED BY IDOCK:   -3.87 KCAL/MOL
REMARK 922        TOTAL FREE ENERGY PREDICTED BY IDOCK:   -5.58 KCAL/MOL
REMARK 923 INTER-LIGAND FREE ENERGY PREDICTED BY IDOCK:   -5.17 KCAL/MOL
REMARK 924 INTRA-LIGAND FREE ENERGY PREDICTED BY IDOCK:   -0.41 KCAL/MOL
REMARK 927      BINDING AFFINITY PREDICTED BY RF-SCORE:    0.00 PKD
ROOT
HETATM    1  O   UNL     1     -10.591  17.076  68.363  1.00  0.00    -0.341 OA 
HETATM    2  C   UNL     1     -11.373  16.005  68.634  1.00  0.00    -0.383 C  
HETATM    3  O   UNL     1     -11.678  15.190  67.780  1.00  0.00    -0.331 OA 
HETATM    4  C   UNL     1     -11.800  15.958  70.085  1.00  0.00    -0.327 C  
ENDROOT
BRANCH   4   5
HETATM    5  C   UNL     1     -12.682  14.743  70.370  1.00  0.00    -0.368 C  
BRANCH   5   6
HETATM    6  C   UNL     1     -13.877  15.096  71.257  1.00  0.00    -0.553 C  
BRANCH   6   7
HETATM    7  C   UNL     1     -14.244  13.915  72.158  1.00  0.00    -0.595 C  
BRANCH   7   8
HETATM    8  C   UNL     1     -13.058  12.978  72.389  1.00  0.00    -0.380 C  
BRANCH   8   9
HETATM    9  C   UNL     1     -13.395  11.551  71.949  1.00  0.00    -0.408 C  
BRANCH   9  10
HETATM   10  C   UNL     1     -12.422  11.043  70.887  1.00  0.00    -0.509 C  
HETATM   11  C   UNL     1     -11.939   9.642  71.192  1.00  0.00    -0.367 C  
HETATM   12  O   UNL     1     -11.076   9.185  70.254  1.00  0.00    -0.240 OA 
HETATM   13  O   UNL     1     -12.265   8.975  72.158  1.00  0.00    -0.365 OA 
ENDBRANCH   9  10
ENDBRANCH   8   9
ENDBRANCH   7   8
ENDBRANCH   6   7
ENDBRANCH   5   6
ENDBRANCH   4   5
TORSDOF 6
ENDMDL
MODEL       69
REMARK 921   NORMALIZED FREE ENERGY PREDICTED BY IDOCK:   -3.86 KCAL/MOL
REMARK 922        TOTAL FREE ENERGY PREDICTED BY IDOCK:   -5.56 KCAL/MOL
REMARK 923 INTER-LIGAND FREE ENERGY PREDICTED BY IDOCK:   -5.30 KCAL/MOL
REMARK 924 INTRA-LIGAND FREE ENERGY PREDICTED BY IDOCK:   -0.27 KCAL/MOL
REMARK 927      BINDING AFFINITY PREDICTED BY RF-SCORE:    0.00 PKD
ROOT
HETATM    1  O   UNL     1     -11.499  16.111  69.614  1.00  0.00    -0.327 OA 
HETATM    2  C   UNL     1     -11.997  15.779  70.828  1.00  0.00    -0.407 C  
HETATM    3  O   UNL     1     -11.751  16.428  71.831  1.00  0.00    -0.493 OA 
HETATM    4  C   UNL     1     -12.869  14.544  70.772  1.00  0.00    -0.423 C  
ENDROOT
BRANCH   4   5
HETATM    5  C   UNL     1     -13.421  14.186  72.151  1.00  0.00    -0.545 C  
BRANCH   5   6
HETATM    6  C   UNL     1     -13.658  12.683  72.304  1.00  0.00    -0.508 C  
BRANCH   6   7
HETATM    7  C   UNL     1     -12.896  11.906  71.228  1.00  0.00    -0.391 C  
BRANCH   7   8
HETATM    8  C   UNL     1     -13.150  10.401  71.317  1.00  0.00    -0.494 C  
BRANCH   8   9
HETATM    9  C   UNL     1     -11.844   9.640  71.557  1.00  0.00    -0.483 C  
BRANCH   9  10
HETATM   10  C   UNL     1     -12.092   8.282  72.209  1.00  0.00    -0.439 C  
HETATM   11  C   UNL     1     -11.559   7.146  71.365  1.00  0.00    -0.283 C  
HETATM   12  O   UNL     1     -11.777   5.938  71.937  1.00  0.00    -0.255 OA 
HETATM   13  O   UNL     1     -10.996   7.266  70.291  1.00  0.00    -0.250 OA 
ENDBRANCH   9  10
ENDBRANCH   8   9
ENDBRANCH   7   8
ENDBRANCH   6   7
ENDBRANCH   5   6
ENDBRANCH   4   5
TORSDOF 6
ENDMDL
MODEL       70
REMARK 921   NORMALIZED FREE ENERGY PREDICTED BY IDOCK:   -3.85 KCAL/MOL
REMARK 922        TOTAL FREE ENERGY PREDICTED BY IDOCK:   -5.55 KCAL/MOL
REMARK 923 INTER-LIGAND FREE ENERGY PREDICTED BY IDOCK:   -4.88 KCAL/MOL
REMARK 924 INTRA-LIGAND FREE ENERGY PREDICTED BY IDOCK:   -0.67 KCAL/MOL
REMARK 927      BINDING AFFINITY PREDICTED BY RF-SCORE:    0.00 PKD
ROOT
HETATM    1  O   UNL     1     -11.541  16.476  63.815  1.00  0.00    -1.109 OA 
HETATM    2  C   UNL     1     -11.877  15.361  64.506  1.00  0.00    -0.256 C  
HETATM    3  O   UNL     1     -12.851  14.686  64.217  1.00  0.00    -0.621 OA 
HETATM    4  C   UNL     1     -10.915  15.077  65.639  1.00  0.00    -0.357 C  
ENDROOT
BRANCH   4   5
HETATM    5  C   UNL     1     -11.311  13.816  66.406  1.00  0.00    -0.327 C  
BRANCH   5   6
HETATM    6  C   UNL     1     -10.207  13.349  67.356  1.00  0.00    -0.237 C  
BRANCH   6   7
HETATM    7  C   UNL     1      -9.920  11.860  67.157  1.00  0.00    -0.209 C  
BRANCH   7   8
HETATM    8  C   UNL     1      -8.722  11.624  66.236  1.00  0.00    -0.136 C  
BRANCH   8   9
HETATM    9  C   UNL     1      -9.051  10.578  65.168  1.00  0.00    -0.227 C  
BRANCH   9  10
HETATM   10  C   UNL     1     -10.519  10.640  64.751  1.00  0.00    -0.280 C  
HETATM   11  C   UNL     1     -10.736  11.589  63.593  1.00  0.00    -0.424 C  
HETATM   12  O   UNL     1     -12.035  11.649  63.218  1.00  0.00    -0.378 OA 
HETATM   13  O   UNL     1      -9.866  12.240  63.039  1.00  0.00    -0.314 OA 
ENDBRANCH   9  10
ENDBRANCH   8   9
ENDBRANCH   7   8
ENDBRANCH   6   7
ENDBRANCH   5   6
ENDBRANCH   4   5
TORSDOF 6
ENDMDL
MODEL       71
REMARK 921   NORMALIZED FREE ENERGY PREDICTED BY IDOCK:   -3.84 KCAL/MOL
REMARK 922        TOTAL FREE ENERGY PREDICTED BY IDOCK:   -5.54 KCAL/MOL
REMARK 923 INTER-LIGAND FREE ENERGY PREDICTED BY IDOCK:   -5.05 KCAL/MOL
REMARK 924 INTRA-LIGAND FREE ENERGY PREDICTED BY IDOCK:   -0.49 KCAL/MOL
REMARK 927      BINDING AFFINITY PREDICTED BY RF-SCORE:    0.00 PKD
ROOT
HETATM    1  O   UNL     1      -9.639  11.150  62.768  1.00  0.00    -0.323 OA 
HETATM    2  C   UNL     1     -10.468  11.229  63.835  1.00  0.00    -0.391 C  
HETATM    3  O   UNL     1     -10.369  10.480  64.792  1.00  0.00    -0.339 OA 
HETATM    4  C   UNL     1     -11.492  12.333  63.685  1.00  0.00    -0.572 C  
ENDROOT
BRANCH   4   5
HETATM    5  C   UNL     1     -12.418  12.406  64.899  1.00  0.00    -0.439 C  
BRANCH   5   6
HETATM    6  C   UNL     1     -12.607  13.840  65.393  1.00  0.00    -0.534 C  
BRANCH   6   7
HETATM    7  C   UNL     1     -12.093  14.839  64.354  1.00  0.00    -0.457 C  
BRANCH   7   8
HETATM    8  C   UNL     1     -10.966  15.713  64.906  1.00  0.00    -0.447 C  
BRANCH   8   9
HETATM    9  C   UNL     1     -10.372  15.101  66.177  1.00  0.00    -0.313 C  
BRANCH   9  10
HETATM   10  C   UNL     1     -10.201  16.143  67.280  1.00  0.00    -0.277 C  
HETATM   11  C   UNL     1     -11.090  15.856  68.469  1.00  0.00    -0.340 C  
HETATM   12  O   UNL     1     -10.943  16.776  69.451  1.00  0.00    -0.293 OA 
HETATM   13  O   UNL     1     -11.860  14.916  68.567  1.00  0.00    -0.326 OA 
ENDBRANCH   9  10
ENDBRANCH   8   9
ENDBRANCH   7   8
ENDBRANCH   6   7
ENDBRANCH   5   6
ENDBRANCH   4   5
TORSDOF 6
ENDMDL
MODEL       72
REMARK 921   NORMALIZED FREE ENERGY PREDICTED BY IDOCK:   -3.83 KCAL/MOL
REMARK 922        TOTAL FREE ENERGY PREDICTED BY IDOCK:   -5.53 KCAL/MOL
REMARK 923 INTER-LIGAND FREE ENERGY PREDICTED BY IDOCK:   -4.92 KCAL/MOL
REMARK 924 INTRA-LIGAND FREE ENERGY PREDICTED BY IDOCK:   -0.60 KCAL/MOL
REMARK 927      BINDING AFFINITY PREDICTED BY RF-SCORE:    0.00 PKD
ROOT
HETATM    1  O   UNL     1     -12.422  14.149  64.045  1.00  0.00    -0.685 OA 
HETATM    2  C   UNL     1     -11.648  14.845  64.911  1.00  0.00    -0.395 C  
HETATM    3  O   UNL     1     -11.152  15.920  64.620  1.00  0.00    -0.476 OA 
HETATM    4  C   UNL     1     -11.492  14.134  66.238  1.00  0.00    -0.358 C  
ENDROOT
BRANCH   4   5
HETATM    5  C   UNL     1     -10.616  14.935  67.201  1.00  0.00    -0.285 C  
BRANCH   5   6
HETATM    6  C   UNL     1     -11.448  15.743  68.199  1.00  0.00    -0.302 C  
BRANCH   6   7
HETATM    7  C   UNL     1     -10.640  16.024  69.468  1.00  0.00    -0.290 C  
BRANCH   7   8
HETATM    8  C   UNL     1     -11.426  15.685  70.735  1.00  0.00    -0.409 C  
BRANCH   8   9
HETATM    9  C   UNL     1     -12.707  14.920  70.395  1.00  0.00    -0.370 C  
BRANCH   9  10
HETATM   10  C   UNL     1     -12.858  13.663  71.249  1.00  0.00    -0.424 C  
HETATM   11  C   UNL     1     -12.349  12.432  70.532  1.00  0.00    -0.262 C  
HETATM   12  O   UNL     1     -12.480  11.313  71.283  1.00  0.00    -0.368 OA 
HETATM   13  O   UNL     1     -11.872  12.412  69.411  1.00  0.00    -0.301 OA 
ENDBRANCH   9  10
ENDBRANCH   8   9
ENDBRANCH   7   8
ENDBRANCH   6   7
ENDBRANCH   5   6
ENDBRANCH   4   5
TORSDOF 6
ENDMDL
MODEL       73
REMARK 921   NORMALIZED FREE ENERGY PREDICTED BY IDOCK:   -3.83 KCAL/MOL
REMARK 922        TOTAL FREE ENERGY PREDICTED BY IDOCK:   -5.52 KCAL/MOL
REMARK 923 INTER-LIGAND FREE ENERGY PREDICTED BY IDOCK:   -5.20 KCAL/MOL
REMARK 924 INTRA-LIGAND FREE ENERGY PREDICTED BY IDOCK:   -0.33 KCAL/MOL
REMARK 927      BINDING AFFINITY PREDICTED BY RF-SCORE:    0.00 PKD
ROOT
HETATM    1  O   UNL     1      -9.830  20.431  66.888  1.00  0.00    -0.441 OA 
HETATM    2  C   UNL     1      -9.031  19.478  66.354  1.00  0.00    -0.370 C  
HETATM    3  O   UNL     1      -8.120  19.747  65.589  1.00  0.00    -0.384 OA 
HETATM    4  C   UNL     1      -9.407  18.088  66.819  1.00  0.00    -0.287 C  
ENDROOT
BRANCH   4   5
HETATM    5  C   UNL     1      -8.494  17.027  66.206  1.00  0.00    -0.304 C  
BRANCH   5   6
HETATM    6  C   UNL     1      -9.177  15.661  66.118  1.00  0.00    -0.378 C  
BRANCH   6   7
HETATM    7  C   UNL     1     -10.695  15.825  66.020  1.00  0.00    -0.311 C  
BRANCH   7   8
HETATM    8  C   UNL     1     -11.195  15.692  64.581  1.00  0.00    -0.380 C  
BRANCH   8   9
HETATM    9  C   UNL     1     -12.166  14.517  64.446  1.00  0.00    -0.480 C  
BRANCH   9  10
HETATM   10  C   UNL     1     -12.449  13.860  65.796  1.00  0.00    -0.530 C  
HETATM   11  C   UNL     1     -11.722  12.542  65.944  1.00  0.00    -0.426 C  
HETATM   12  O   UNL     1     -11.968  11.954  67.139  1.00  0.00    -0.611 OA 
HETATM   13  O   UNL     1     -10.993  12.038  65.108  1.00  0.00    -0.295 OA 
ENDBRANCH   9  10
ENDBRANCH   8   9
ENDBRANCH   7   8
ENDBRANCH   6   7
ENDBRANCH   5   6
ENDBRANCH   4   5
TORSDOF 6
ENDMDL
MODEL       74
REMARK 921   NORMALIZED FREE ENERGY PREDICTED BY IDOCK:   -3.82 KCAL/MOL
REMARK 922        TOTAL FREE ENERGY PREDICTED BY IDOCK:   -5.51 KCAL/MOL
REMARK 923 INTER-LIGAND FREE ENERGY PREDICTED BY IDOCK:   -5.15 KCAL/MOL
REMARK 924 INTRA-LIGAND FREE ENERGY PREDICTED BY IDOCK:   -0.36 KCAL/MOL
REMARK 927      BINDING AFFINITY PREDICTED BY RF-SCORE:    0.00 PKD
ROOT
HETATM    1  O   UNL     1     -12.625  16.563  73.374  1.00  0.00    -0.416 OA 
HETATM    2  C   UNL     1     -12.878  15.902  72.219  1.00  0.00    -0.430 C  
HETATM    3  O   UNL     1     -14.009  15.598  71.879  1.00  0.00    -0.475 OA 
HETATM    4  C   UNL     1     -11.615  15.605  71.440  1.00  0.00    -0.499 C  
ENDROOT
BRANCH   4   5
HETATM    5  C   UNL     1     -11.921  14.859  70.143  1.00  0.00    -0.368 C  
BRANCH   5   6
HETATM    6  C   UNL     1     -10.964  15.248  69.015  1.00  0.00    -0.254 C  
BRANCH   6   7
HETATM    7  C   UNL     1     -11.373  16.588  68.401  1.00  0.00    -0.209 C  
BRANCH   7   8
HETATM    8  C   UNL     1     -10.169  17.500  68.159  1.00  0.00    -0.359 C  
BRANCH   8   9
HETATM    9  C   UNL     1      -9.534  17.216  66.796  1.00  0.00    -0.278 C  
BRANCH   9  10
HETATM   10  C   UNL     1     -10.457  17.620  65.648  1.00  0.00    -0.150 C  
HETATM   11  C   UNL     1     -10.955  16.418  64.876  1.00  0.00    -0.263 C  
HETATM   12  O   UNL     1     -11.774  16.769  63.857  1.00  0.00    -1.076 OA 
HETATM   13  O   UNL     1     -10.673  15.256  65.115  1.00  0.00    -0.376 OA 
ENDBRANCH   9  10
ENDBRANCH   8   9
ENDBRANCH   7   8
ENDBRANCH   6   7
ENDBRANCH   5   6
ENDBRANCH   4   5
TORSDOF 6
ENDMDL
MODEL       75
REMARK 921   NORMALIZED FREE ENERGY PREDICTED BY IDOCK:   -3.82 KCAL/MOL
REMARK 922        TOTAL FREE ENERGY PREDICTED BY IDOCK:   -5.51 KCAL/MOL
REMARK 923 INTER-LIGAND FREE ENERGY PREDICTED BY IDOCK:   -5.28 KCAL/MOL
REMARK 924 INTRA-LIGAND FREE ENERGY PREDICTED BY IDOCK:   -0.24 KCAL/MOL
REMARK 927      BINDING AFFINITY PREDICTED BY RF-SCORE:    0.00 PKD
ROOT
HETATM    1  O   UNL     1      -5.884  20.079  68.716  1.00  0.00    -0.230 OA 
HETATM    2  C   UNL     1      -7.005  20.388  68.022  1.00  0.00    -0.282 C  
HETATM    3  O   UNL     1      -7.071  21.366  67.296  1.00  0.00    -0.565 OA 
HETATM    4  C   UNL     1      -8.119  19.392  68.260  1.00  0.00    -0.371 C  
ENDROOT
BRANCH   4   5
HETATM    5  C   UNL     1      -9.374  19.759  67.470  1.00  0.00    -0.443 C  
BRANCH   5   6
HETATM    6  C   UNL     1     -10.522  18.781  67.726  1.00  0.00    -0.479 C  
BRANCH   6   7
HETATM    7  C   UNL     1     -10.062  17.639  68.635  1.00  0.00    -0.377 C  
BRANCH   7   8
HETATM    8  C   UNL     1     -11.092  16.511  68.704  1.00  0.00    -0.329 C  
BRANCH   8   9
HETATM    9  C   UNL     1     -11.244  15.998  70.138  1.00  0.00    -0.376 C  
BRANCH   9  10
HETATM   10  C   UNL     1     -12.607  15.345  70.363  1.00  0.00    -0.433 C  
HETATM   11  C   UNL     1     -13.126  15.594  71.762  1.00  0.00    -0.466 C  
HETATM   12  O   UNL     1     -14.333  15.018  71.968  1.00  0.00    -0.488 OA 
HETATM   13  O   UNL     1     -12.551  16.232  72.627  1.00  0.00    -0.436 OA 
ENDBRANCH   9  10
ENDBRANCH   8   9
ENDBRANCH   7   8
ENDBRANCH   6   7
ENDBRANCH   5   6
ENDBRANCH   4   5
TORSDOF 6
ENDMDL
MODEL       76
REMARK 921   NORMALIZED FREE ENERGY PREDICTED BY IDOCK:   -3.82 KCAL/MOL
REMARK 922        TOTAL FREE ENERGY PREDICTED BY IDOCK:   -5.51 KCAL/MOL
REMARK 923 INTER-LIGAND FREE ENERGY PREDICTED BY IDOCK:   -5.13 KCAL/MOL
REMARK 924 INTRA-LIGAND FREE ENERGY PREDICTED BY IDOCK:   -0.38 KCAL/MOL
REMARK 927      BINDING AFFINITY PREDICTED BY RF-SCORE:    0.00 PKD
ROOT
HETATM    1  O   UNL     1      -8.523   8.466  67.868  1.00  0.00    -0.129 OA 
HETATM    2  C   UNL     1      -9.528   8.754  67.007  1.00  0.00    -0.169 C  
HETATM    3  O   UNL     1     -10.625   8.227  67.088  1.00  0.00    -0.317 OA 
HETATM    4  C   UNL     1      -9.120   9.781  65.973  1.00  0.00    -0.201 C  
ENDROOT
BRANCH   4   5
HETATM    5  C   UNL     1     -10.266  10.092  65.012  1.00  0.00    -0.203 C  
BRANCH   5   6
HETATM    6  C   UNL     1      -9.779  10.801  63.747  1.00  0.00    -0.372 C  
BRANCH   6   7
HETATM    7  C   UNL     1     -10.376  12.208  63.656  1.00  0.00    -0.482 C  
BRANCH   7   8
HETATM    8  C   UNL     1     -11.889  12.205  63.876  1.00  0.00    -0.558 C  
BRANCH   8   9
HETATM    9  C   UNL     1     -12.296  13.281  64.885  1.00  0.00    -0.476 C  
BRANCH   9  10
HETATM   10  C   UNL     1     -12.377  14.661  64.236  1.00  0.00    -0.375 C  
HETATM   11  C   UNL     1     -11.311  15.595  64.765  1.00  0.00    -0.343 C  
HETATM   12  O   UNL     1     -11.376  16.821  64.195  1.00  0.00    -1.194 OA 
HETATM   13  O   UNL     1     -10.475  15.311  65.607  1.00  0.00    -0.307 OA 
ENDBRANCH   9  10
ENDBRANCH   8   9
ENDBRANCH   7   8
ENDBRANCH   6   7
ENDBRANCH   5   6
ENDBRANCH   4   5
TORSDOF 6
ENDMDL
MODEL       77
REMARK 921   NORMALIZED FREE ENERGY PREDICTED BY IDOCK:   -3.82 KCAL/MOL
REMARK 922        TOTAL FREE ENERGY PREDICTED BY IDOCK:   -5.51 KCAL/MOL
REMARK 923 INTER-LIGAND FREE ENERGY PREDICTED BY IDOCK:   -5.37 KCAL/MOL
REMARK 924 INTRA-LIGAND FREE ENERGY PREDICTED BY IDOCK:   -0.14 KCAL/MOL
REMARK 927      BINDING AFFINITY PREDICTED BY RF-SCORE:    0.00 PKD
ROOT
HETATM    1  O   UNL     1     -10.993   7.325  73.216  1.00  0.00    -0.352 OA 
HETATM    2  C   UNL     1     -11.804   7.834  72.259  1.00  0.00    -0.329 C  
HETATM    3  O   UNL     1     -12.781   7.230  71.846  1.00  0.00    -0.316 OA 
HETATM    4  C   UNL     1     -11.353   9.200  71.792  1.00  0.00    -0.451 C  
ENDROOT
BRANCH   4   5
HETATM    5  C   UNL     1     -12.280   9.756  70.712  1.00  0.00    -0.342 C  
BRANCH   5   6
HETATM    6  C   UNL     1     -12.080  11.257  70.499  1.00  0.00    -0.481 C  
BRANCH   6   7
HETATM    7  C   UNL     1     -11.729  11.551  69.038  1.00  0.00    -0.400 C  
BRANCH   7   8
HETATM    8  C   UNL     1     -11.893  13.032  68.695  1.00  0.00    -0.353 C  
BRANCH   8   9
HETATM    9  C   UNL     1     -11.236  13.357  67.351  1.00  0.00    -0.311 C  
BRANCH   9  10
HETATM   10  C   UNL     1     -12.272  13.514  66.240  1.00  0.00    -0.468 C  
HETATM   11  C   UNL     1     -11.707  14.245  65.043  1.00  0.00    -0.383 C  
HETATM   12  O   UNL     1     -12.620  14.388  64.054  1.00  0.00    -0.764 OA 
HETATM   13  O   UNL     1     -10.569  14.671  64.946  1.00  0.00    -0.416 OA 
ENDBRANCH   9  10
ENDBRANCH   8   9
ENDBRANCH   7   8
ENDBRANCH   6   7
ENDBRANCH   5   6
ENDBRANCH   4   5
TORSDOF 6
ENDMDL
MODEL       78
REMARK 921   NORMALIZED FREE ENERGY PREDICTED BY IDOCK:   -3.81 KCAL/MOL
REMARK 922        TOTAL FREE ENERGY PREDICTED BY IDOCK:   -5.49 KCAL/MOL
REMARK 923 INTER-LIGAND FREE ENERGY PREDICTED BY IDOCK:   -5.15 KCAL/MOL
REMARK 924 INTRA-LIGAND FREE ENERGY PREDICTED BY IDOCK:   -0.35 KCAL/MOL
REMARK 927      BINDING AFFINITY PREDICTED BY RF-SCORE:    0.00 PKD
ROOT
HETATM    1  O   UNL     1     -11.748   9.036  72.007  1.00  0.00    -0.357 OA 
HETATM    2  C   UNL     1     -11.988  10.182  71.328  1.00  0.00    -0.382 C  
HETATM    3  O   UNL     1     -12.806  11.004  71.707  1.00  0.00    -0.430 OA 
HETATM    4  C   UNL     1     -11.135  10.301  70.084  1.00  0.00    -0.385 C  
ENDROOT
BRANCH   4   5
HETATM    5  C   UNL     1     -11.421  11.600  69.332  1.00  0.00    -0.372 C  
BRANCH   5   6
HETATM    6  C   UNL     1     -11.383  11.407  67.815  1.00  0.00    -0.354 C  
BRANCH   6   7
HETATM    7  C   UNL     1     -10.635  12.562  67.145  1.00  0.00    -0.247 C  
BRANCH   7   8
HETATM    8  C   UNL     1     -10.273  13.666  68.140  1.00  0.00    -0.247 C  
BRANCH   8   9
HETATM    9  C   UNL     1     -10.095  15.008  67.426  1.00  0.00    -0.228 C  
BRANCH   9  10
HETATM   10  C   UNL     1     -10.969  15.103  66.177  1.00  0.00    -0.331 C  
HETATM   11  C   UNL     1     -10.586  16.282  65.311  1.00  0.00    -0.336 C  
HETATM   12  O   UNL     1     -11.357  16.373  64.202  1.00  0.00    -0.941 OA 
HETATM   13  O   UNL     1      -9.695  17.078  65.552  1.00  0.00    -0.534 OA 
ENDBRANCH   9  10
ENDBRANCH   8   9
ENDBRANCH   7   8
ENDBRANCH   6   7
ENDBRANCH   5   6
ENDBRANCH   4   5
TORSDOF 6
ENDMDL
MODEL       79
REMARK 921   NORMALIZED FREE ENERGY PREDICTED BY IDOCK:   -3.78 KCAL/MOL
REMARK 922        TOTAL FREE ENERGY PREDICTED BY IDOCK:   -5.46 KCAL/MOL
REMARK 923 INTER-LIGAND FREE ENERGY PREDICTED BY IDOCK:   -5.07 KCAL/MOL
REMARK 924 INTRA-LIGAND FREE ENERGY PREDICTED BY IDOCK:   -0.39 KCAL/MOL
REMARK 927      BINDING AFFINITY PREDICTED BY RF-SCORE:    0.00 PKD
ROOT
HETATM    1  O   UNL     1     -11.406   5.292  72.715  1.00  0.00    -0.285 OA 
HETATM    2  C   UNL     1     -11.519   6.405  71.953  1.00  0.00    -0.304 C  
HETATM    3  O   UNL     1     -11.802   6.355  70.768  1.00  0.00    -0.361 OA 
HETATM    4  C   UNL     1     -11.258   7.670  72.743  1.00  0.00    -0.431 C  
ENDROOT
BRANCH   4   5
HETATM    5  C   UNL     1     -11.390   8.914  71.865  1.00  0.00    -0.446 C  
BRANCH   5   6
HETATM    6  C   UNL     1     -12.771   9.559  71.986  1.00  0.00    -0.479 C  
BRANCH   6   7
HETATM    7  C   UNL     1     -12.993  10.569  70.858  1.00  0.00    -0.455 C  
BRANCH   7   8
HETATM    8  C   UNL     1     -12.757  12.008  71.321  1.00  0.00    -0.382 C  
BRANCH   8   9
HETATM    9  C   UNL     1     -12.019  12.812  70.248  1.00  0.00    -0.358 C  
BRANCH   9  10
HETATM   10  C   UNL     1     -11.845  12.010  68.960  1.00  0.00    -0.372 C  
HETATM   11  C   UNL     1     -11.902  12.894  67.734  1.00  0.00    -0.339 C  
HETATM   12  O   UNL     1     -11.749  12.189  66.589  1.00  0.00    -0.493 OA 
HETATM   13  O   UNL     1     -12.067  14.102  67.739  1.00  0.00    -0.367 OA 
ENDBRANCH   9  10
ENDBRANCH   8   9
ENDBRANCH   7   8
ENDBRANCH   6   7
ENDBRANCH   5   6
ENDBRANCH   4   5
TORSDOF 6
ENDMDL
MODEL       80
REMARK 921   NORMALIZED FREE ENERGY PREDICTED BY IDOCK:   -3.77 KCAL/MOL
REMARK 922        TOTAL FREE ENERGY PREDICTED BY IDOCK:   -5.44 KCAL/MOL
REMARK 923 INTER-LIGAND FREE ENERGY PREDICTED BY IDOCK:   -4.89 KCAL/MOL
REMARK 924 INTRA-LIGAND FREE ENERGY PREDICTED BY IDOCK:   -0.56 KCAL/MOL
REMARK 927      BINDING AFFINITY PREDICTED BY RF-SCORE:    0.00 PKD
ROOT
HETATM    1  O   UNL     1      -8.545   8.614  73.325  1.00  0.00    -0.375 OA 
HETATM    2  C   UNL     1      -9.494   8.656  72.361  1.00  0.00    -0.225 C  
HETATM    3  O   UNL     1      -9.371   9.338  71.357  1.00  0.00    -0.263 OA 
HETATM    4  C   UNL     1     -10.680   7.774  72.685  1.00  0.00    -0.402 C  
ENDROOT
BRANCH   4   5
HETATM    5  C   UNL     1     -11.739   7.836  71.585  1.00  0.00    -0.316 C  
BRANCH   5   6
HETATM    6  C   UNL     1     -13.135   8.113  72.146  1.00  0.00    -0.267 C  
BRANCH   6   7
HETATM    7  C   UNL     1     -13.562   9.550  71.840  1.00  0.00    -0.468 C  
BRANCH   7   8
HETATM    8  C   UNL     1     -12.817  10.126  70.635  1.00  0.00    -0.314 C  
BRANCH   8   9
HETATM    9  C   UNL     1     -12.413  11.580  70.886  1.00  0.00    -0.464 C  
BRANCH   9  10
HETATM   10  C   UNL     1     -13.285  12.231  71.958  1.00  0.00    -0.508 C  
HETATM   11  C   UNL     1     -13.362  13.732  71.786  1.00  0.00    -0.383 C  
HETATM   12  O   UNL     1     -14.133  14.316  72.733  1.00  0.00    -0.575 OA 
HETATM   13  O   UNL     1     -12.807  14.373  70.910  1.00  0.00    -0.327 OA 
ENDBRANCH   9  10
ENDBRANCH   8   9
ENDBRANCH   7   8
ENDBRANCH   6   7
ENDBRANCH   5   6
ENDBRANCH   4   5
TORSDOF 6
ENDMDL
MODEL       81
REMARK 921   NORMALIZED FREE ENERGY PREDICTED BY IDOCK:   -3.77 KCAL/MOL
REMARK 922        TOTAL FREE ENERGY PREDICTED BY IDOCK:   -5.44 KCAL/MOL
REMARK 923 INTER-LIGAND FREE ENERGY PREDICTED BY IDOCK:   -4.97 KCAL/MOL
REMARK 924 INTRA-LIGAND FREE ENERGY PREDICTED BY IDOCK:   -0.47 KCAL/MOL
REMARK 927      BINDING AFFINITY PREDICTED BY RF-SCORE:    0.00 PKD
ROOT
HETATM    1  O   UNL     1     -13.467  11.722  63.102  1.00  0.00    -0.375 OA 
HETATM    2  C   UNL     1     -12.487  12.564  63.508  1.00  0.00    -0.459 C  
HETATM    3  O   UNL     1     -12.601  13.776  63.432  1.00  0.00    -0.842 OA 
HETATM    4  C   UNL     1     -11.283  11.825  64.048  1.00  0.00    -0.461 C  
ENDROOT
BRANCH   4   5
HETATM    5  C   UNL     1     -10.190  12.793  64.500  1.00  0.00    -0.333 C  
BRANCH   5   6
HETATM    6  C   UNL     1      -9.796  12.575  65.961  1.00  0.00    -0.266 C  
BRANCH   6   7
HETATM    7  C   UNL     1      -9.978  13.864  66.766  1.00  0.00    -0.269 C  
BRANCH   7   8
HETATM    8  C   UNL     1     -10.674  14.955  65.952  1.00  0.00    -0.329 C  
BRANCH   8   9
HETATM    9  C   UNL     1      -9.855  16.248  65.960  1.00  0.00    -0.371 C  
BRANCH   9  10
HETATM   10  C   UNL     1      -8.544  16.082  66.725  1.00  0.00    -0.292 C  
HETATM   11  C   UNL     1      -7.527  17.131  66.334  1.00  0.00    -0.306 C  
HETATM   12  O   UNL     1      -6.362  16.989  67.009  1.00  0.00    -0.158 OA 
HETATM   13  O   UNL     1      -7.701  18.015  65.513  1.00  0.00    -0.510 OA 
ENDBRANCH   9  10
ENDBRANCH   8   9
ENDBRANCH   7   8
ENDBRANCH   6   7
ENDBRANCH   5   6
ENDBRANCH   4   5
TORSDOF 6
ENDMDL
MODEL       82
REMARK 921   NORMALIZED FREE ENERGY PREDICTED BY IDOCK:   -3.74 KCAL/MOL
REMARK 922        TOTAL FREE ENERGY PREDICTED BY IDOCK:   -5.40 KCAL/MOL
REMARK 923 INTER-LIGAND FREE ENERGY PREDICTED BY IDOCK:   -5.06 KCAL/MOL
REMARK 924 INTRA-LIGAND FREE ENERGY PREDICTED BY IDOCK:   -0.34 KCAL/MOL
REMARK 927      BINDING AFFINITY PREDICTED BY RF-SCORE:    0.00 PKD
ROOT
HETATM    1  O   UNL     1     -13.528   9.897  72.275  1.00  0.00    -0.430 OA 
HETATM    2  C   UNL     1     -12.974  10.833  71.469  1.00  0.00    -0.456 C  
HETATM    3  O   UNL     1     -12.385  10.540  70.442  1.00  0.00    -0.301 OA 
HETATM    4  C   UNL     1     -13.179  12.237  71.994  1.00  0.00    -0.508 C  
ENDROOT
BRANCH   4   5
HETATM    5  C   UNL     1     -12.547  13.277  71.071  1.00  0.00    -0.408 C  
BRANCH   5   6
HETATM    6  C   UNL     1     -12.461  14.655  71.730  1.00  0.00    -0.412 C  
BRANCH   6   7
HETATM    7  C   UNL     1     -11.962  15.699  70.729  1.00  0.00    -0.438 C  
BRANCH   7   8
HETATM    8  C   UNL     1     -12.061  15.204  69.285  1.00  0.00    -0.278 C  
BRANCH   8   9
HETATM    9  C   UNL     1     -11.144  16.015  68.366  1.00  0.00    -0.351 C  
BRANCH   9  10
HETATM   10  C   UNL     1     -10.414  17.119  69.128  1.00  0.00    -0.296 C  
HETATM   11  C   UNL     1     -10.309  18.390  68.314  1.00  0.00    -0.355 C  
HETATM   12  O   UNL     1      -9.663  19.373  68.983  1.00  0.00    -0.417 OA 
HETATM   13  O   UNL     1     -10.744  18.546  67.186  1.00  0.00    -0.409 OA 
ENDBRANCH   9  10
ENDBRANCH   8   9
ENDBRANCH   7   8
ENDBRANCH   6   7
ENDBRANCH   5   6
ENDBRANCH   4   5
TORSDOF 6
ENDMDL
MODEL       83
REMARK 921   NORMALIZED FREE ENERGY PREDICTED BY IDOCK:   -3.71 KCAL/MOL
REMARK 922        TOTAL FREE ENERGY PREDICTED BY IDOCK:   -5.37 KCAL/MOL
REMARK 923 INTER-LIGAND FREE ENERGY PREDICTED BY IDOCK:   -5.10 KCAL/MOL
REMARK 924 INTRA-LIGAND FREE ENERGY PREDICTED BY IDOCK:   -0.27 KCAL/MOL
REMARK 927      BINDING AFFINITY PREDICTED BY RF-SCORE:    0.00 PKD
ROOT
HETATM    1  O   UNL     1     -11.751  16.475  63.860  1.00  0.00    -1.148 OA 
HETATM    2  C   UNL     1     -11.001  15.883  64.819  1.00  0.00    -0.375 C  
HETATM    3  O   UNL     1     -10.131  16.484  65.428  1.00  0.00    -0.570 OA 
HETATM    4  C   UNL     1     -11.377  14.432  65.027  1.00  0.00    -0.373 C  
ENDROOT
BRANCH   4   5
HETATM    5  C   UNL     1     -10.520  13.783  66.112  1.00  0.00    -0.297 C  
BRANCH   5   6
HETATM    6  C   UNL     1     -11.262  12.659  66.836  1.00  0.00    -0.348 C  
BRANCH   6   7
HETATM    7  C   UNL     1     -11.899  13.180  68.127  1.00  0.00    -0.386 C  
BRANCH   7   8
HETATM    8  C   UNL     1     -11.785  12.171  69.271  1.00  0.00    -0.386 C  
BRANCH   8   9
HETATM    9  C   UNL     1     -10.539  11.298  69.107  1.00  0.00    -0.222 C  
BRANCH   9  10
HETATM   10  C   UNL     1     -10.900   9.825  68.933  1.00  0.00    -0.220 C  
HETATM   11  C   UNL     1     -10.620   9.024  70.185  1.00  0.00    -0.224 C  
HETATM   12  O   UNL     1     -10.938   7.717  70.037  1.00  0.00    -0.255 OA 
HETATM   13  O   UNL     1     -10.162   9.470  71.223  1.00  0.00    -0.296 OA 
ENDBRANCH   9  10
ENDBRANCH   8   9
ENDBRANCH   7   8
ENDBRANCH   6   7
ENDBRANCH   5   6
ENDBRANCH   4   5
TORSDOF 6
ENDMDL
MODEL       84
REMARK 921   NORMALIZED FREE ENERGY PREDICTED BY IDOCK:   -3.71 KCAL/MOL
REMARK 922        TOTAL FREE ENERGY PREDICTED BY IDOCK:   -5.36 KCAL/MOL
REMARK 923 INTER-LIGAND FREE ENERGY PREDICTED BY IDOCK:   -4.66 KCAL/MOL
REMARK 924 INTRA-LIGAND FREE ENERGY PREDICTED BY IDOCK:   -0.71 KCAL/MOL
REMARK 927      BINDING AFFINITY PREDICTED BY RF-SCORE:    0.00 PKD
ROOT
HETATM    1  O   UNL     1     -11.415  14.501  67.105  1.00  0.00    -0.339 OA 
HETATM    2  C   UNL     1     -11.251  15.618  67.853  1.00  0.00    -0.328 C  
HETATM    3  O   UNL     1     -11.714  15.722  68.976  1.00  0.00    -0.379 OA 
HETATM    4  C   UNL     1     -10.445  16.677  67.132  1.00  0.00    -0.300 C  
ENDROOT
BRANCH   4   5
HETATM    5  C   UNL     1     -10.272  17.929  67.992  1.00  0.00    -0.381 C  
BRANCH   5   6
HETATM    6  C   UNL     1     -10.766  19.189  67.280  1.00  0.00    -0.585 C  
BRANCH   6   7
HETATM    7  C   UNL     1      -9.626  20.197  67.120  1.00  0.00    -0.554 C  
BRANCH   7   8
HETATM    8  C   UNL     1      -8.542  20.012  68.182  1.00  0.00    -0.219 C  
BRANCH   8   9
HETATM    9  C   UNL     1      -7.154  19.948  67.540  1.00  0.00    -0.288 C  
BRANCH   9  10
HETATM   10  C   UNL     1      -6.550  18.549  67.638  1.00  0.00    -0.205 C  
HETATM   11  C   UNL     1      -6.865  17.713  66.417  1.00  0.00    -0.262 C  
HETATM   12  O   UNL     1      -6.332  16.471  66.497  1.00  0.00    -0.278 OA 
HETATM   13  O   UNL     1      -7.519  18.082  65.457  1.00  0.00    -0.538 OA 
ENDBRANCH   9  10
ENDBRANCH   8   9
ENDBRANCH   7   8
ENDBRANCH   6   7
ENDBRANCH   5   6
ENDBRANCH   4   5
TORSDOF 6
ENDMDL
MODEL       85
REMARK 921   NORMALIZED FREE ENERGY PREDICTED BY IDOCK:   -3.71 KCAL/MOL
REMARK 922        TOTAL FREE ENERGY PREDICTED BY IDOCK:   -5.36 KCAL/MOL
REMARK 923 INTER-LIGAND FREE ENERGY PREDICTED BY IDOCK:   -4.58 KCAL/MOL
REMARK 924 INTRA-LIGAND FREE ENERGY PREDICTED BY IDOCK:   -0.78 KCAL/MOL
REMARK 927      BINDING AFFINITY PREDICTED BY RF-SCORE:    0.00 PKD
ROOT
HETATM    1  O   UNL     1      -8.207   9.878  64.017  1.00  0.00    -0.140 OA 
HETATM    2  C   UNL     1      -9.452  10.189  64.448  1.00  0.00    -0.308 C  
HETATM    3  O   UNL     1      -9.973   9.624  65.395  1.00  0.00    -0.316 OA 
HETATM    4  C   UNL     1     -10.084  11.294  63.628  1.00  0.00    -0.432 C  
ENDROOT
BRANCH   4   5
HETATM    5  C   UNL     1     -11.487  11.630  64.130  1.00  0.00    -0.364 C  
BRANCH   5   6
HETATM    6  C   UNL     1     -12.043  12.897  63.479  1.00  0.00    -0.633 C  
BRANCH   6   7
HETATM    7  C   UNL     1     -12.110  14.039  64.496  1.00  0.00    -0.484 C  
BRANCH   7   8
HETATM    8  C   UNL     1     -12.770  13.603  65.805  1.00  0.00    -0.470 C  
BRANCH   8   9
HETATM    9  C   UNL     1     -11.897  13.972  67.006  1.00  0.00    -0.458 C  
BRANCH   9  10
HETATM   10  C   UNL     1     -11.411  12.731  67.753  1.00  0.00    -0.376 C  
HETATM   11  C   UNL     1      -9.944  12.462  67.503  1.00  0.00    -0.196 C  
HETATM   12  O   UNL     1      -9.506  11.364  68.162  1.00  0.00    -0.168 OA 
HETATM   13  O   UNL     1      -9.211  13.134  66.798  1.00  0.00    -0.233 OA 
ENDBRANCH   9  10
ENDBRANCH   8   9
ENDBRANCH   7   8
ENDBRANCH   6   7
ENDBRANCH   5   6
ENDBRANCH   4   5
TORSDOF 6
ENDMDL
MODEL       86
REMARK 921   NORMALIZED FREE ENERGY PREDICTED BY IDOCK:   -3.70 KCAL/MOL
REMARK 922        TOTAL FREE ENERGY PREDICTED BY IDOCK:   -5.36 KCAL/MOL
REMARK 923 INTER-LIGAND FREE ENERGY PREDICTED BY IDOCK:   -4.84 KCAL/MOL
REMARK 924 INTRA-LIGAND FREE ENERGY PREDICTED BY IDOCK:   -0.52 KCAL/MOL
REMARK 927      BINDING AFFINITY PREDICTED BY RF-SCORE:    0.00 PKD
ROOT
HETATM    1  O   UNL     1     -11.318  16.827  64.071  1.00  0.00    -1.153 OA 
HETATM    2  C   UNL     1     -10.969  15.850  64.941  1.00  0.00    -0.411 C  
HETATM    3  O   UNL     1     -10.360  16.085  65.972  1.00  0.00    -0.315 OA 
HETATM    4  C   UNL     1     -11.421  14.482  64.479  1.00  0.00    -0.349 C  
ENDROOT
BRANCH   4   5
HETATM    5  C   UNL     1     -11.018  13.395  65.474  1.00  0.00    -0.294 C  
BRANCH   5   6
HETATM    6  C   UNL     1     -12.174  12.999  66.395  1.00  0.00    -0.350 C  
BRANCH   6   7
HETATM    7  C   UNL     1     -11.783  13.193  67.861  1.00  0.00    -0.398 C  
BRANCH   7   8
HETATM    8  C   UNL     1     -11.761  11.871  68.629  1.00  0.00    -0.380 C  
BRANCH   8   9
HETATM    9  C   UNL     1     -10.362  11.252  68.610  1.00  0.00    -0.217 C  
BRANCH   9  10
HETATM   10  C   UNL     1     -10.413   9.748  68.351  1.00  0.00    -0.250 C  
HETATM   11  C   UNL     1     -10.102   9.413  66.910  1.00  0.00    -0.248 C  
HETATM   12  O   UNL     1     -10.146   8.081  66.673  1.00  0.00    -0.268 OA 
HETATM   13  O   UNL     1      -9.839  10.222  66.036  1.00  0.00    -0.206 OA 
ENDBRANCH   9  10
ENDBRANCH   8   9
ENDBRANCH   7   8
ENDBRANCH   6   7
ENDBRANCH   5   6
ENDBRANCH   4   5
TORSDOF 6
ENDMDL
MODEL       87
REMARK 921   NORMALIZED FREE ENERGY PREDICTED BY IDOCK:   -3.68 KCAL/MOL
REMARK 922        TOTAL FREE ENERGY PREDICTED BY IDOCK:   -5.33 KCAL/MOL
REMARK 923 INTER-LIGAND FREE ENERGY PREDICTED BY IDOCK:   -4.82 KCAL/MOL
REMARK 924 INTRA-LIGAND FREE ENERGY PREDICTED BY IDOCK:   -0.50 KCAL/MOL
REMARK 927      BINDING AFFINITY PREDICTED BY RF-SCORE:    0.00 PKD
ROOT
HETATM    1  O   UNL     1      -8.103   8.577  64.991  1.00  0.00    -0.131 OA 
HETATM    2  C   UNL     1      -8.444   9.514  64.074  1.00  0.00    -0.185 C  
HETATM    3  O   UNL     1      -7.830   9.656  63.030  1.00  0.00    -0.119 OA 
HETATM    4  C   UNL     1      -9.645  10.327  64.506  1.00  0.00    -0.378 C  
ENDROOT
BRANCH   4   5
HETATM    5  C   UNL     1     -10.013  11.379  63.460  1.00  0.00    -0.424 C  
BRANCH   5   6
HETATM    6  C   UNL     1     -11.502  11.345  63.109  1.00  0.00     0.083 C  
BRANCH   6   7
HETATM    7  C   UNL     1     -12.178  12.658  63.511  1.00  0.00    -0.638 C  
BRANCH   7   8
HETATM    8  C   UNL     1     -12.548  12.683  64.994  1.00  0.00    -0.504 C  
BRANCH   8   9
HETATM    9  C   UNL     1     -12.541  14.115  65.535  1.00  0.00    -0.501 C  
BRANCH   9  10
HETATM   10  C   UNL     1     -11.125  14.599  65.835  1.00  0.00    -0.338 C  
HETATM   11  C   UNL     1     -10.757  15.813  65.011  1.00  0.00    -0.421 C  
HETATM   12  O   UNL     1      -9.502  16.247  65.272  1.00  0.00    -0.316 OA 
HETATM   13  O   UNL     1     -11.480  16.361  64.197  1.00  0.00    -0.951 OA 
ENDBRANCH   9  10
ENDBRANCH   8   9
ENDBRANCH   7   8
ENDBRANCH   6   7
ENDBRANCH   5   6
ENDBRANCH   4   5
TORSDOF 6
ENDMDL
MODEL       88
REMARK 921   NORMALIZED FREE ENERGY PREDICTED BY IDOCK:   -3.67 KCAL/MOL
REMARK 922        TOTAL FREE ENERGY PREDICTED BY IDOCK:   -5.31 KCAL/MOL
REMARK 923 INTER-LIGAND FREE ENERGY PREDICTED BY IDOCK:   -4.68 KCAL/MOL
REMARK 924 INTRA-LIGAND FREE ENERGY PREDICTED BY IDOCK:   -0.63 KCAL/MOL
REMARK 927      BINDING AFFINITY PREDICTED BY RF-SCORE:    0.00 PKD
ROOT
HETATM    1  O   UNL     1     -11.319  13.672  68.651  1.00  0.00    -0.250 OA 
HETATM    2  C   UNL     1     -11.901  13.054  67.595  1.00  0.00    -0.351 C  
HETATM    3  O   UNL     1     -12.126  11.856  67.587  1.00  0.00    -0.568 OA 
HETATM    4  C   UNL     1     -12.221  14.017  66.473  1.00  0.00    -0.485 C  
ENDROOT
BRANCH   4   5
HETATM    5  C   UNL     1     -12.875  13.302  65.292  1.00  0.00    -0.368 C  
BRANCH   5   6
HETATM    6  C   UNL     1     -12.000  13.340  64.039  1.00  0.00    -0.525 C  
BRANCH   6   7
HETATM    7  C   UNL     1     -11.794  11.930  63.483  1.00  0.00    -0.560 C  
BRANCH   7   8
HETATM    8  C   UNL     1     -10.313  11.570  63.364  1.00  0.00    -0.469 C  
BRANCH   8   9
HETATM    9  C   UNL     1      -9.682  11.388  64.746  1.00  0.00    -0.280 C  
BRANCH   9  10
HETATM   10  C   UNL     1     -10.156  10.100  65.418  1.00  0.00    -0.342 C  
HETATM   11  C   UNL     1      -9.044   9.081  65.529  1.00  0.00    -0.214 C  
HETATM   12  O   UNL     1      -9.456   7.937  66.123  1.00  0.00    -0.169 OA 
HETATM   13  O   UNL     1      -7.899   9.237  65.139  1.00  0.00    -0.104 OA 
ENDBRANCH   9  10
ENDBRANCH   8   9
ENDBRANCH   7   8
ENDBRANCH   6   7
ENDBRANCH   5   6
ENDBRANCH   4   5
TORSDOF 6
ENDMDL
MODEL       89
REMARK 921   NORMALIZED FREE ENERGY PREDICTED BY IDOCK:   -3.66 KCAL/MOL
REMARK 922        TOTAL FREE ENERGY PREDICTED BY IDOCK:   -5.30 KCAL/MOL
REMARK 923 INTER-LIGAND FREE ENERGY PREDICTED BY IDOCK:   -5.00 KCAL/MOL
REMARK 924 INTRA-LIGAND FREE ENERGY PREDICTED BY IDOCK:   -0.30 KCAL/MOL
REMARK 927      BINDING AFFINITY PREDICTED BY RF-SCORE:    0.00 PKD
ROOT
HETATM    1  O   UNL     1     -10.066   9.405  71.103  1.00  0.00    -0.296 OA 
HETATM    2  C   UNL     1     -10.388   9.253  69.796  1.00  0.00    -0.218 C  
HETATM    3  O   UNL     1     -10.339   8.170  69.237  1.00  0.00    -0.211 OA 
HETATM    4  C   UNL     1     -10.802  10.558  69.152  1.00  0.00    -0.277 C  
ENDROOT
BRANCH   4   5
HETATM    5  C   UNL     1     -11.160  10.365  67.679  1.00  0.00    -0.361 C  
BRANCH   5   6
HETATM    6  C   UNL     1     -10.021  10.784  66.750  1.00  0.00    -0.249 C  
BRANCH   6   7
HETATM    7  C   UNL     1     -10.115  10.043  65.414  1.00  0.00    -0.317 C  
BRANCH   7   8
HETATM    8  C   UNL     1      -9.590  10.886  64.251  1.00  0.00    -0.318 C  
BRANCH   8   9
HETATM    9  C   UNL     1     -10.728  11.658  63.579  1.00  0.00    -0.495 C  
BRANCH   9  10
HETATM   10  C   UNL     1     -11.116  12.900  64.377  1.00  0.00    -0.395 C  
HETATM   11  C   UNL     1     -12.598  12.936  64.677  1.00  0.00    -0.391 C  
HETATM   12  O   UNL     1     -12.949  14.035  65.385  1.00  0.00    -0.726 OA 
HETATM   13  O   UNL     1     -13.410  12.093  64.337  1.00  0.00    -0.740 OA 
ENDBRANCH   9  10
ENDBRANCH   8   9
ENDBRANCH   7   8
ENDBRANCH   6   7
ENDBRANCH   5   6
ENDBRANCH   4   5
TORSDOF 6
ENDMDL
MODEL       90
REMARK 921   NORMALIZED FREE ENERGY PREDICTED BY IDOCK:   -3.66 KCAL/MOL
REMARK 922        TOTAL FREE ENERGY PREDICTED BY IDOCK:   -5.30 KCAL/MOL
REMARK 923 INTER-LIGAND FREE ENERGY PREDICTED BY IDOCK:   -4.99 KCAL/MOL
REMARK 924 INTRA-LIGAND FREE ENERGY PREDICTED BY IDOCK:   -0.30 KCAL/MOL
REMARK 927      BINDING AFFINITY PREDICTED BY RF-SCORE:    0.00 PKD
ROOT
HETATM    1  O   UNL     1     -10.624   9.498  68.590  1.00  0.00    -0.213 OA 
HETATM    2  C   UNL     1     -11.272  10.612  68.174  1.00  0.00    -0.302 C  
HETATM    3  O   UNL     1     -12.285  11.017  68.721  1.00  0.00    -0.546 OA 
HETATM    4  C   UNL     1     -10.595  11.260  66.986  1.00  0.00    -0.287 C  
ENDROOT
BRANCH   4   5
HETATM    5  C   UNL     1     -11.341  12.513  66.532  1.00  0.00    -0.387 C  
BRANCH   5   6
HETATM    6  C   UNL     1     -10.802  13.778  67.201  1.00  0.00    -0.288 C  
BRANCH   6   7
HETATM    7  C   UNL     1     -11.850  14.377  68.141  1.00  0.00    -0.362 C  
BRANCH   7   8
HETATM    8  C   UNL     1     -11.422  15.742  68.684  1.00  0.00    -0.389 C  
BRANCH   8   9
HETATM    9  C   UNL     1     -10.500  16.458  67.694  1.00  0.00    -0.302 C  
BRANCH   9  10
HETATM   10  C   UNL     1     -10.491  17.968  67.922  1.00  0.00    -0.408 C  
HETATM   11  C   UNL     1     -10.517  18.734  66.618  1.00  0.00    -0.426 C  
HETATM   12  O   UNL     1     -10.509  20.074  66.813  1.00  0.00    -0.451 OA 
HETATM   13  O   UNL     1     -10.542  18.237  65.505  1.00  0.00    -0.632 OA 
ENDBRANCH   9  10
ENDBRANCH   8   9
ENDBRANCH   7   8
ENDBRANCH   6   7
ENDBRANCH   5   6
ENDBRANCH   4   5
TORSDOF 6
ENDMDL
MODEL       91
REMARK 921   NORMALIZED FREE ENERGY PREDICTED BY IDOCK:   -3.66 KCAL/MOL
REMARK 922        TOTAL FREE ENERGY PREDICTED BY IDOCK:   -5.29 KCAL/MOL
REMARK 923 INTER-LIGAND FREE ENERGY PREDICTED BY IDOCK:   -4.92 KCAL/MOL
REMARK 924 INTRA-LIGAND FREE ENERGY PREDICTED BY IDOCK:   -0.37 KCAL/MOL
REMARK 927      BINDING AFFINITY PREDICTED BY RF-SCORE:    0.00 PKD
ROOT
HETATM    1  O   UNL     1      -9.010   9.641  63.738  1.00  0.00    -0.230 OA 
HETATM    2  C   UNL     1      -9.525  10.839  63.376  1.00  0.00    -0.316 C  
HETATM    3  O   UNL     1      -9.002  11.542  62.527  1.00  0.00    -0.328 OA 
HETATM    4  C   UNL     1     -10.790  11.173  64.137  1.00  0.00    -0.355 C  
ENDROOT
BRANCH   4   5
HETATM    5  C   UNL     1     -11.355  12.528  63.714  1.00  0.00    -0.534 C  
BRANCH   5   6
HETATM    6  C   UNL     1     -12.481  12.995  64.638  1.00  0.00    -0.460 C  
BRANCH   6   7
HETATM    7  C   UNL     1     -12.078  14.276  65.371  1.00  0.00    -0.396 C  
BRANCH   7   8
HETATM    8  C   UNL     1     -12.135  14.110  66.891  1.00  0.00    -0.466 C  
BRANCH   8   9
HETATM    9  C   UNL     1     -11.162  15.068  67.582  1.00  0.00    -0.331 C  
BRANCH   9  10
HETATM   10  C   UNL     1     -10.259  15.778  66.576  1.00  0.00    -0.294 C  
HETATM   11  C   UNL     1     -10.232  17.274  66.801  1.00  0.00    -0.318 C  
HETATM   12  O   UNL     1      -9.433  17.910  65.913  1.00  0.00    -0.522 OA 
HETATM   13  O   UNL     1     -10.845  17.870  67.670  1.00  0.00    -0.375 OA 
ENDBRANCH   9  10
ENDBRANCH   8   9
ENDBRANCH   7   8
ENDBRANCH   6   7
ENDBRANCH   5   6
ENDBRANCH   4   5
TORSDOF 6
ENDMDL
MODEL       92
REMARK 921   NORMALIZED FREE ENERGY PREDICTED BY IDOCK:   -3.65 KCAL/MOL
REMARK 922        TOTAL FREE ENERGY PREDICTED BY IDOCK:   -5.29 KCAL/MOL
REMARK 923 INTER-LIGAND FREE ENERGY PREDICTED BY IDOCK:   -4.90 KCAL/MOL
REMARK 924 INTRA-LIGAND FREE ENERGY PREDICTED BY IDOCK:   -0.39 KCAL/MOL
REMARK 927      BINDING AFFINITY PREDICTED BY RF-SCORE:    0.00 PKD
ROOT
HETATM    1  O   UNL     1     -10.825  19.372  67.115  1.00  0.00    -0.484 OA 
HETATM    2  C   UNL     1     -10.511  18.335  66.304  1.00  0.00    -0.376 C  
HETATM    3  O   UNL     1     -11.012  18.197  65.200  1.00  0.00    -0.637 OA 
HETATM    4  C   UNL     1      -9.492  17.406  66.928  1.00  0.00    -0.275 C  
ENDROOT
BRANCH   4   5
HETATM    5  C   UNL     1      -9.152  16.243  65.998  1.00  0.00    -0.332 C  
BRANCH   5   6
HETATM    6  C   UNL     1      -9.809  14.936  66.446  1.00  0.00    -0.292 C  
BRANCH   6   7
HETATM    7  C   UNL     1     -11.127  14.714  65.701  1.00  0.00    -0.338 C  
BRANCH   7   8
HETATM    8  C   UNL     1     -12.121  13.895  66.525  1.00  0.00    -0.484 C  
BRANCH   8   9
HETATM    9  C   UNL     1     -11.391  12.923  67.454  1.00  0.00    -0.355 C  
BRANCH   9  10
HETATM   10  C   UNL     1     -11.838  13.084  68.905  1.00  0.00    -0.358 C  
HETATM   11  C   UNL     1     -11.956  11.751  69.610  1.00  0.00    -0.312 C  
HETATM   12  O   UNL     1     -12.351  11.887  70.897  1.00  0.00    -0.373 OA 
HETATM   13  O   UNL     1     -11.730  10.663  69.109  1.00  0.00    -0.283 OA 
ENDBRANCH   9  10
ENDBRANCH   8   9
ENDBRANCH   7   8
ENDBRANCH   6   7
ENDBRANCH   5   6
ENDBRANCH   4   5
TORSDOF 6
ENDMDL
MODEL       93
REMARK 921   NORMALIZED FREE ENERGY PREDICTED BY IDOCK:   -3.64 KCAL/MOL
REMARK 922        TOTAL FREE ENERGY PREDICTED BY IDOCK:   -5.27 KCAL/MOL
REMARK 923 INTER-LIGAND FREE ENERGY PREDICTED BY IDOCK:   -5.07 KCAL/MOL
REMARK 924 INTRA-LIGAND FREE ENERGY PREDICTED BY IDOCK:   -0.20 KCAL/MOL
REMARK 927      BINDING AFFINITY PREDICTED BY RF-SCORE:    0.00 PKD
ROOT
HETATM    1  O   UNL     1     -10.058   6.213  73.761  1.00  0.00    -0.194 OA 
HETATM    2  C   UNL     1     -10.807   6.585  72.697  1.00  0.00    -0.247 C  
HETATM    3  O   UNL     1     -11.619   5.836  72.180  1.00  0.00    -0.276 OA 
HETATM    4  C   UNL     1     -10.513   8.003  72.256  1.00  0.00    -0.344 C  
ENDROOT
BRANCH   4   5
HETATM    5  C   UNL     1     -11.368   8.404  71.055  1.00  0.00    -0.303 C  
BRANCH   5   6
HETATM    6  C   UNL     1     -12.617   9.181  71.472  1.00  0.00    -0.413 C  
BRANCH   6   7
HETATM    7  C   UNL     1     -12.513  10.643  71.031  1.00  0.00    -0.515 C  
BRANCH   7   8
HETATM    8  C   UNL     1     -13.284  11.580  71.962  1.00  0.00    -0.443 C  
BRANCH   8   9
HETATM    9  C   UNL     1     -12.999  13.044  71.621  1.00  0.00    -0.417 C  
BRANCH   9  10
HETATM   10  C   UNL     1     -13.839  13.996  72.470  1.00  0.00    -0.610 C  
HETATM   11  C   UNL     1     -13.217  15.371  72.557  1.00  0.00    -0.447 C  
HETATM   12  O   UNL     1     -13.957  16.220  73.308  1.00  0.00    -0.511 OA 
HETATM   13  O   UNL     1     -12.173  15.711  72.027  1.00  0.00    -0.354 OA 
ENDBRANCH   9  10
ENDBRANCH   8   9
ENDBRANCH   7   8
ENDBRANCH   6   7
ENDBRANCH   5   6
ENDBRANCH   4   5
TORSDOF 6
ENDMDL
MODEL       94
REMARK 921   NORMALIZED FREE ENERGY PREDICTED BY IDOCK:   -3.62 KCAL/MOL
REMARK 922        TOTAL FREE ENERGY PREDICTED BY IDOCK:   -5.24 KCAL/MOL
REMARK 923 INTER-LIGAND FREE ENERGY PREDICTED BY IDOCK:   -4.98 KCAL/MOL
REMARK 924 INTRA-LIGAND FREE ENERGY PREDICTED BY IDOCK:   -0.26 KCAL/MOL
REMARK 927      BINDING AFFINITY PREDICTED BY RF-SCORE:    0.00 PKD
ROOT
HETATM    1  O   UNL     1     -10.904  19.631  65.173  1.00  0.00    -0.386 OA 
HETATM    2  C   UNL     1     -10.634  19.398  66.479  1.00  0.00    -0.458 C  
HETATM    3  O   UNL     1     -10.344  20.296  67.253  1.00  0.00    -0.387 OA 
HETATM    4  C   UNL     1     -10.737  17.931  66.833  1.00  0.00    -0.185 C  
ENDROOT
BRANCH   4   5
HETATM    5  C   UNL     1     -10.428  17.689  68.310  1.00  0.00    -0.376 C  
BRANCH   5   6
HETATM    6  C   UNL     1     -10.383  16.200  68.653  1.00  0.00    -0.252 C  
BRANCH   6   7
HETATM    7  C   UNL     1     -11.493  15.842  69.644  1.00  0.00    -0.348 C  
BRANCH   7   8
HETATM    8  C   UNL     1     -11.181  14.560  70.417  1.00  0.00    -0.118 C  
BRANCH   8   9
HETATM    9  C   UNL     1     -12.351  14.171  71.324  1.00  0.00    -0.447 C  
BRANCH   9  10
HETATM   10  C   UNL     1     -13.058  15.399  71.892  1.00  0.00    -0.515 C  
HETATM   11  C   UNL     1     -12.778  15.578  73.368  1.00  0.00    -0.532 C  
HETATM   12  O   UNL     1     -13.402  16.665  73.879  1.00  0.00    -0.473 OA 
HETATM   13  O   UNL     1     -12.078  14.848  74.049  1.00  0.00    -0.504 OA 
ENDBRANCH   9  10
ENDBRANCH   8   9
ENDBRANCH   7   8
ENDBRANCH   6   7
ENDBRANCH   5   6
ENDBRANCH   4   5
TORSDOF 6
ENDMDL
MODEL       95
REMARK 921   NORMALIZED FREE ENERGY PREDICTED BY IDOCK:   -3.61 KCAL/MOL
REMARK 922        TOTAL FREE ENERGY PREDICTED BY IDOCK:   -5.23 KCAL/MOL
REMARK 923 INTER-LIGAND FREE ENERGY PREDICTED BY IDOCK:   -4.71 KCAL/MOL
REMARK 924 INTRA-LIGAND FREE ENERGY PREDICTED BY IDOCK:   -0.52 KCAL/MOL
REMARK 927      BINDING AFFINITY PREDICTED BY RF-SCORE:    0.00 PKD
ROOT
HETATM    1  O   UNL     1      -8.600   8.164  74.008  1.00  0.00    -0.263 OA 
HETATM    2  C   UNL     1      -9.252   8.176  72.822  1.00  0.00    -0.271 C  
HETATM    3  O   UNL     1      -8.892   8.877  71.890  1.00  0.00    -0.342 OA 
HETATM    4  C   UNL     1     -10.438   7.237  72.809  1.00  0.00    -0.302 C  
ENDROOT
BRANCH   4   5
HETATM    5  C   UNL     1     -11.159   7.266  71.462  1.00  0.00    -0.264 C  
BRANCH   5   6
HETATM    6  C   UNL     1     -12.635   7.639  71.608  1.00  0.00    -0.365 C  
BRANCH   6   7
HETATM    7  C   UNL     1     -12.786   8.926  72.422  1.00  0.00    -0.446 C  
BRANCH   7   8
HETATM    8  C   UNL     1     -13.156  10.122  71.543  1.00  0.00    -0.529 C  
BRANCH   8   9
HETATM    9  C   UNL     1     -11.916  10.702  70.859  1.00  0.00    -0.469 C  
BRANCH   9  10
HETATM   10  C   UNL     1     -12.074  10.741  69.341  1.00  0.00    -0.315 C  
HETATM   11  C   UNL     1     -11.877  12.136  68.790  1.00  0.00    -0.303 C  
HETATM   12  O   UNL     1     -12.016  12.178  67.444  1.00  0.00    -0.563 OA 
HETATM   13  O   UNL     1     -11.623  13.128  69.450  1.00  0.00    -0.280 OA 
ENDBRANCH   9  10
ENDBRANCH   8   9
ENDBRANCH   7   8
ENDBRANCH   6   7
ENDBRANCH   5   6
ENDBRANCH   4   5
TORSDOF 6
ENDMDL
MODEL       96
REMARK 921   NORMALIZED FREE ENERGY PREDICTED BY IDOCK:   -3.61 KCAL/MOL
REMARK 922        TOTAL FREE ENERGY PREDICTED BY IDOCK:   -5.23 KCAL/MOL
REMARK 923 INTER-LIGAND FREE ENERGY PREDICTED BY IDOCK:   -4.98 KCAL/MOL
REMARK 924 INTRA-LIGAND FREE ENERGY PREDICTED BY IDOCK:   -0.24 KCAL/MOL
REMARK 927      BINDING AFFINITY PREDICTED BY RF-SCORE:    0.00 PKD
ROOT
HETATM    1  O   UNL     1     -12.710  15.433  70.538  1.00  0.00    -0.410 OA 
HETATM    2  C   UNL     1     -12.375  14.212  70.058  1.00  0.00    -0.344 C  
HETATM    3  O   UNL     1     -11.956  14.053  68.924  1.00  0.00    -0.335 OA 
HETATM    4  C   UNL     1     -12.581  13.117  71.082  1.00  0.00    -0.403 C  
ENDROOT
BRANCH   4   5
HETATM    5  C   UNL     1     -12.197  11.748  70.521  1.00  0.00    -0.438 C  
BRANCH   5   6
HETATM    6  C   UNL     1     -12.577  10.611  71.470  1.00  0.00    -0.517 C  
BRANCH   6   7
HETATM    7  C   UNL     1     -11.452   9.576  71.545  1.00  0.00    -0.466 C  
BRANCH   7   8
HETATM    8  C   UNL     1     -11.799   8.419  72.484  1.00  0.00    -0.427 C  
BRANCH   8   9
HETATM    9  C   UNL     1     -12.385   7.240  71.704  1.00  0.00    -0.387 C  
BRANCH   9  10
HETATM   10  C   UNL     1     -11.365   6.117  71.527  1.00  0.00    -0.340 C  
HETATM   11  C   UNL     1     -11.065   5.854  70.068  1.00  0.00    -0.341 C  
HETATM   12  O   UNL     1     -10.162   4.859  69.903  1.00  0.00    -0.257 OA 
HETATM   13  O   UNL     1     -11.560   6.447  69.125  1.00  0.00    -0.318 OA 
ENDBRANCH   9  10
ENDBRANCH   8   9
ENDBRANCH   7   8
ENDBRANCH   6   7
ENDBRANCH   5   6
ENDBRANCH   4   5
TORSDOF 6
ENDMDL
MODEL       97
REMARK 921   NORMALIZED FREE ENERGY PREDICTED BY IDOCK:   -3.60 KCAL/MOL
REMARK 922        TOTAL FREE ENERGY PREDICTED BY IDOCK:   -5.22 KCAL/MOL
REMARK 923 INTER-LIGAND FREE ENERGY PREDICTED BY IDOCK:   -4.96 KCAL/MOL
REMARK 924 INTRA-LIGAND FREE ENERGY PREDICTED BY IDOCK:   -0.26 KCAL/MOL
REMARK 927      BINDING AFFINITY PREDICTED BY RF-SCORE:    0.00 PKD
ROOT
HETATM    1  O   UNL     1     -10.017  19.963  67.289  1.00  0.00    -0.367 OA 
HETATM    2  C   UNL     1     -10.358  19.120  66.287  1.00  0.00    -0.474 C  
HETATM    3  O   UNL     1     -10.832  19.518  65.235  1.00  0.00    -0.449 OA 
HETATM    4  C   UNL     1     -10.081  17.673  66.635  1.00  0.00    -0.335 C  
ENDROOT
BRANCH   4   5
HETATM    5  C   UNL     1     -10.474  16.739  65.491  1.00  0.00    -0.254 C  
BRANCH   5   6
HETATM    6  C   UNL     1     -10.112  15.283  65.789  1.00  0.00    -0.384 C  
BRANCH   6   7
HETATM    7  C   UNL     1     -10.760  14.348  64.765  1.00  0.00    -0.423 C  
BRANCH   7   8
HETATM    8  C   UNL     1     -12.045  13.713  65.298  1.00  0.00    -0.429 C  
BRANCH   8   9
HETATM    9  C   UNL     1     -12.203  12.282  64.779  1.00  0.00    -0.438 C  
BRANCH   9  10
HETATM   10  C   UNL     1     -11.186  11.962  63.685  1.00  0.00    -0.522 C  
HETATM   11  C   UNL     1     -10.259  10.838  64.090  1.00  0.00    -0.344 C  
HETATM   12  O   UNL     1      -9.355  10.549  63.124  1.00  0.00    -0.258 OA 
HETATM   13  O   UNL     1     -10.291  10.240  65.152  1.00  0.00    -0.286 OA 
ENDBRANCH   9  10
ENDBRANCH   8   9
ENDBRANCH   7   8
ENDBRANCH   6   7
ENDBRANCH   5   6
ENDBRANCH   4   5
TORSDOF 6
ENDMDL
MODEL       98
REMARK 921   NORMALIZED FREE ENERGY PREDICTED BY IDOCK:   -3.59 KCAL/MOL
REMARK 922        TOTAL FREE ENERGY PREDICTED BY IDOCK:   -5.20 KCAL/MOL
REMARK 923 INTER-LIGAND FREE ENERGY PREDICTED BY IDOCK:   -4.59 KCAL/MOL
REMARK 924 INTRA-LIGAND FREE ENERGY PREDICTED BY IDOCK:   -0.61 KCAL/MOL
REMARK 927      BINDING AFFINITY PREDICTED BY RF-SCORE:    0.00 PKD
ROOT
HETATM    1  O   UNL     1     -11.405  12.782  69.161  1.00  0.00    -0.267 OA 
HETATM    2  C   UNL     1     -11.742  12.324  67.932  1.00  0.00    -0.347 C  
HETATM    3  O   UNL     1     -11.900  11.136  67.702  1.00  0.00    -0.612 OA 
HETATM    4  C   UNL     1     -11.890  13.442  66.924  1.00  0.00    -0.453 C  
ENDROOT
BRANCH   4   5
HETATM    5  C   UNL     1     -12.270  12.905  65.545  1.00  0.00    -0.527 C  
BRANCH   5   6
HETATM    6  C   UNL     1     -12.045  13.940  64.442  1.00  0.00    -0.477 C  
BRANCH   6   7
HETATM    7  C   UNL     1     -10.786  14.763  64.725  1.00  0.00    -0.395 C  
BRANCH   7   8
HETATM    8  C   UNL     1     -11.088  16.259  64.820  1.00  0.00    -0.293 C  
BRANCH   8   9
HETATM    9  C   UNL     1     -10.310  16.901  65.971  1.00  0.00    -0.335 C  
BRANCH   9  10
HETATM   10  C   UNL     1      -9.163  16.010  66.444  1.00  0.00    -0.339 C  
HETATM   11  C   UNL     1      -9.278  15.679  67.915  1.00  0.00    -0.190 C  
HETATM   12  O   UNL     1      -8.265  14.889  68.341  1.00  0.00    -0.138 OA 
HETATM   13  O   UNL     1     -10.165  16.060  68.660  1.00  0.00    -0.218 OA 
ENDBRANCH   9  10
ENDBRANCH   8   9
ENDBRANCH   7   8
ENDBRANCH   6   7
ENDBRANCH   5   6
ENDBRANCH   4   5
TORSDOF 6
ENDMDL
MODEL       99
REMARK 921   NORMALIZED FREE ENERGY PREDICTED BY IDOCK:   -3.58 KCAL/MOL
REMARK 922        TOTAL FREE ENERGY PREDICTED BY IDOCK:   -5.18 KCAL/MOL
REMARK 923 INTER-LIGAND FREE ENERGY PREDICTED BY IDOCK:   -4.71 KCAL/MOL
REMARK 924 INTRA-LIGAND FREE ENERGY PREDICTED BY IDOCK:   -0.47 KCAL/MOL
REMARK 927      BINDING AFFINITY PREDICTED BY RF-SCORE:    0.00 PKD
ROOT
HETATM    1  O   UNL     1      -9.858   9.608  70.000  1.00  0.00    -0.216 OA 
HETATM    2  C   UNL     1      -9.443   9.294  68.750  1.00  0.00    -0.150 C  
HETATM    3  O   UNL     1      -8.366   8.762  68.537  1.00  0.00    -0.126 OA 
HETATM    4  C   UNL     1     -10.459   9.675  67.696  1.00  0.00    -0.317 C  
ENDROOT
BRANCH   4   5
HETATM    5  C   UNL     1      -9.972   9.313  66.293  1.00  0.00    -0.357 C  
BRANCH   5   6
HETATM    6  C   UNL     1      -9.496  10.540  65.514  1.00  0.00    -0.265 C  
BRANCH   6   7
HETATM    7  C   UNL     1      -9.806  10.384  64.024  1.00  0.00    -0.355 C  
BRANCH   7   8
HETATM    8  C   UNL     1     -10.256  11.701  63.390  1.00  0.00    -0.471 C  
BRANCH   8   9
HETATM    9  C   UNL     1     -11.758  11.917  63.590  1.00  0.00    -0.572 C  
BRANCH   9  10
HETATM   10  C   UNL     1     -12.061  13.311  64.136  1.00  0.00    -0.494 C  
HETATM   11  C   UNL     1     -12.267  13.296  65.634  1.00  0.00    -0.462 C  
HETATM   12  O   UNL     1     -12.536  14.528  66.126  1.00  0.00    -0.315 OA 
HETATM   13  O   UNL     1     -12.207  12.309  66.347  1.00  0.00    -0.613 OA 
ENDBRANCH   9  10
ENDBRANCH   8   9
ENDBRANCH   7   8
ENDBRANCH   6   7
ENDBRANCH   5   6
ENDBRANCH   4   5
TORSDOF 6
ENDMDL
MODEL      100
REMARK 921   NORMALIZED FREE ENERGY PREDICTED BY IDOCK:   -3.56 KCAL/MOL
REMARK 922        TOTAL FREE ENERGY PREDICTED BY IDOCK:   -5.16 KCAL/MOL
REMARK 923 INTER-LIGAND FREE ENERGY PREDICTED BY IDOCK:   -4.76 KCAL/MOL
REMARK 924 INTRA-LIGAND FREE ENERGY PREDICTED BY IDOCK:   -0.41 KCAL/MOL
REMARK 927      BINDING AFFINITY PREDICTED BY RF-SCORE:    0.00 PKD
ROOT
HETATM    1  O   UNL     1     -13.873  14.307  72.763  1.00  0.00    -0.612 OA 
HETATM    2  C   UNL     1     -13.182  13.586  71.849  1.00  0.00    -0.422 C  
HETATM    3  O   UNL     1     -12.579  14.111  70.927  1.00  0.00    -0.321 OA 
HETATM    4  C   UNL     1     -13.253  12.099  72.119  1.00  0.00    -0.438 C  
ENDROOT
BRANCH   4   5
HETATM    5  C   UNL     1     -12.467  11.304  71.077  1.00  0.00    -0.503 C  
BRANCH   5   6
HETATM    6  C   UNL     1     -13.058   9.911  70.851  1.00  0.00    -0.344 C  
BRANCH   6   7
HETATM    7  C   UNL     1     -12.873   9.040  72.096  1.00  0.00    -0.478 C  
BRANCH   7   8
HETATM    8  C   UNL     1     -12.584   7.582  71.739  1.00  0.00    -0.363 C  
BRANCH   8   9
HETATM    9  C   UNL     1     -11.417   7.038  72.567  1.00  0.00    -0.275 C  
BRANCH   9  10
HETATM   10  C   UNL     1     -10.395   8.126  72.885  1.00  0.00    -0.333 C  
HETATM   11  C   UNL     1      -9.123   7.956  72.083  1.00  0.00    -0.150 C  
HETATM   12  O   UNL     1      -8.212   8.917  72.360  1.00  0.00    -0.384 OA 
HETATM   13  O   UNL     1      -8.910   7.068  71.275  1.00  0.00    -0.133 OA 
ENDBRANCH   9  10
ENDBRANCH   8   9
ENDBRANCH   7   8
ENDBRANCH   6   7
ENDBRANCH   5   6
ENDBRANCH   4   5
TORSDOF 6
ENDMDL
MODEL      101
REMARK 921   NORMALIZED FREE ENERGY PREDICTED BY IDOCK:   -3.56 KCAL/MOL
REMARK 922        TOTAL FREE ENERGY PREDICTED BY IDOCK:   -5.16 KCAL/MOL
REMARK 923 INTER-LIGAND FREE ENERGY PREDICTED BY IDOCK:   -4.76 KCAL/MOL
REMARK 924 INTRA-LIGAND FREE ENERGY PREDICTED BY IDOCK:   -0.40 KCAL/MOL
REMARK 927      BINDING AFFINITY PREDICTED BY RF-SCORE:    0.00 PKD
ROOT
HETATM    1  O   UNL     1      -7.573  19.664  68.240  1.00  0.00    -0.301 OA 
HETATM    2  C   UNL     1      -8.793  19.131  67.996  1.00  0.00    -0.313 C  
HETATM    3  O   UNL     1      -9.793  19.499  68.589  1.00  0.00    -0.398 OA 
HETATM    4  C   UNL     1      -8.748  18.060  66.928  1.00  0.00    -0.261 C  
ENDROOT
BRANCH   4   5
HETATM    5  C   UNL     1     -10.134  17.471  66.668  1.00  0.00    -0.328 C  
BRANCH   5   6
HETATM    6  C   UNL     1     -10.194  15.977  66.988  1.00  0.00    -0.282 C  
BRANCH   6   7
HETATM    7  C   UNL     1     -10.073  15.745  68.496  1.00  0.00    -0.215 C  
BRANCH   7   8
HETATM    8  C   UNL     1     -11.369  16.082  69.234  1.00  0.00    -0.356 C  
BRANCH   8   9
HETATM    9  C   UNL     1     -11.805  14.921  70.131  1.00  0.00    -0.357 C  
BRANCH   9  10
HETATM   10  C   UNL     1     -13.093  15.242  70.886  1.00  0.00    -0.523 C  
HETATM   11  C   UNL     1     -12.826  15.581  72.335  1.00  0.00    -0.405 C  
HETATM   12  O   UNL     1     -13.964  15.867  73.011  1.00  0.00    -0.573 OA 
HETATM   13  O   UNL     1     -11.729  15.603  72.867  1.00  0.00    -0.449 OA 
ENDBRANCH   9  10
ENDBRANCH   8   9
ENDBRANCH   7   8
ENDBRANCH   6   7
ENDBRANCH   5   6
ENDBRANCH   4   5
TORSDOF 6
ENDMDL
MODEL      102
REMARK 921   NORMALIZED FREE ENERGY PREDICTED BY IDOCK:   -3.56 KCAL/MOL
REMARK 922        TOTAL FREE ENERGY PREDICTED BY IDOCK:   -5.16 KCAL/MOL
REMARK 923 INTER-LIGAND FREE ENERGY PREDICTED BY IDOCK:   -4.67 KCAL/MOL
REMARK 924 INTRA-LIGAND FREE ENERGY PREDICTED BY IDOCK:   -0.49 KCAL/MOL
REMARK 927      BINDING AFFINITY PREDICTED BY RF-SCORE:    0.00 PKD
ROOT
HETATM    1  O   UNL     1     -13.024  12.133  63.599  1.00  0.00    -0.780 OA 
HETATM    2  C   UNL     1     -12.623  12.808  64.701  1.00  0.00    -0.419 C  
HETATM    3  O   UNL     1     -13.197  13.809  65.095  1.00  0.00    -0.757 OA 
HETATM    4  C   UNL     1     -11.413  12.174  65.353  1.00  0.00    -0.387 C  
ENDROOT
BRANCH   4   5
HETATM    5  C   UNL     1     -10.976  12.950  66.595  1.00  0.00    -0.302 C  
BRANCH   5   6
HETATM    6  C   UNL     1     -11.683  12.459  67.859  1.00  0.00    -0.421 C  
BRANCH   6   7
HETATM    7  C   UNL     1     -11.376  13.383  69.039  1.00  0.00    -0.335 C  
BRANCH   7   8
HETATM    8  C   UNL     1     -11.090  14.816  68.588  1.00  0.00    -0.274 C  
BRANCH   8   9
HETATM    9  C   UNL     1      -9.851  15.373  69.292  1.00  0.00    -0.262 C  
BRANCH   9  10
HETATM   10  C   UNL     1      -8.574  14.680  68.821  1.00  0.00    -0.160 C  
HETATM   11  C   UNL     1      -7.924  15.418  67.671  1.00  0.00    -0.155 C  
HETATM   12  O   UNL     1      -6.792  14.809  67.249  1.00  0.00    -0.255 OA 
HETATM   13  O   UNL     1      -8.343  16.442  67.160  1.00  0.00    -0.168 OA 
ENDBRANCH   9  10
ENDBRANCH   8   9
ENDBRANCH   7   8
ENDBRANCH   6   7
ENDBRANCH   5   6
ENDBRANCH   4   5
TORSDOF 6
ENDMDL
MODEL      103
REMARK 921   NORMALIZED FREE ENERGY PREDICTED BY IDOCK:   -3.56 KCAL/MOL
REMARK 922        TOTAL FREE ENERGY PREDICTED BY IDOCK:   -5.16 KCAL/MOL
REMARK 923 INTER-LIGAND FREE ENERGY PREDICTED BY IDOCK:   -4.90 KCAL/MOL
REMARK 924 INTRA-LIGAND FREE ENERGY PREDICTED BY IDOCK:   -0.26 KCAL/MOL
REMARK 927      BINDING AFFINITY PREDICTED BY RF-SCORE:    0.00 PKD
ROOT
HETATM    1  O   UNL     1      -9.987   6.647  71.173  1.00  0.00    -0.182 OA 
HETATM    2  C   UNL     1     -10.539   6.924  69.969  1.00  0.00    -0.226 C  
HETATM    3  O   UNL     1     -11.477   6.285  69.522  1.00  0.00    -0.428 OA 
HETATM    4  C   UNL     1      -9.862   8.089  69.281  1.00  0.00    -0.178 C  
ENDROOT
BRANCH   4   5
HETATM    5  C   UNL     1     -10.499   8.385  67.924  1.00  0.00    -0.255 C  
BRANCH   5   6
HETATM    6  C   UNL     1     -10.386   9.863  67.545  1.00  0.00    -0.289 C  
BRANCH   6   7
HETATM    7  C   UNL     1     -11.437  10.690  68.289  1.00  0.00    -0.318 C  
BRANCH   7   8
HETATM    8  C   UNL     1     -11.517  12.123  67.761  1.00  0.00    -0.398 C  
BRANCH   8   9
HETATM    9  C   UNL     1     -11.418  12.149  66.234  1.00  0.00    -0.433 C  
BRANCH   9  10
HETATM   10  C   UNL     1     -12.076  13.396  65.646  1.00  0.00    -0.476 C  
HETATM   11  C   UNL     1     -11.972  13.429  64.138  1.00  0.00    -0.450 C  
HETATM   12  O   UNL     1     -12.553  14.532  63.610  1.00  0.00    -0.798 OA 
HETATM   13  O   UNL     1     -11.435  12.581  63.446  1.00  0.00    -0.472 OA 
ENDBRANCH   9  10
ENDBRANCH   8   9
ENDBRANCH   7   8
ENDBRANCH   6   7
ENDBRANCH   5   6
ENDBRANCH   4   5
TORSDOF 6
ENDMDL
MODEL      104
REMARK 921   NORMALIZED FREE ENERGY PREDICTED BY IDOCK:   -3.55 KCAL/MOL
REMARK 922        TOTAL FREE ENERGY PREDICTED BY IDOCK:   -5.14 KCAL/MOL
REMARK 923 INTER-LIGAND FREE ENERGY PREDICTED BY IDOCK:   -4.58 KCAL/MOL
REMARK 924 INTRA-LIGAND FREE ENERGY PREDICTED BY IDOCK:   -0.56 KCAL/MOL
REMARK 927      BINDING AFFINITY PREDICTED BY RF-SCORE:    0.00 PKD
ROOT
HETATM    1  O   UNL     1     -12.012  15.998  63.915  1.00  0.00    -0.855 OA 
HETATM    2  C   UNL     1     -11.989  14.759  64.462  1.00  0.00    -0.440 C  
HETATM    3  O   UNL     1     -11.878  14.580  65.663  1.00  0.00    -0.356 OA 
HETATM    4  C   UNL     1     -12.118  13.670  63.419  1.00  0.00    -0.246 C  
ENDROOT
BRANCH   4   5
HETATM    5  C   UNL     1     -12.089  12.281  64.055  1.00  0.00    -0.563 C  
BRANCH   5   6
HETATM    6  C   UNL     1     -10.733  11.595  63.879  1.00  0.00    -0.459 C  
BRANCH   6   7
HETATM    7  C   UNL     1      -9.913  11.688  65.167  1.00  0.00    -0.297 C  
BRANCH   7   8
HETATM    8  C   UNL     1     -10.458  10.770  66.262  1.00  0.00    -0.287 C  
BRANCH   8   9
HETATM    9  C   UNL     1      -9.875  11.143  67.628  1.00  0.00    -0.191 C  
BRANCH   9  10
HETATM   10  C   UNL     1     -10.810  12.063  68.409  1.00  0.00    -0.266 C  
HETATM   11  C   UNL     1     -10.211  13.439  68.605  1.00  0.00    -0.182 C  
HETATM   12  O   UNL     1     -11.035  14.260  69.297  1.00  0.00    -0.252 OA 
HETATM   13  O   UNL     1      -9.119  13.799  68.201  1.00  0.00    -0.183 OA 
ENDBRANCH   9  10
ENDBRANCH   8   9
ENDBRANCH   7   8
ENDBRANCH   6   7
ENDBRANCH   5   6
ENDBRANCH   4   5
TORSDOF 6
ENDMDL
MODEL      105
REMARK 921   NORMALIZED FREE ENERGY PREDICTED BY IDOCK:   -3.53 KCAL/MOL
REMARK 922        TOTAL FREE ENERGY PREDICTED BY IDOCK:   -5.12 KCAL/MOL
REMARK 923 INTER-LIGAND FREE ENERGY PREDICTED BY IDOCK:   -4.78 KCAL/MOL
REMARK 924 INTRA-LIGAND FREE ENERGY PREDICTED BY IDOCK:   -0.34 KCAL/MOL
REMARK 927      BINDING AFFINITY PREDICTED BY RF-SCORE:    0.00 PKD
ROOT
HETATM    1  O   UNL     1     -13.519   9.807  72.306  1.00  0.00    -0.434 OA 
HETATM    2  C   UNL     1     -13.047  10.925  71.706  1.00  0.00    -0.459 C  
HETATM    3  O   UNL     1     -13.254  12.040  72.155  1.00  0.00    -0.495 OA 
HETATM    4  C   UNL     1     -12.257  10.614  70.454  1.00  0.00    -0.432 C  
ENDROOT
BRANCH   4   5
HETATM    5  C   UNL     1     -11.734  11.888  69.792  1.00  0.00    -0.403 C  
BRANCH   5   6
HETATM    6  C   UNL     1     -10.827  11.586  68.598  1.00  0.00    -0.253 C  
BRANCH   6   7
HETATM    7  C   UNL     1     -10.810  10.085  68.302  1.00  0.00    -0.286 C  
BRANCH   7   8
HETATM    8  C   UNL     1     -10.336   9.785  66.879  1.00  0.00    -0.301 C  
BRANCH   8   9
HETATM    9  C   UNL     1     -10.383  11.045  66.011  1.00  0.00    -0.311 C  
BRANCH   9  10
HETATM   10  C   UNL     1      -9.433  10.946  64.820  1.00  0.00    -0.279 C  
HETATM   11  C   UNL     1     -10.093  11.392  63.535  1.00  0.00    -0.395 C  
HETATM   12  O   UNL     1      -9.256  11.306  62.474  1.00  0.00    -0.338 OA 
HETATM   13  O   UNL     1     -11.242  11.787  63.428  1.00  0.00    -0.395 OA 
ENDBRANCH   9  10
ENDBRANCH   8   9
ENDBRANCH   7   8
ENDBRANCH   6   7
ENDBRANCH   5   6
ENDBRANCH   4   5
TORSDOF 6
ENDMDL
MODEL      106
REMARK 921   NORMALIZED FREE ENERGY PREDICTED BY IDOCK:   -3.53 KCAL/MOL
REMARK 922        TOTAL FREE ENERGY PREDICTED BY IDOCK:   -5.12 KCAL/MOL
REMARK 923 INTER-LIGAND FREE ENERGY PREDICTED BY IDOCK:   -4.87 KCAL/MOL
REMARK 924 INTRA-LIGAND FREE ENERGY PREDICTED BY IDOCK:   -0.24 KCAL/MOL
REMARK 927      BINDING AFFINITY PREDICTED BY RF-SCORE:    0.00 PKD
ROOT
HETATM    1  O   UNL     1     -11.921   6.669  71.284  1.00  0.00    -0.336 OA 
HETATM    2  C   UNL     1     -11.499   7.942  71.467  1.00  0.00    -0.265 C  
HETATM    3  O   UNL     1     -11.448   8.458  72.571  1.00  0.00    -0.380 OA 
HETATM    4  C   UNL     1     -11.112   8.611  70.165  1.00  0.00    -0.199 C  
ENDROOT
BRANCH   4   5
HETATM    5  C   UNL     1     -10.639  10.046  70.393  1.00  0.00    -0.343 C  
BRANCH   5   6
HETATM    6  C   UNL     1     -10.182  10.714  69.096  1.00  0.00    -0.238 C  
BRANCH   6   7
HETATM    7  C   UNL     1     -11.204  10.479  67.981  1.00  0.00    -0.361 C  
BRANCH   7   8
HETATM    8  C   UNL     1     -10.736  11.053  66.643  1.00  0.00    -0.305 C  
BRANCH   8   9
HETATM    9  C   UNL     1     -11.018  12.555  66.565  1.00  0.00    -0.303 C  
BRANCH   9  10
HETATM   10  C   UNL     1     -11.043  13.050  65.120  1.00  0.00    -0.317 C  
HETATM   11  C   UNL     1     -12.384  13.646  64.752  1.00  0.00    -0.390 C  
HETATM   12  O   UNL     1     -12.413  14.087  63.473  1.00  0.00    -0.826 OA 
HETATM   13  O   UNL     1     -13.347  13.734  65.494  1.00  0.00    -0.613 OA 
ENDBRANCH   9  10
ENDBRANCH   8   9
ENDBRANCH   7   8
ENDBRANCH   6   7
ENDBRANCH   5   6
ENDBRANCH   4   5
TORSDOF 6
ENDMDL
MODEL      107
REMARK 921   NORMALIZED FREE ENERGY PREDICTED BY IDOCK:   -3.51 KCAL/MOL
REMARK 922        TOTAL FREE ENERGY PREDICTED BY IDOCK:   -5.09 KCAL/MOL
REMARK 923 INTER-LIGAND FREE ENERGY PREDICTED BY IDOCK:   -4.75 KCAL/MOL
REMARK 924 INTRA-LIGAND FREE ENERGY PREDICTED BY IDOCK:   -0.35 KCAL/MOL
REMARK 927      BINDING AFFINITY PREDICTED BY RF-SCORE:    0.00 PKD
ROOT
HETATM    1  O   UNL     1      -6.329  16.702  66.531  1.00  0.00    -0.273 OA 
HETATM    2  C   UNL     1      -7.424  16.107  67.060  1.00  0.00    -0.229 C  
HETATM    3  O   UNL     1      -7.399  14.968  67.495  1.00  0.00    -0.171 OA 
HETATM    4  C   UNL     1      -8.636  17.013  67.039  1.00  0.00    -0.232 C  
ENDROOT
BRANCH   4   5
HETATM    5  C   UNL     1      -9.860  16.323  67.639  1.00  0.00    -0.238 C  
BRANCH   5   6
HETATM    6  C   UNL     1     -10.205  16.867  69.026  1.00  0.00    -0.308 C  
BRANCH   6   7
HETATM    7  C   UNL     1     -10.308  15.726  70.040  1.00  0.00    -0.286 C  
BRANCH   7   8
HETATM    8  C   UNL     1     -11.337  16.021  71.133  1.00  0.00    -0.413 C  
BRANCH   8   9
HETATM    9  C   UNL     1     -12.667  15.326  70.833  1.00  0.00    -0.496 C  
BRANCH   9  10
HETATM   10  C   UNL     1     -12.515  13.807  70.796  1.00  0.00    -0.441 C  
HETATM   11  C   UNL     1     -13.295  13.136  71.903  1.00  0.00    -0.455 C  
HETATM   12  O   UNL     1     -13.165  11.789  71.876  1.00  0.00    -0.482 OA 
HETATM   13  O   UNL     1     -13.973  13.708  72.740  1.00  0.00    -0.725 OA 
ENDBRANCH   9  10
ENDBRANCH   8   9
ENDBRANCH   7   8
ENDBRANCH   6   7
ENDBRANCH   5   6
ENDBRANCH   4   5
TORSDOF 6
ENDMDL
MODEL      108
REMARK 921   NORMALIZED FREE ENERGY PREDICTED BY IDOCK:   -3.51 KCAL/MOL
REMARK 922        TOTAL FREE ENERGY PREDICTED BY IDOCK:   -5.09 KCAL/MOL
REMARK 923 INTER-LIGAND FREE ENERGY PREDICTED BY IDOCK:   -4.44 KCAL/MOL
REMARK 924 INTRA-LIGAND FREE ENERGY PREDICTED BY IDOCK:   -0.65 KCAL/MOL
REMARK 927      BINDING AFFINITY PREDICTED BY RF-SCORE:    0.00 PKD
ROOT
HETATM    1  O   UNL     1      -7.303  11.477  66.787  1.00  0.00    -0.141 OA 
HETATM    2  C   UNL     1      -8.626  11.433  66.503  1.00  0.00    -0.175 C  
HETATM    3  O   UNL     1      -9.472  11.850  67.277  1.00  0.00    -0.172 OA 
HETATM    4  C   UNL     1      -8.901  10.821  65.147  1.00  0.00    -0.199 C  
ENDROOT
BRANCH   4   5
HETATM    5  C   UNL     1     -10.399  10.780  64.845  1.00  0.00    -0.369 C  
BRANCH   5   6
HETATM    6  C   UNL     1     -10.722  11.338  63.459  1.00  0.00    -0.408 C  
BRANCH   6   7
HETATM    7  C   UNL     1     -11.909  12.302  63.531  1.00  0.00    -0.601 C  
BRANCH   7   8
HETATM    8  C   UNL     1     -12.325  12.593  64.973  1.00  0.00    -0.561 C  
BRANCH   8   9
HETATM    9  C   UNL     1     -12.166  14.080  65.298  1.00  0.00    -0.451 C  
BRANCH   9  10
HETATM   10  C   UNL     1     -10.727  14.551  65.101  1.00  0.00    -0.422 C  
HETATM   11  C   UNL     1     -10.259  15.427  66.241  1.00  0.00    -0.290 C  
HETATM   12  O   UNL     1      -8.984  15.848  66.072  1.00  0.00    -0.333 OA 
HETATM   13  O   UNL     1     -10.926  15.740  67.213  1.00  0.00    -0.316 OA 
ENDBRANCH   9  10
ENDBRANCH   8   9
ENDBRANCH   7   8
ENDBRANCH   6   7
ENDBRANCH   5   6
ENDBRANCH   4   5
TORSDOF 6
ENDMDL
MODEL      109
REMARK 921   NORMALIZED FREE ENERGY PREDICTED BY IDOCK:   -3.51 KCAL/MOL
REMARK 922        TOTAL FREE ENERGY PREDICTED BY IDOCK:   -5.09 KCAL/MOL
REMARK 923 INTER-LIGAND FREE ENERGY PREDICTED BY IDOCK:   -4.95 KCAL/MOL
REMARK 924 INTRA-LIGAND FREE ENERGY PREDICTED BY IDOCK:   -0.13 KCAL/MOL
REMARK 927      BINDING AFFINITY PREDICTED BY RF-SCORE:    0.00 PKD
ROOT
HETATM    1  O   UNL     1     -12.934   7.231  71.919  1.00  0.00    -0.312 OA 
HETATM    2  C   UNL     1     -13.319   8.523  72.049  1.00  0.00    -0.369 C  
HETATM    3  O   UNL     1     -14.364   8.838  72.593  1.00  0.00    -0.585 OA 
HETATM    4  C   UNL     1     -12.314   9.483  71.452  1.00  0.00    -0.451 C  
ENDROOT
BRANCH   4   5
HETATM    5  C   UNL     1     -12.767  10.934  71.608  1.00  0.00    -0.498 C  
BRANCH   5   6
HETATM    6  C   UNL     1     -12.394  11.787  70.395  1.00  0.00    -0.362 C  
BRANCH   6   7
HETATM    7  C   UNL     1     -12.371  13.271  70.767  1.00  0.00    -0.425 C  
BRANCH   7   8
HETATM    8  C   UNL     1     -12.142  14.166  69.548  1.00  0.00    -0.388 C  
BRANCH   8   9
HETATM    9  C   UNL     1     -10.766  14.835  69.613  1.00  0.00    -0.207 C  
BRANCH   9  10
HETATM   10  C   UNL     1     -10.856  16.336  69.348  1.00  0.00    -0.331 C  
HETATM   11  C   UNL     1     -10.816  16.651  67.869  1.00  0.00    -0.321 C  
HETATM   12  O   UNL     1     -10.895  17.980  67.628  1.00  0.00    -0.390 OA 
HETATM   13  O   UNL     1     -10.724  15.829  66.973  1.00  0.00    -0.315 OA 
ENDBRANCH   9  10
ENDBRANCH   8   9
ENDBRANCH   7   8
ENDBRANCH   6   7
ENDBRANCH   5   6
ENDBRANCH   4   5
TORSDOF 6
ENDMDL
MODEL      110
REMARK 921   NORMALIZED FREE ENERGY PREDICTED BY IDOCK:   -3.50 KCAL/MOL
REMARK 922        TOTAL FREE ENERGY PREDICTED BY IDOCK:   -5.09 KCAL/MOL
REMARK 923 INTER-LIGAND FREE ENERGY PREDICTED BY IDOCK:   -4.79 KCAL/MOL
REMARK 924 INTRA-LIGAND FREE ENERGY PREDICTED BY IDOCK:   -0.30 KCAL/MOL
REMARK 927      BINDING AFFINITY PREDICTED BY RF-SCORE:    0.00 PKD
ROOT
HETATM    1  O   UNL     1     -12.670  13.569  63.158  1.00  0.00    -0.718 OA 
HETATM    2  C   UNL     1     -11.713  13.517  64.114  1.00  0.00    -0.411 C  
HETATM    3  O   UNL     1     -11.140  12.480  64.405  1.00  0.00    -0.304 OA 
HETATM    4  C   UNL     1     -11.459  14.869  64.745  1.00  0.00    -0.410 C  
ENDROOT
BRANCH   4   5
HETATM    5  C   UNL     1     -10.377  14.789  65.821  1.00  0.00    -0.358 C  
BRANCH   5   6
HETATM    6  C   UNL     1      -9.668  16.129  66.024  1.00  0.00    -0.376 C  
BRANCH   6   7
HETATM    7  C   UNL     1     -10.650  17.289  65.852  1.00  0.00    -0.206 C  
BRANCH   7   8
HETATM    8  C   UNL     1     -10.478  18.352  66.938  1.00  0.00    -0.419 C  
BRANCH   8   9
HETATM    9  C   UNL     1      -9.025  18.827  67.012  1.00  0.00    -0.299 C  
BRANCH   9  10
HETATM   10  C   UNL     1      -8.462  18.701  68.426  1.00  0.00    -0.366 C  
HETATM   11  C   UNL     1      -7.371  19.715  68.690  1.00  0.00    -0.340 C  
HETATM   12  O   UNL     1      -6.867  19.608  69.942  1.00  0.00    -0.279 OA 
HETATM   13  O   UNL     1      -6.968  20.544  67.893  1.00  0.00    -0.300 OA 
ENDBRANCH   9  10
ENDBRANCH   8   9
ENDBRANCH   7   8
ENDBRANCH   6   7
ENDBRANCH   5   6
ENDBRANCH   4   5
TORSDOF 6
ENDMDL
MODEL      111
REMARK 921   NORMALIZED FREE ENERGY PREDICTED BY IDOCK:   -3.50 KCAL/MOL
REMARK 922        TOTAL FREE ENERGY PREDICTED BY IDOCK:   -5.08 KCAL/MOL
REMARK 923 INTER-LIGAND FREE ENERGY PREDICTED BY IDOCK:   -4.78 KCAL/MOL
REMARK 924 INTRA-LIGAND FREE ENERGY PREDICTED BY IDOCK:   -0.30 KCAL/MOL
REMARK 927      BINDING AFFINITY PREDICTED BY RF-SCORE:    0.00 PKD
ROOT
HETATM    1  O   UNL     1      -9.119  19.352  68.852  1.00  0.00    -0.370 OA 
HETATM    2  C   UNL     1      -9.975  18.621  68.099  1.00  0.00    -0.358 C  
HETATM    3  O   UNL     1     -10.881  19.134  67.462  1.00  0.00    -0.473 OA 
HETATM    4  C   UNL     1      -9.666  17.141  68.152  1.00  0.00    -0.276 C  
ENDROOT
BRANCH   4   5
HETATM    5  C   UNL     1     -10.643  16.335  67.297  1.00  0.00    -0.298 C  
BRANCH   5   6
HETATM    6  C   UNL     1     -10.109  16.095  65.885  1.00  0.00    -0.379 C  
BRANCH   6   7
HETATM    7  C   UNL     1     -10.475  14.690  65.403  1.00  0.00    -0.400 C  
BRANCH   7   8
HETATM    8  C   UNL     1     -11.142  13.861  66.502  1.00  0.00    -0.310 C  
BRANCH   8   9
HETATM    9  C   UNL     1     -11.752  12.581  65.927  1.00  0.00    -0.480 C  
BRANCH   9  10
HETATM   10  C   UNL     1     -10.899  11.356  66.247  1.00  0.00    -0.318 C  
HETATM   11  C   UNL     1     -11.267  10.747  67.582  1.00  0.00    -0.299 C  
HETATM   12  O   UNL     1     -10.515   9.660  67.873  1.00  0.00    -0.216 OA 
HETATM   13  O   UNL     1     -12.133  11.160  68.334  1.00  0.00    -0.605 OA 
ENDBRANCH   9  10
ENDBRANCH   8   9
ENDBRANCH   7   8
ENDBRANCH   6   7
ENDBRANCH   5   6
ENDBRANCH   4   5
TORSDOF 6
ENDMDL
MODEL      112
REMARK 921   NORMALIZED FREE ENERGY PREDICTED BY IDOCK:   -3.50 KCAL/MOL
REMARK 922        TOTAL FREE ENERGY PREDICTED BY IDOCK:   -5.07 KCAL/MOL
REMARK 923 INTER-LIGAND FREE ENERGY PREDICTED BY IDOCK:   -4.53 KCAL/MOL
REMARK 924 INTRA-LIGAND FREE ENERGY PREDICTED BY IDOCK:   -0.54 KCAL/MOL
REMARK 927      BINDING AFFINITY PREDICTED BY RF-SCORE:    0.00 PKD
ROOT
HETATM    1  O   UNL     1      -8.621   8.419  68.106  1.00  0.00    -0.137 OA 
HETATM    2  C   UNL     1      -9.567   8.733  67.189  1.00  0.00    -0.175 C  
HETATM    3  O   UNL     1     -10.708   8.309  67.262  1.00  0.00    -0.289 OA 
HETATM    4  C   UNL     1      -9.035   9.648  66.108  1.00  0.00    -0.186 C  
ENDROOT
BRANCH   4   5
HETATM    5  C   UNL     1     -10.117   9.990  65.084  1.00  0.00    -0.268 C  
BRANCH   5   6
HETATM    6  C   UNL     1      -9.563  10.800  63.911  1.00  0.00    -0.339 C  
BRANCH   6   7
HETATM    7  C   UNL     1     -10.212  12.185  63.860  1.00  0.00    -0.426 C  
BRANCH   7   8
HETATM    8  C   UNL     1     -11.727  12.103  63.666  1.00  0.00    -0.588 C  
BRANCH   8   9
HETATM    9  C   UNL     1     -12.464  12.619  64.904  1.00  0.00    -0.564 C  
BRANCH   9  10
HETATM   10  C   UNL     1     -11.518  13.327  65.871  1.00  0.00    -0.359 C  
HETATM   11  C   UNL     1     -11.427  12.608  67.198  1.00  0.00    -0.346 C  
HETATM   12  O   UNL     1     -10.590  13.230  68.060  1.00  0.00    -0.228 OA 
HETATM   13  O   UNL     1     -12.024  11.586  67.492  1.00  0.00    -0.629 OA 
ENDBRANCH   9  10
ENDBRANCH   8   9
ENDBRANCH   7   8
ENDBRANCH   6   7
ENDBRANCH   5   6
ENDBRANCH   4   5
TORSDOF 6
ENDMDL
MODEL      113
REMARK 921   NORMALIZED FREE ENERGY PREDICTED BY IDOCK:   -3.50 KCAL/MOL
REMARK 922        TOTAL FREE ENERGY PREDICTED BY IDOCK:   -5.07 KCAL/MOL
REMARK 923 INTER-LIGAND FREE ENERGY PREDICTED BY IDOCK:   -4.61 KCAL/MOL
REMARK 924 INTRA-LIGAND FREE ENERGY PREDICTED BY IDOCK:   -0.47 KCAL/MOL
REMARK 927      BINDING AFFINITY PREDICTED BY RF-SCORE:    0.00 PKD
ROOT
HETATM    1  O   UNL     1      -9.792  16.822  65.349  1.00  0.00    -0.547 OA 
HETATM    2  C   UNL     1     -10.772  15.902  65.511  1.00  0.00    -0.372 C  
HETATM    3  O   UNL     1     -11.437  15.488  64.576  1.00  0.00    -0.408 OA 
HETATM    4  C   UNL     1     -10.923  15.474  66.955  1.00  0.00    -0.268 C  
ENDROOT
BRANCH   4   5
HETATM    5  C   UNL     1     -12.034  14.437  67.117  1.00  0.00    -0.419 C  
BRANCH   5   6
HETATM    6  C   UNL     1     -11.533  13.156  67.785  1.00  0.00    -0.352 C  
BRANCH   6   7
HETATM    7  C   UNL     1     -11.686  11.962  66.840  1.00  0.00    -0.291 C  
BRANCH   7   8
HETATM    8  C   UNL     1     -12.111  12.392  65.435  1.00  0.00    -0.428 C  
BRANCH   8   9
HETATM    9  C   UNL     1     -11.012  12.086  64.415  1.00  0.00    -0.385 C  
BRANCH   9  10
HETATM   10  C   UNL     1     -10.154  10.899  64.848  1.00  0.00    -0.374 C  
HETATM   11  C   UNL     1      -9.343  10.342  63.700  1.00  0.00    -0.296 C  
HETATM   12  O   UNL     1      -8.580   9.289  64.076  1.00  0.00    -0.187 OA 
HETATM   13  O   UNL     1      -9.351  10.764  62.556  1.00  0.00    -0.279 OA 
ENDBRANCH   9  10
ENDBRANCH   8   9
ENDBRANCH   7   8
ENDBRANCH   6   7
ENDBRANCH   5   6
ENDBRANCH   4   5
TORSDOF 6
ENDMDL
MODEL      114
REMARK 921   NORMALIZED FREE ENERGY PREDICTED BY IDOCK:   -3.48 KCAL/MOL
REMARK 922        TOTAL FREE ENERGY PREDICTED BY IDOCK:   -5.06 KCAL/MOL
REMARK 923 INTER-LIGAND FREE ENERGY PREDICTED BY IDOCK:   -4.85 KCAL/MOL
REMARK 924 INTRA-LIGAND FREE ENERGY PREDICTED BY IDOCK:   -0.21 KCAL/MOL
REMARK 927      BINDING AFFINITY PREDICTED BY RF-SCORE:    0.00 PKD
ROOT
HETATM    1  O   UNL     1     -11.568   6.080  70.966  1.00  0.00    -0.253 OA 
HETATM    2  C   UNL     1     -11.959   7.078  71.794  1.00  0.00    -0.326 C  
HETATM    3  O   UNL     1     -11.314   7.396  72.779  1.00  0.00    -0.321 OA 
HETATM    4  C   UNL     1     -13.253   7.721  71.345  1.00  0.00    -0.310 C  
ENDROOT
BRANCH   4   5
HETATM    5  C   UNL     1     -13.677   8.844  72.291  1.00  0.00    -0.527 C  
BRANCH   5   6
HETATM    6  C   UNL     1     -12.876  10.126  72.058  1.00  0.00    -0.472 C  
BRANCH   6   7
HETATM    7  C   UNL     1     -12.977  10.564  70.595  1.00  0.00    -0.362 C  
BRANCH   7   8
HETATM    8  C   UNL     1     -11.601  10.744  69.953  1.00  0.00    -0.410 C  
BRANCH   8   9
HETATM    9  C   UNL     1     -11.703  11.560  68.663  1.00  0.00    -0.389 C  
BRANCH   9  10
HETATM   10  C   UNL     1     -11.595  13.059  68.933  1.00  0.00    -0.355 C  
HETATM   11  C   UNL     1     -11.807  13.874  67.676  1.00  0.00    -0.386 C  
HETATM   12  O   UNL     1     -11.713  15.205  67.909  1.00  0.00    -0.338 OA 
HETATM   13  O   UNL     1     -12.037  13.421  66.569  1.00  0.00    -0.395 OA 
ENDBRANCH   9  10
ENDBRANCH   8   9
ENDBRANCH   7   8
ENDBRANCH   6   7
ENDBRANCH   5   6
ENDBRANCH   4   5
TORSDOF 6
ENDMDL
MODEL      115
REMARK 921   NORMALIZED FREE ENERGY PREDICTED BY IDOCK:   -3.48 KCAL/MOL
REMARK 922        TOTAL FREE ENERGY PREDICTED BY IDOCK:   -5.05 KCAL/MOL
REMARK 923 INTER-LIGAND FREE ENERGY PREDICTED BY IDOCK:   -4.58 KCAL/MOL
REMARK 924 INTRA-LIGAND FREE ENERGY PREDICTED BY IDOCK:   -0.48 KCAL/MOL
REMARK 927      BINDING AFFINITY PREDICTED BY RF-SCORE:    0.00 PKD
ROOT
HETATM    1  O   UNL     1     -14.132  15.558  72.073  1.00  0.00    -0.498 OA 
HETATM    2  C   UNL     1     -13.658  14.328  71.764  1.00  0.00    -0.395 C  
HETATM    3  O   UNL     1     -14.046  13.320  72.330  1.00  0.00    -0.618 OA 
HETATM    4  C   UNL     1     -12.622  14.373  70.661  1.00  0.00    -0.424 C  
ENDROOT
BRANCH   4   5
HETATM    5  C   UNL     1     -12.099  12.977  70.328  1.00  0.00    -0.388 C  
BRANCH   5   6
HETATM    6  C   UNL     1     -11.813  12.811  68.835  1.00  0.00    -0.351 C  
BRANCH   6   7
HETATM    7  C   UNL     1     -10.317  12.961  68.554  1.00  0.00    -0.239 C  
BRANCH   7   8
HETATM    8  C   UNL     1     -10.038  13.296  67.088  1.00  0.00    -0.239 C  
BRANCH   8   9
HETATM    9  C   UNL     1     -10.784  14.565  66.667  1.00  0.00    -0.305 C  
BRANCH   9  10
HETATM   10  C   UNL     1      -9.865  15.784  66.659  1.00  0.00    -0.266 C  
HETATM   11  C   UNL     1     -10.156  16.716  67.814  1.00  0.00    -0.275 C  
HETATM   12  O   UNL     1      -9.344  17.799  67.814  1.00  0.00    -0.251 OA 
HETATM   13  O   UNL     1     -11.013  16.544  68.664  1.00  0.00    -0.328 OA 
ENDBRANCH   9  10
ENDBRANCH   8   9
ENDBRANCH   7   8
ENDBRANCH   6   7
ENDBRANCH   5   6
ENDBRANCH   4   5
TORSDOF 6
ENDMDL
MODEL      116
REMARK 921   NORMALIZED FREE ENERGY PREDICTED BY IDOCK:   -3.47 KCAL/MOL
REMARK 922        TOTAL FREE ENERGY PREDICTED BY IDOCK:   -5.04 KCAL/MOL
REMARK 923 INTER-LIGAND FREE ENERGY PREDICTED BY IDOCK:   -4.57 KCAL/MOL
REMARK 924 INTRA-LIGAND FREE ENERGY PREDICTED BY IDOCK:   -0.47 KCAL/MOL
REMARK 927      BINDING AFFINITY PREDICTED BY RF-SCORE:    0.00 PKD
ROOT
HETATM    1  O   UNL     1     -11.536  10.228  68.412  1.00  0.00    -0.221 OA 
HETATM    2  C   UNL     1     -11.782  11.549  68.239  1.00  0.00    -0.301 C  
HETATM    3  O   UNL     1     -12.111  12.012  67.159  1.00  0.00    -0.587 OA 
HETATM    4  C   UNL     1     -11.602  12.338  69.517  1.00  0.00    -0.366 C  
ENDROOT
BRANCH   4   5
HETATM    5  C   UNL     1     -11.884  13.824  69.300  1.00  0.00    -0.392 C  
BRANCH   5   6
HETATM    6  C   UNL     1     -10.623  14.599  68.912  1.00  0.00    -0.253 C  
BRANCH   6   7
HETATM    7  C   UNL     1     -10.989  15.975  68.352  1.00  0.00    -0.331 C  
BRANCH   7   8
HETATM    8  C   UNL     1      -9.921  16.507  67.395  1.00  0.00    -0.267 C  
BRANCH   8   9
HETATM    9  C   UNL     1     -10.393  16.409  65.942  1.00  0.00    -0.378 C  
BRANCH   9  10
HETATM   10  C   UNL     1      -9.876  15.141  65.265  1.00  0.00    -0.249 C  
HETATM   11  C   UNL     1     -11.006  14.279  64.748  1.00  0.00    -0.398 C  
HETATM   12  O   UNL     1     -10.555  13.153  64.147  1.00  0.00    -0.414 OA 
HETATM   13  O   UNL     1     -12.194  14.536  64.843  1.00  0.00    -0.412 OA 
ENDBRANCH   9  10
ENDBRANCH   8   9
ENDBRANCH   7   8
ENDBRANCH   6   7
ENDBRANCH   5   6
ENDBRANCH   4   5
TORSDOF 6
ENDMDL
MODEL      117
REMARK 921   NORMALIZED FREE ENERGY PREDICTED BY IDOCK:   -3.46 KCAL/MOL
REMARK 922        TOTAL FREE ENERGY PREDICTED BY IDOCK:   -5.02 KCAL/MOL
REMARK 923 INTER-LIGAND FREE ENERGY PREDICTED BY IDOCK:   -4.70 KCAL/MOL
REMARK 924 INTRA-LIGAND FREE ENERGY PREDICTED BY IDOCK:   -0.32 KCAL/MOL
REMARK 927      BINDING AFFINITY PREDICTED BY RF-SCORE:    0.00 PKD
ROOT
HETATM    1  O   UNL     1      -5.857  16.581  66.570  1.00  0.00    -0.307 OA 
HETATM    2  C   UNL     1      -6.509  15.752  67.420  1.00  0.00    -0.158 C  
HETATM    3  O   UNL     1      -6.383  14.540  67.371  1.00  0.00    -0.322 OA 
HETATM    4  C   UNL     1      -7.379  16.507  68.401  1.00  0.00    -0.179 C  
ENDROOT
BRANCH   4   5
HETATM    5  C   UNL     1      -8.106  15.555  69.350  1.00  0.00    -0.241 C  
BRANCH   5   6
HETATM    6  C   UNL     1      -9.626  15.667  69.226  1.00  0.00    -0.268 C  
BRANCH   6   7
HETATM    7  C   UNL     1     -10.209  14.399  68.598  1.00  0.00    -0.245 C  
BRANCH   7   8
HETATM    8  C   UNL     1     -11.080  14.710  67.380  1.00  0.00    -0.331 C  
BRANCH   8   9
HETATM    9  C   UNL     1     -11.705  13.432  66.815  1.00  0.00    -0.429 C  
BRANCH   9  10
HETATM   10  C   UNL     1     -12.571  13.720  65.591  1.00  0.00    -0.551 C  
HETATM   11  C   UNL     1     -11.788  13.588  64.303  1.00  0.00    -0.428 C  
HETATM   12  O   UNL     1     -12.550  13.842  63.214  1.00  0.00    -0.824 OA 
HETATM   13  O   UNL     1     -10.609  13.290  64.219  1.00  0.00    -0.414 OA 
ENDBRANCH   9  10
ENDBRANCH   8   9
ENDBRANCH   7   8
ENDBRANCH   6   7
ENDBRANCH   5   6
ENDBRANCH   4   5
TORSDOF 6
ENDMDL
MODEL      118
REMARK 921   NORMALIZED FREE ENERGY PREDICTED BY IDOCK:   -3.44 KCAL/MOL
REMARK 922        TOTAL FREE ENERGY PREDICTED BY IDOCK:   -5.00 KCAL/MOL
REMARK 923 INTER-LIGAND FREE ENERGY PREDICTED BY IDOCK:   -4.70 KCAL/MOL
REMARK 924 INTRA-LIGAND FREE ENERGY PREDICTED BY IDOCK:   -0.31 KCAL/MOL
REMARK 927      BINDING AFFINITY PREDICTED BY RF-SCORE:    0.00 PKD
ROOT
HETATM    1  O   UNL     1     -10.059   4.291  66.457  1.00  0.00    -0.227 OA 
HETATM    2  C   UNL     1      -9.441   5.431  66.066  1.00  0.00    -0.146 C  
HETATM    3  O   UNL     1      -8.587   5.442  65.195  1.00  0.00    -0.147 OA 
HETATM    4  C   UNL     1      -9.937   6.641  66.827  1.00  0.00    -0.238 C  
ENDROOT
BRANCH   4   5
HETATM    5  C   UNL     1      -9.228   7.916  66.372  1.00  0.00    -0.241 C  
BRANCH   5   6
HETATM    6  C   UNL     1     -10.126   9.148  66.492  1.00  0.00    -0.357 C  
BRANCH   6   7
HETATM    7  C   UNL     1      -9.288  10.401  66.754  1.00  0.00    -0.181 C  
BRANCH   7   8
HETATM    8  C   UNL     1      -9.617  11.528  65.774  1.00  0.00    -0.259 C  
BRANCH   8   9
HETATM    9  C   UNL     1     -10.527  11.025  64.650  1.00  0.00    -0.398 C  
BRANCH   9  10
HETATM   10  C   UNL     1     -10.869  12.137  63.660  1.00  0.00    -0.523 C  
HETATM   11  C   UNL     1     -12.235  12.727  63.927  1.00  0.00    -0.463 C  
HETATM   12  O   UNL     1     -12.545  13.714  63.054  1.00  0.00    -0.729 OA 
HETATM   13  O   UNL     1     -12.996  12.380  64.815  1.00  0.00    -0.786 OA 
ENDBRANCH   9  10
ENDBRANCH   8   9
ENDBRANCH   7   8
ENDBRANCH   6   7
ENDBRANCH   5   6
ENDBRANCH   4   5
TORSDOF 6
ENDMDL
MODEL      119
REMARK 921   NORMALIZED FREE ENERGY PREDICTED BY IDOCK:   -3.42 KCAL/MOL
REMARK 922        TOTAL FREE ENERGY PREDICTED BY IDOCK:   -4.97 KCAL/MOL
REMARK 923 INTER-LIGAND FREE ENERGY PREDICTED BY IDOCK:   -4.35 KCAL/MOL
REMARK 924 INTRA-LIGAND FREE ENERGY PREDICTED BY IDOCK:   -0.62 KCAL/MOL
REMARK 927      BINDING AFFINITY PREDICTED BY RF-SCORE:    0.00 PKD
ROOT
HETATM    1  O   UNL     1      -8.465  16.173  67.714  1.00  0.00    -0.157 OA 
HETATM    2  C   UNL     1      -9.124  15.064  68.125  1.00  0.00    -0.178 C  
HETATM    3  O   UNL     1      -9.659  14.993  69.219  1.00  0.00    -0.215 OA 
HETATM    4  C   UNL     1      -9.108  13.968  67.081  1.00  0.00    -0.239 C  
ENDROOT
BRANCH   4   5
HETATM    5  C   UNL     1      -9.855  12.726  67.564  1.00  0.00    -0.211 C  
BRANCH   5   6
HETATM    6  C   UNL     1      -9.403  11.461  66.832  1.00  0.00    -0.191 C  
BRANCH   6   7
HETATM    7  C   UNL     1     -10.495  10.972  65.879  1.00  0.00    -0.300 C  
BRANCH   7   8
HETATM    8  C   UNL     1     -10.043  11.016  64.418  1.00  0.00    -0.393 C  
BRANCH   8   9
HETATM    9  C   UNL     1     -10.858  12.040  63.625  1.00  0.00    -0.510 C  
BRANCH   9  10
HETATM   10  C   UNL     1     -12.113  12.472  64.381  1.00  0.00    -0.500 C  
HETATM   11  C   UNL     1     -12.077  13.941  64.740  1.00  0.00    -0.419 C  
HETATM   12  O   UNL     1     -13.187  14.330  65.410  1.00  0.00    -0.688 OA 
HETATM   13  O   UNL     1     -11.172  14.713  64.473  1.00  0.00    -0.353 OA 
ENDBRANCH   9  10
ENDBRANCH   8   9
ENDBRANCH   7   8
ENDBRANCH   6   7
ENDBRANCH   5   6
ENDBRANCH   4   5
TORSDOF 6
ENDMDL
MODEL      120
REMARK 921   NORMALIZED FREE ENERGY PREDICTED BY IDOCK:   -3.42 KCAL/MOL
REMARK 922        TOTAL FREE ENERGY PREDICTED BY IDOCK:   -4.97 KCAL/MOL
REMARK 923 INTER-LIGAND FREE ENERGY PREDICTED BY IDOCK:   -4.39 KCAL/MOL
REMARK 924 INTRA-LIGAND FREE ENERGY PREDICTED BY IDOCK:   -0.57 KCAL/MOL
REMARK 927      BINDING AFFINITY PREDICTED BY RF-SCORE:    0.00 PKD
ROOT
HETATM    1  O   UNL     1     -11.403   5.902  71.779  1.00  0.00    -0.273 OA 
HETATM    2  C   UNL     1     -11.747   7.129  72.237  1.00  0.00    -0.258 C  
HETATM    3  O   UNL     1     -11.099   7.708  73.093  1.00  0.00    -0.404 OA 
HETATM    4  C   UNL     1     -12.995   7.663  71.567  1.00  0.00    -0.378 C  
ENDROOT
BRANCH   4   5
HETATM    5  C   UNL     1     -13.366   9.046  72.099  1.00  0.00    -0.510 C  
BRANCH   5   6
HETATM    6  C   UNL     1     -13.240  10.128  71.024  1.00  0.00    -0.412 C  
BRANCH   6   7
HETATM    7  C   UNL     1     -11.778  10.549  70.854  1.00  0.00    -0.431 C  
BRANCH   7   8
HETATM    8  C   UNL     1     -11.422  10.807  69.390  1.00  0.00    -0.366 C  
BRANCH   8   9
HETATM    9  C   UNL     1     -10.180  10.011  68.982  1.00  0.00    -0.216 C  
BRANCH   9  10
HETATM   10  C   UNL     1     -10.524   8.562  68.641  1.00  0.00    -0.200 C  
HETATM   11  C   UNL     1     -10.482   8.310  67.150  1.00  0.00    -0.316 C  
HETATM   12  O   UNL     1     -10.786   7.028  66.841  1.00  0.00    -0.354 OA 
HETATM   13  O   UNL     1     -10.211   9.139  66.299  1.00  0.00    -0.276 OA 
ENDBRANCH   9  10
ENDBRANCH   8   9
ENDBRANCH   7   8
ENDBRANCH   6   7
ENDBRANCH   5   6
ENDBRANCH   4   5
TORSDOF 6
ENDMDL
MODEL      121
REMARK 921   NORMALIZED FREE ENERGY PREDICTED BY IDOCK:   -3.41 KCAL/MOL
REMARK 922        TOTAL FREE ENERGY PREDICTED BY IDOCK:   -4.96 KCAL/MOL
REMARK 923 INTER-LIGAND FREE ENERGY PREDICTED BY IDOCK:   -4.59 KCAL/MOL
REMARK 924 INTRA-LIGAND FREE ENERGY PREDICTED BY IDOCK:   -0.38 KCAL/MOL
REMARK 927      BINDING AFFINITY PREDICTED BY RF-SCORE:    0.00 PKD
ROOT
HETATM    1  O   UNL     1     -10.362   9.917  68.311  1.00  0.00    -0.181 OA 
HETATM    2  C   UNL     1     -11.122  10.830  67.663  1.00  0.00    -0.319 C  
HETATM    3  O   UNL     1     -12.167  11.253  68.126  1.00  0.00    -0.622 OA 
HETATM    4  C   UNL     1     -10.518  11.240  66.337  1.00  0.00    -0.306 C  
ENDROOT
BRANCH   4   5
HETATM    5  C   UNL     1     -11.391  12.270  65.621  1.00  0.00    -0.394 C  
BRANCH   5   6
HETATM    6  C   UNL     1     -10.614  13.036  64.548  1.00  0.00    -0.413 C  
BRANCH   6   7
HETATM    7  C   UNL     1     -10.499  14.516  64.922  1.00  0.00    -0.435 C  
BRANCH   7   8
HETATM    8  C   UNL     1     -11.326  14.861  66.160  1.00  0.00    -0.307 C  
BRANCH   8   9
HETATM    9  C   UNL     1     -10.521  15.729  67.130  1.00  0.00    -0.309 C  
BRANCH   9  10
HETATM   10  C   UNL     1     -11.359  16.160  68.332  1.00  0.00    -0.345 C  
HETATM   11  C   UNL     1     -10.599  16.012  69.631  1.00  0.00    -0.311 C  
HETATM   12  O   UNL     1     -11.337  16.393  70.700  1.00  0.00    -0.368 OA 
HETATM   13  O   UNL     1      -9.457  15.601  69.740  1.00  0.00    -0.277 OA 
ENDBRANCH   9  10
ENDBRANCH   8   9
ENDBRANCH   7   8
ENDBRANCH   6   7
ENDBRANCH   5   6
ENDBRANCH   4   5
TORSDOF 6
ENDMDL
MODEL      122
REMARK 921   NORMALIZED FREE ENERGY PREDICTED BY IDOCK:   -3.39 KCAL/MOL
REMARK 922        TOTAL FREE ENERGY PREDICTED BY IDOCK:   -4.93 KCAL/MOL
REMARK 923 INTER-LIGAND FREE ENERGY PREDICTED BY IDOCK:   -4.51 KCAL/MOL
REMARK 924 INTRA-LIGAND FREE ENERGY PREDICTED BY IDOCK:   -0.42 KCAL/MOL
REMARK 927      BINDING AFFINITY PREDICTED BY RF-SCORE:    0.00 PKD
ROOT
HETATM    1  O   UNL     1      -9.929  20.018  65.539  1.00  0.00    -0.321 OA 
HETATM    2  C   UNL     1     -10.394  18.791  65.873  1.00  0.00    -0.342 C  
HETATM    3  O   UNL     1     -10.825  18.011  65.041  1.00  0.00    -0.738 OA 
HETATM    4  C   UNL     1     -10.310  18.531  67.362  1.00  0.00    -0.432 C  
ENDROOT
BRANCH   4   5
HETATM    5  C   UNL     1     -10.840  17.143  67.717  1.00  0.00    -0.270 C  
BRANCH   5   6
HETATM    6  C   UNL     1      -9.732  16.213  68.212  1.00  0.00    -0.220 C  
BRANCH   6   7
HETATM    7  C   UNL     1     -10.329  14.944  68.825  1.00  0.00    -0.245 C  
BRANCH   7   8
HETATM    8  C   UNL     1     -11.653  14.556  68.165  1.00  0.00    -0.359 C  
BRANCH   8   9
HETATM    9  C   UNL     1     -11.437  13.479  67.099  1.00  0.00    -0.368 C  
BRANCH   9  10
HETATM   10  C   UNL     1     -10.455  12.408  67.568  1.00  0.00    -0.229 C  
HETATM   11  C   UNL     1     -11.164  11.235  68.207  1.00  0.00    -0.267 C  
HETATM   12  O   UNL     1     -10.300  10.281  68.626  1.00  0.00    -0.167 OA 
HETATM   13  O   UNL     1     -12.371  11.127  68.345  1.00  0.00    -0.556 OA 
ENDBRANCH   9  10
ENDBRANCH   8   9
ENDBRANCH   7   8
ENDBRANCH   6   7
ENDBRANCH   5   6
ENDBRANCH   4   5
TORSDOF 6
ENDMDL
MODEL      123
REMARK 921   NORMALIZED FREE ENERGY PREDICTED BY IDOCK:   -3.38 KCAL/MOL
REMARK 922        TOTAL FREE ENERGY PREDICTED BY IDOCK:   -4.92 KCAL/MOL
REMARK 923 INTER-LIGAND FREE ENERGY PREDICTED BY IDOCK:   -4.70 KCAL/MOL
REMARK 924 INTRA-LIGAND FREE ENERGY PREDICTED BY IDOCK:   -0.21 KCAL/MOL
REMARK 927      BINDING AFFINITY PREDICTED BY RF-SCORE:    0.00 PKD
ROOT
HETATM    1  O   UNL     1     -13.826  13.955  72.888  1.00  0.00    -0.662 OA 
HETATM    2  C   UNL     1     -13.131  14.094  71.735  1.00  0.00    -0.357 C  
HETATM    3  O   UNL     1     -12.766  13.134  71.077  1.00  0.00    -0.337 OA 
HETATM    4  C   UNL     1     -12.881  15.545  71.387  1.00  0.00    -0.531 C  
ENDROOT
BRANCH   4   5
HETATM    5  C   UNL     1     -12.095  15.679  70.083  1.00  0.00    -0.400 C  
BRANCH   5   6
HETATM    6  C   UNL     1     -10.588  15.543  70.303  1.00  0.00    -0.324 C  
BRANCH   6   7
HETATM    7  C   UNL     1      -9.867  15.327  68.971  1.00  0.00    -0.230 C  
BRANCH   7   8
HETATM    8  C   UNL     1      -8.782  16.376  68.728  1.00  0.00    -0.246 C  
BRANCH   8   9
HETATM    9  C   UNL     1      -9.390  17.682  68.212  1.00  0.00    -0.290 C  
BRANCH   9  10
HETATM   10  C   UNL     1      -8.314  18.664  67.755  1.00  0.00    -0.285 C  
HETATM   11  C   UNL     1      -8.847  20.076  67.654  1.00  0.00    -0.328 C  
HETATM   12  O   UNL     1      -7.898  20.953  67.248  1.00  0.00    -0.324 OA 
HETATM   13  O   UNL     1      -9.990  20.421  67.900  1.00  0.00    -0.389 OA 
ENDBRANCH   9  10
ENDBRANCH   8   9
ENDBRANCH   7   8
ENDBRANCH   6   7
ENDBRANCH   5   6
ENDBRANCH   4   5
TORSDOF 6
ENDMDL
MODEL      124
REMARK 921   NORMALIZED FREE ENERGY PREDICTED BY IDOCK:   -3.38 KCAL/MOL
REMARK 922        TOTAL FREE ENERGY PREDICTED BY IDOCK:   -4.92 KCAL/MOL
REMARK 923 INTER-LIGAND FREE ENERGY PREDICTED BY IDOCK:   -4.72 KCAL/MOL
REMARK 924 INTRA-LIGAND FREE ENERGY PREDICTED BY IDOCK:   -0.19 KCAL/MOL
REMARK 927      BINDING AFFINITY PREDICTED BY RF-SCORE:    0.00 PKD
ROOT
HETATM    1  O   UNL     1      -8.127   7.855  64.649  1.00  0.00    -0.139 OA 
HETATM    2  C   UNL     1      -8.628   8.551  65.696  1.00  0.00    -0.177 C  
HETATM    3  O   UNL     1      -8.370   8.260  66.853  1.00  0.00    -0.112 OA 
HETATM    4  C   UNL     1      -9.516   9.693  65.254  1.00  0.00    -0.342 C  
ENDROOT
BRANCH   4   5
HETATM    5  C   UNL     1     -10.072  10.465  66.450  1.00  0.00    -0.287 C  
BRANCH   5   6
HETATM    6  C   UNL     1     -10.024  11.978  66.230  1.00  0.00    -0.249 C  
BRANCH   6   7
HETATM    7  C   UNL     1     -10.396  12.719  67.516  1.00  0.00    -0.219 C  
BRANCH   7   8
HETATM    8  C   UNL     1     -11.838  13.227  67.491  1.00  0.00    -0.403 C  
BRANCH   8   9
HETATM    9  C   UNL     1     -12.206  13.755  66.102  1.00  0.00    -0.499 C  
BRANCH   9  10
HETATM   10  C   UNL     1     -11.468  15.052  65.777  1.00  0.00    -0.236 C  
HETATM   11  C   UNL     1     -11.904  15.630  64.449  1.00  0.00    -0.182 C  
HETATM   12  O   UNL     1     -11.254  16.780  64.154  1.00  0.00    -1.155 OA 
HETATM   13  O   UNL     1     -12.739  15.144  63.705  1.00  0.00    -0.722 OA 
ENDBRANCH   9  10
ENDBRANCH   8   9
ENDBRANCH   7   8
ENDBRANCH   6   7
ENDBRANCH   5   6
ENDBRANCH   4   5
TORSDOF 6
ENDMDL
MODEL      125
REMARK 921   NORMALIZED FREE ENERGY PREDICTED BY IDOCK:   -3.37 KCAL/MOL
REMARK 922        TOTAL FREE ENERGY PREDICTED BY IDOCK:   -4.91 KCAL/MOL
REMARK 923 INTER-LIGAND FREE ENERGY PREDICTED BY IDOCK:   -4.55 KCAL/MOL
REMARK 924 INTRA-LIGAND FREE ENERGY PREDICTED BY IDOCK:   -0.36 KCAL/MOL
REMARK 927      BINDING AFFINITY PREDICTED BY RF-SCORE:    0.00 PKD
ROOT
HETATM    1  O   UNL     1      -7.716   7.252  65.970  1.00  0.00    -0.089 OA 
HETATM    2  C   UNL     1      -8.702   7.500  66.865  1.00  0.00    -0.129 C  
HETATM    3  O   UNL     1      -8.879   6.801  67.848  1.00  0.00    -0.120 OA 
HETATM    4  C   UNL     1      -9.519   8.718  66.493  1.00  0.00    -0.281 C  
ENDROOT
BRANCH   4   5
HETATM    5  C   UNL     1     -10.625   8.982  67.514  1.00  0.00    -0.306 C  
BRANCH   5   6
HETATM    6  C   UNL     1     -10.399  10.283  68.285  1.00  0.00    -0.209 C  
BRANCH   6   7
HETATM    7  C   UNL     1     -11.639  11.176  68.208  1.00  0.00    -0.359 C  
BRANCH   7   8
HETATM    8  C   UNL     1     -11.290  12.658  68.351  1.00  0.00    -0.329 C  
BRANCH   8   9
HETATM    9  C   UNL     1     -11.089  13.306  66.979  1.00  0.00    -0.304 C  
BRANCH   9  10
HETATM   10  C   UNL     1     -11.563  12.395  65.849  1.00  0.00    -0.449 C  
HETATM   11  C   UNL     1     -12.642  13.049  65.014  1.00  0.00    -0.454 C  
HETATM   12  O   UNL     1     -13.068  12.246  64.010  1.00  0.00    -0.764 OA 
HETATM   13  O   UNL     1     -13.099  14.164  65.196  1.00  0.00    -0.757 OA 
ENDBRANCH   9  10
ENDBRANCH   8   9
ENDBRANCH   7   8
ENDBRANCH   6   7
ENDBRANCH   5   6
ENDBRANCH   4   5
TORSDOF 6
ENDMDL
MODEL      126
REMARK 921   NORMALIZED FREE ENERGY PREDICTED BY IDOCK:   -3.37 KCAL/MOL
REMARK 922        TOTAL FREE ENERGY PREDICTED BY IDOCK:   -4.91 KCAL/MOL
REMARK 923 INTER-LIGAND FREE ENERGY PREDICTED BY IDOCK:   -4.37 KCAL/MOL
REMARK 924 INTRA-LIGAND FREE ENERGY PREDICTED BY IDOCK:   -0.54 KCAL/MOL
REMARK 927      BINDING AFFINITY PREDICTED BY RF-SCORE:    0.00 PKD
ROOT
HETATM    1  O   UNL     1      -5.198  18.691  71.657  1.00  0.00    -0.473 OA 
HETATM    2  C   UNL     1      -5.668  19.611  70.781  1.00  0.00    -0.243 C  
HETATM    3  O   UNL     1      -5.624  20.808  71.010  1.00  0.00    -0.527 OA 
HETATM    4  C   UNL     1      -6.233  18.975  69.530  1.00  0.00    -0.293 C  
ENDROOT
BRANCH   4   5
HETATM    5  C   UNL     1      -6.759  20.029  68.556  1.00  0.00    -0.342 C  
BRANCH   5   6
HETATM    6  C   UNL     1      -7.501  19.402  67.375  1.00  0.00    -0.259 C  
BRANCH   6   7
HETATM    7  C   UNL     1      -8.962  19.856  67.357  1.00  0.00    -0.422 C  
BRANCH   7   8
HETATM    8  C   UNL     1      -9.931  18.673  67.385  1.00  0.00    -0.364 C  
BRANCH   8   9
HETATM    9  C   UNL     1     -10.132  18.166  68.815  1.00  0.00    -0.392 C  
BRANCH   9  10
HETATM   10  C   UNL     1      -9.541  16.771  69.008  1.00  0.00    -0.230 C  
HETATM   11  C   UNL     1     -10.607  15.698  68.972  1.00  0.00    -0.234 C  
HETATM   12  O   UNL     1     -10.090  14.459  69.143  1.00  0.00    -0.197 OA 
HETATM   13  O   UNL     1     -11.800  15.890  68.811  1.00  0.00    -0.393 OA 
ENDBRANCH   9  10
ENDBRANCH   8   9
ENDBRANCH   7   8
ENDBRANCH   6   7
ENDBRANCH   5   6
ENDBRANCH   4   5
TORSDOF 6
ENDMDL
MODEL      127
REMARK 921   NORMALIZED FREE ENERGY PREDICTED BY IDOCK:   -3.36 KCAL/MOL
REMARK 922        TOTAL FREE ENERGY PREDICTED BY IDOCK:   -4.89 KCAL/MOL
REMARK 923 INTER-LIGAND FREE ENERGY PREDICTED BY IDOCK:   -4.67 KCAL/MOL
REMARK 924 INTRA-LIGAND FREE ENERGY PREDICTED BY IDOCK:   -0.22 KCAL/MOL
REMARK 927      BINDING AFFINITY PREDICTED BY RF-SCORE:    0.00 PKD
ROOT
HETATM    1  O   UNL     1     -13.529   9.897  72.274  1.00  0.00    -0.430 OA 
HETATM    2  C   UNL     1     -12.968  10.845  71.488  1.00  0.00    -0.451 C  
HETATM    3  O   UNL     1     -12.371  10.569  70.461  1.00  0.00    -0.300 OA 
HETATM    4  C   UNL     1     -13.177  12.241  72.036  1.00  0.00    -0.508 C  
ENDROOT
BRANCH   4   5
HETATM    5  C   UNL     1     -12.536  13.296  71.135  1.00  0.00    -0.412 C  
BRANCH   5   6
HETATM    6  C   UNL     1     -12.454  14.662  71.818  1.00  0.00    -0.412 C  
BRANCH   6   7
HETATM    7  C   UNL     1     -11.944  15.722  70.840  1.00  0.00    -0.453 C  
BRANCH   7   8
HETATM    8  C   UNL     1     -12.024  15.250  69.388  1.00  0.00    -0.342 C  
BRANCH   8   9
HETATM    9  C   UNL     1     -11.103  16.080  68.491  1.00  0.00    -0.347 C  
BRANCH   9  10
HETATM   10  C   UNL     1     -11.114  15.577  67.050  1.00  0.00    -0.238 C  
HETATM   11  C   UNL     1     -10.244  14.352  66.874  1.00  0.00    -0.265 C  
HETATM   12  O   UNL     1     -10.249  13.900  65.598  1.00  0.00    -0.306 OA 
HETATM   13  O   UNL     1      -9.600  13.809  67.755  1.00  0.00    -0.207 OA 
ENDBRANCH   9  10
ENDBRANCH   8   9
ENDBRANCH   7   8
ENDBRANCH   6   7
ENDBRANCH   5   6
ENDBRANCH   4   5
TORSDOF 6
ENDMDL
MODEL      128
REMARK 921   NORMALIZED FREE ENERGY PREDICTED BY IDOCK:   -3.36 KCAL/MOL
REMARK 922        TOTAL FREE ENERGY PREDICTED BY IDOCK:   -4.89 KCAL/MOL
REMARK 923 INTER-LIGAND FREE ENERGY PREDICTED BY IDOCK:   -4.42 KCAL/MOL
REMARK 924 INTRA-LIGAND FREE ENERGY PREDICTED BY IDOCK:   -0.47 KCAL/MOL
REMARK 927      BINDING AFFINITY PREDICTED BY RF-SCORE:    0.00 PKD
ROOT
HETATM    1  O   UNL     1     -10.553   9.627  68.388  1.00  0.00    -0.214 OA 
HETATM    2  C   UNL     1     -11.218  10.616  67.744  1.00  0.00    -0.313 C  
HETATM    3  O   UNL     1     -12.157  11.206  68.253  1.00  0.00    -0.620 OA 
HETATM    4  C   UNL     1     -10.659  10.879  66.363  1.00  0.00    -0.289 C  
ENDROOT
BRANCH   4   5
HETATM    5  C   UNL     1     -11.423  11.996  65.654  1.00  0.00    -0.372 C  
BRANCH   5   6
HETATM    6  C   UNL     1     -10.610  12.618  64.517  1.00  0.00    -0.369 C  
BRANCH   6   7
HETATM    7  C   UNL     1     -10.241  14.065  64.849  1.00  0.00    -0.377 C  
BRANCH   7   8
HETATM    8  C   UNL     1     -11.310  14.750  65.701  1.00  0.00    -0.343 C  
BRANCH   8   9
HETATM    9  C   UNL     1     -10.670  15.631  66.776  1.00  0.00    -0.300 C  
BRANCH   9  10
HETATM   10  C   UNL     1      -9.160  15.418  66.856  1.00  0.00    -0.265 C  
HETATM   11  C   UNL     1      -8.395  16.674  66.502  1.00  0.00    -0.287 C  
HETATM   12  O   UNL     1      -7.055  16.493  66.571  1.00  0.00    -0.218 OA 
HETATM   13  O   UNL     1      -8.893  17.742  66.188  1.00  0.00    -0.451 OA 
ENDBRANCH   9  10
ENDBRANCH   8   9
ENDBRANCH   7   8
ENDBRANCH   6   7
ENDBRANCH   5   6
ENDBRANCH   4   5
TORSDOF 6
ENDMDL
MODEL      129
REMARK 921   NORMALIZED FREE ENERGY PREDICTED BY IDOCK:   -3.36 KCAL/MOL
REMARK 922        TOTAL FREE ENERGY PREDICTED BY IDOCK:   -4.89 KCAL/MOL
REMARK 923 INTER-LIGAND FREE ENERGY PREDICTED BY IDOCK:   -4.23 KCAL/MOL
REMARK 924 INTRA-LIGAND FREE ENERGY PREDICTED BY IDOCK:   -0.66 KCAL/MOL
REMARK 927      BINDING AFFINITY PREDICTED BY RF-SCORE:    0.00 PKD
ROOT
HETATM    1  O   UNL     1     -10.364  12.160  68.022  1.00  0.00    -0.193 OA 
HETATM    2  C   UNL     1     -11.330  11.325  68.472  1.00  0.00    -0.276 C  
HETATM    3  O   UNL     1     -11.880  10.514  67.745  1.00  0.00    -0.361 OA 
HETATM    4  C   UNL     1     -11.622  11.526  69.944  1.00  0.00    -0.387 C  
ENDROOT
BRANCH   4   5
HETATM    5  C   UNL     1     -12.714  10.575  70.432  1.00  0.00    -0.325 C  
BRANCH   5   6
HETATM    6  C   UNL     1     -12.289   9.804  71.682  1.00  0.00    -0.495 C  
BRANCH   6   7
HETATM    7  C   UNL     1     -13.408   8.868  72.144  1.00  0.00    -0.489 C  
BRANCH   7   8
HETATM    8  C   UNL     1     -13.177   7.427  71.687  1.00  0.00    -0.416 C  
BRANCH   8   9
HETATM    9  C   UNL     1     -11.714   7.207  71.294  1.00  0.00    -0.342 C  
BRANCH   9  10
HETATM   10  C   UNL     1     -11.589   6.628  69.887  1.00  0.00    -0.393 C  
HETATM   11  C   UNL     1     -10.545   7.357  69.069  1.00  0.00    -0.192 C  
HETATM   12  O   UNL     1     -10.429   6.849  67.820  1.00  0.00    -0.184 OA 
HETATM   13  O   UNL     1      -9.871   8.295  69.456  1.00  0.00    -0.176 OA 
ENDBRANCH   9  10
ENDBRANCH   8   9
ENDBRANCH   7   8
ENDBRANCH   6   7
ENDBRANCH   5   6
ENDBRANCH   4   5
TORSDOF 6
ENDMDL
MODEL      130
REMARK 921   NORMALIZED FREE ENERGY PREDICTED BY IDOCK:   -3.35 KCAL/MOL
REMARK 922        TOTAL FREE ENERGY PREDICTED BY IDOCK:   -4.88 KCAL/MOL
REMARK 923 INTER-LIGAND FREE ENERGY PREDICTED BY IDOCK:   -4.18 KCAL/MOL
REMARK 924 INTRA-LIGAND FREE ENERGY PREDICTED BY IDOCK:   -0.70 KCAL/MOL
REMARK 927      BINDING AFFINITY PREDICTED BY RF-SCORE:    0.00 PKD
ROOT
HETATM    1  O   UNL     1      -6.103  16.613  67.317  1.00  0.00    -0.133 OA 
HETATM    2  C   UNL     1      -7.152  16.846  66.493  1.00  0.00    -0.246 C  
HETATM    3  O   UNL     1      -7.110  17.684  65.608  1.00  0.00    -0.424 OA 
HETATM    4  C   UNL     1      -8.336  15.957  66.806  1.00  0.00    -0.306 C  
ENDROOT
BRANCH   4   5
HETATM    5  C   UNL     1      -9.508  16.235  65.867  1.00  0.00    -0.318 C  
BRANCH   5   6
HETATM    6  C   UNL     1     -10.767  16.655  66.626  1.00  0.00    -0.124 C  
BRANCH   6   7
HETATM    7  C   UNL     1     -10.413  17.605  67.772  1.00  0.00    -0.379 C  
BRANCH   7   8
HETATM    8  C   UNL     1     -10.661  19.068  67.402  1.00  0.00    -0.559 C  
BRANCH   8   9
HETATM    9  C   UNL     1      -9.347  19.777  67.067  1.00  0.00    -0.460 C  
BRANCH   9  10
HETATM   10  C   UNL     1      -8.365  19.729  68.235  1.00  0.00    -0.312 C  
HETATM   11  C   UNL     1      -7.097  20.498  67.937  1.00  0.00    -0.275 C  
HETATM   12  O   UNL     1      -6.222  20.459  68.969  1.00  0.00    -0.319 OA 
HETATM   13  O   UNL     1      -6.857  21.093  66.901  1.00  0.00    -0.327 OA 
ENDBRANCH   9  10
ENDBRANCH   8   9
ENDBRANCH   7   8
ENDBRANCH   6   7
ENDBRANCH   5   6
ENDBRANCH   4   5
TORSDOF 6
ENDMDL
MODEL      131
REMARK 921   NORMALIZED FREE ENERGY PREDICTED BY IDOCK:   -3.35 KCAL/MOL
REMARK 922        TOTAL FREE ENERGY PREDICTED BY IDOCK:   -4.88 KCAL/MOL
REMARK 923 INTER-LIGAND FREE ENERGY PREDICTED BY IDOCK:   -4.35 KCAL/MOL
REMARK 924 INTRA-LIGAND FREE ENERGY PREDICTED BY IDOCK:   -0.53 KCAL/MOL
REMARK 927      BINDING AFFINITY PREDICTED BY RF-SCORE:    0.00 PKD
ROOT
HETATM    1  O   UNL     1      -6.972  17.317  65.997  1.00  0.00    -0.242 OA 
HETATM    2  C   UNL     1      -8.202  16.833  66.293  1.00  0.00    -0.324 C  
HETATM    3  O   UNL     1      -8.479  15.650  66.180  1.00  0.00    -0.256 OA 
HETATM    4  C   UNL     1      -9.146  17.916  66.766  1.00  0.00    -0.276 C  
ENDROOT
BRANCH   4   5
HETATM    5  C   UNL     1     -10.527  17.349  67.094  1.00  0.00    -0.305 C  
BRANCH   5   6
HETATM    6  C   UNL     1     -10.679  17.030  68.582  1.00  0.00    -0.333 C  
BRANCH   6   7
HETATM    7  C   UNL     1     -11.612  15.834  68.782  1.00  0.00    -0.401 C  
BRANCH   7   8
HETATM    8  C   UNL     1     -11.705  14.962  67.529  1.00  0.00    -0.328 C  
BRANCH   8   9
HETATM    9  C   UNL     1     -10.990  13.626  67.740  1.00  0.00    -0.276 C  
BRANCH   9  10
HETATM   10  C   UNL     1     -11.385  12.975  69.064  1.00  0.00    -0.340 C  
HETATM   11  C   UNL     1     -11.878  11.559  68.870  1.00  0.00    -0.341 C  
HETATM   12  O   UNL     1     -12.231  10.976  70.040  1.00  0.00    -0.317 OA 
HETATM   13  O   UNL     1     -11.962  10.978  67.802  1.00  0.00    -0.609 OA 
ENDBRANCH   9  10
ENDBRANCH   8   9
ENDBRANCH   7   8
ENDBRANCH   6   7
ENDBRANCH   5   6
ENDBRANCH   4   5
TORSDOF 6
ENDMDL
MODEL      132
REMARK 921   NORMALIZED FREE ENERGY PREDICTED BY IDOCK:   -3.35 KCAL/MOL
REMARK 922        TOTAL FREE ENERGY PREDICTED BY IDOCK:   -4.88 KCAL/MOL
REMARK 923 INTER-LIGAND FREE ENERGY PREDICTED BY IDOCK:   -4.69 KCAL/MOL
REMARK 924 INTRA-LIGAND FREE ENERGY PREDICTED BY IDOCK:   -0.19 KCAL/MOL
REMARK 927      BINDING AFFINITY PREDICTED BY RF-SCORE:    0.00 PKD
ROOT
HETATM    1  O   UNL     1      -8.509   8.339  70.243  1.00  0.00    -0.120 OA 
HETATM    2  C   UNL     1      -9.568   9.050  70.698  1.00  0.00    -0.237 C  
HETATM    3  O   UNL     1      -9.982   8.940  71.840  1.00  0.00    -0.322 OA 
HETATM    4  C   UNL     1     -10.143   9.963  69.638  1.00  0.00    -0.254 C  
ENDROOT
BRANCH   4   5
HETATM    5  C   UNL     1     -11.337  10.755  70.170  1.00  0.00    -0.390 C  
BRANCH   5   6
HETATM    6  C   UNL     1     -12.115  11.447  69.050  1.00  0.00    -0.316 C  
BRANCH   6   7
HETATM    7  C   UNL     1     -11.315  12.624  68.488  1.00  0.00    -0.333 C  
BRANCH   7   8
HETATM    8  C   UNL     1     -10.487  12.225  67.266  1.00  0.00    -0.236 C  
BRANCH   8   9
HETATM    9  C   UNL     1     -11.382  11.660  66.161  1.00  0.00    -0.275 C  
BRANCH   9  10
HETATM   10  C   UNL     1     -12.272  12.739  65.548  1.00  0.00    -0.519 C  
HETATM   11  C   UNL     1     -11.794  13.148  64.172  1.00  0.00    -0.429 C  
HETATM   12  O   UNL     1     -12.579  14.105  63.623  1.00  0.00    -0.831 OA 
HETATM   13  O   UNL     1     -10.822  12.693  63.596  1.00  0.00    -0.426 OA 
ENDBRANCH   9  10
ENDBRANCH   8   9
ENDBRANCH   7   8
ENDBRANCH   6   7
ENDBRANCH   5   6
ENDBRANCH   4   5
TORSDOF 6
ENDMDL
MODEL      133
REMARK 921   NORMALIZED FREE ENERGY PREDICTED BY IDOCK:   -3.34 KCAL/MOL
REMARK 922        TOTAL FREE ENERGY PREDICTED BY IDOCK:   -4.87 KCAL/MOL
REMARK 923 INTER-LIGAND FREE ENERGY PREDICTED BY IDOCK:   -4.49 KCAL/MOL
REMARK 924 INTRA-LIGAND FREE ENERGY PREDICTED BY IDOCK:   -0.37 KCAL/MOL
REMARK 927      BINDING AFFINITY PREDICTED BY RF-SCORE:    0.00 PKD
ROOT
HETATM    1  O   UNL     1      -9.077  11.765  66.027  1.00  0.00    -0.212 OA 
HETATM    2  C   UNL     1     -10.253  11.702  66.696  1.00  0.00    -0.216 C  
HETATM    3  O   UNL     1     -10.898  10.670  66.781  1.00  0.00    -0.238 OA 
HETATM    4  C   UNL     1     -10.639  13.033  67.303  1.00  0.00    -0.247 C  
ENDROOT
BRANCH   4   5
HETATM    5  C   UNL     1     -11.968  12.941  68.053  1.00  0.00    -0.323 C  
BRANCH   5   6
HETATM    6  C   UNL     1     -11.775  12.968  69.569  1.00  0.00    -0.381 C  
BRANCH   6   7
HETATM    7  C   UNL     1     -12.068  11.592  70.173  1.00  0.00    -0.414 C  
BRANCH   7   8
HETATM    8  C   UNL     1     -12.800  11.697  71.511  1.00  0.00    -0.469 C  
BRANCH   8   9
HETATM    9  C   UNL     1     -13.186  10.310  72.032  1.00  0.00    -0.516 C  
BRANCH   9  10
HETATM   10  C   UNL     1     -12.184   9.244  71.596  1.00  0.00    -0.445 C  
HETATM   11  C   UNL     1     -12.852   7.909  71.352  1.00  0.00    -0.280 C  
HETATM   12  O   UNL     1     -11.968   6.959  70.965  1.00  0.00    -0.339 OA 
HETATM   13  O   UNL     1     -14.042   7.679  71.479  1.00  0.00    -0.414 OA 
ENDBRANCH   9  10
ENDBRANCH   8   9
ENDBRANCH   7   8
ENDBRANCH   6   7
ENDBRANCH   5   6
ENDBRANCH   4   5
TORSDOF 6
ENDMDL
MODEL      134
REMARK 921   NORMALIZED FREE ENERGY PREDICTED BY IDOCK:   -3.34 KCAL/MOL
REMARK 922        TOTAL FREE ENERGY PREDICTED BY IDOCK:   -4.86 KCAL/MOL
REMARK 923 INTER-LIGAND FREE ENERGY PREDICTED BY IDOCK:   -4.37 KCAL/MOL
REMARK 924 INTRA-LIGAND FREE ENERGY PREDICTED BY IDOCK:   -0.49 KCAL/MOL
REMARK 927      BINDING AFFINITY PREDICTED BY RF-SCORE:    0.00 PKD
ROOT
HETATM    1  O   UNL     1      -9.320   9.848  62.742  1.00  0.00    -0.285 OA 
HETATM    2  C   UNL     1      -9.854  10.510  63.796  1.00  0.00    -0.300 C  
HETATM    3  O   UNL     1      -9.694  10.137  64.946  1.00  0.00    -0.287 OA 
HETATM    4  C   UNL     1     -10.644  11.727  63.367  1.00  0.00    -0.479 C  
ENDROOT
BRANCH   4   5
HETATM    5  C   UNL     1     -11.239  12.459  64.570  1.00  0.00    -0.371 C  
BRANCH   5   6
HETATM    6  C   UNL     1     -12.019  13.708  64.155  1.00  0.00    -0.488 C  
BRANCH   6   7
HETATM    7  C   UNL     1     -12.763  14.299  65.355  1.00  0.00    -0.385 C  
BRANCH   7   8
HETATM    8  C   UNL     1     -12.234  13.757  66.683  1.00  0.00    -0.454 C  
BRANCH   8   9
HETATM    9  C   UNL     1     -11.318  14.778  67.363  1.00  0.00    -0.361 C  
BRANCH   9  10
HETATM   10  C   UNL     1      -9.958  14.174  67.709  1.00  0.00    -0.235 C  
HETATM   11  C   UNL     1      -8.846  14.787  66.888  1.00  0.00    -0.248 C  
HETATM   12  O   UNL     1      -7.637  14.257  67.188  1.00  0.00    -0.145 OA 
HETATM   13  O   UNL     1      -8.984  15.657  66.045  1.00  0.00    -0.334 OA 
ENDBRANCH   9  10
ENDBRANCH   8   9
ENDBRANCH   7   8
ENDBRANCH   6   7
ENDBRANCH   5   6
ENDBRANCH   4   5
TORSDOF 6
ENDMDL
MODEL      135
REMARK 921   NORMALIZED FREE ENERGY PREDICTED BY IDOCK:   -3.34 KCAL/MOL
REMARK 922        TOTAL FREE ENERGY PREDICTED BY IDOCK:   -4.86 KCAL/MOL
REMARK 923 INTER-LIGAND FREE ENERGY PREDICTED BY IDOCK:   -4.40 KCAL/MOL
REMARK 924 INTRA-LIGAND FREE ENERGY PREDICTED BY IDOCK:   -0.46 KCAL/MOL
REMARK 927      BINDING AFFINITY PREDICTED BY RF-SCORE:    0.00 PKD
ROOT
HETATM    1  O   UNL     1     -11.951  13.950  69.150  1.00  0.00    -0.329 OA 
HETATM    2  C   UNL     1     -11.107  14.209  68.124  1.00  0.00    -0.257 C  
HETATM    3  O   UNL     1     -10.147  13.498  67.876  1.00  0.00    -0.235 OA 
HETATM    4  C   UNL     1     -11.501  15.452  67.357  1.00  0.00    -0.197 C  
ENDROOT
BRANCH   4   5
HETATM    5  C   UNL     1     -10.536  15.728  66.204  1.00  0.00    -0.318 C  
BRANCH   5   6
HETATM    6  C   UNL     1      -9.876  17.102  66.323  1.00  0.00    -0.306 C  
BRANCH   6   7
HETATM    7  C   UNL     1     -10.292  17.788  67.626  1.00  0.00    -0.375 C  
BRANCH   7   8
HETATM    8  C   UNL     1     -10.570  19.278  67.427  1.00  0.00    -0.594 C  
BRANCH   8   9
HETATM    9  C   UNL     1      -9.661  19.863  66.343  1.00  0.00    -0.558 C  
BRANCH   9  10
HETATM   10  C   UNL     1      -8.354  20.394  66.927  1.00  0.00    -0.313 C  
HETATM   11  C   UNL     1      -7.147  19.745  66.289  1.00  0.00    -0.252 C  
HETATM   12  O   UNL     1      -5.984  20.211  66.803  1.00  0.00    -0.173 OA 
HETATM   13  O   UNL     1      -7.179  18.897  65.414  1.00  0.00    -0.494 OA 
ENDBRANCH   9  10
ENDBRANCH   8   9
ENDBRANCH   7   8
ENDBRANCH   6   7
ENDBRANCH   5   6
ENDBRANCH   4   5
TORSDOF 6
ENDMDL
MODEL      136
REMARK 921   NORMALIZED FREE ENERGY PREDICTED BY IDOCK:   -3.33 KCAL/MOL
REMARK 922        TOTAL FREE ENERGY PREDICTED BY IDOCK:   -4.85 KCAL/MOL
REMARK 923 INTER-LIGAND FREE ENERGY PREDICTED BY IDOCK:   -4.82 KCAL/MOL
REMARK 924 INTRA-LIGAND FREE ENERGY PREDICTED BY IDOCK:   -0.02 KCAL/MOL
REMARK 927      BINDING AFFINITY PREDICTED BY RF-SCORE:    0.00 PKD
ROOT
HETATM    1  O   UNL     1     -12.914  16.130  74.285  1.00  0.00    -0.646 OA 
HETATM    2  C   UNL     1     -13.257  15.865  73.002  1.00  0.00    -0.552 C  
HETATM    3  O   UNL     1     -14.410  15.646  72.669  1.00  0.00    -0.487 OA 
HETATM    4  C   UNL     1     -12.062  15.878  72.074  1.00  0.00    -0.591 C  
ENDROOT
BRANCH   4   5
HETATM    5  C   UNL     1     -12.470  15.577  70.633  1.00  0.00    -0.483 C  
BRANCH   5   6
HETATM    6  C   UNL     1     -11.492  14.623  69.945  1.00  0.00    -0.320 C  
BRANCH   6   7
HETATM    7  C   UNL     1     -10.330  15.400  69.324  1.00  0.00    -0.253 C  
BRANCH   7   8
HETATM    8  C   UNL     1     -10.717  16.045  67.992  1.00  0.00    -0.309 C  
BRANCH   8   9
HETATM    9  C   UNL     1      -9.952  15.404  66.832  1.00  0.00    -0.247 C  
BRANCH   9  10
HETATM   10  C   UNL     1      -8.643  16.137  66.546  1.00  0.00    -0.341 C  
HETATM   11  C   UNL     1      -7.485  15.542  67.316  1.00  0.00    -0.223 C  
HETATM   12  O   UNL     1      -6.321  16.187  67.067  1.00  0.00    -0.267 OA 
HETATM   13  O   UNL     1      -7.555  14.595  68.081  1.00  0.00    -0.106 OA 
ENDBRANCH   9  10
ENDBRANCH   8   9
ENDBRANCH   7   8
ENDBRANCH   6   7
ENDBRANCH   5   6
ENDBRANCH   4   5
TORSDOF 6
ENDMDL
MODEL      137
REMARK 921   NORMALIZED FREE ENERGY PREDICTED BY IDOCK:   -3.32 KCAL/MOL
REMARK 922        TOTAL FREE ENERGY PREDICTED BY IDOCK:   -4.83 KCAL/MOL
REMARK 923 INTER-LIGAND FREE ENERGY PREDICTED BY IDOCK:   -4.55 KCAL/MOL
REMARK 924 INTRA-LIGAND FREE ENERGY PREDICTED BY IDOCK:   -0.28 KCAL/MOL
REMARK 927      BINDING AFFINITY PREDICTED BY RF-SCORE:    0.00 PKD
ROOT
HETATM    1  O   UNL     1      -9.406   8.481  66.438  1.00  0.00    -0.181 OA 
HETATM    2  C   UNL     1     -10.256   9.408  66.939  1.00  0.00    -0.248 C  
HETATM    3  O   UNL     1     -10.845   9.247  67.995  1.00  0.00    -0.203 OA 
HETATM    4  C   UNL     1     -10.369  10.624  66.045  1.00  0.00    -0.290 C  
ENDROOT
BRANCH   4   5
HETATM    5  C   UNL     1     -11.333  11.657  66.626  1.00  0.00    -0.338 C  
BRANCH   5   6
HETATM    6  C   UNL     1     -10.618  12.673  67.518  1.00  0.00    -0.236 C  
BRANCH   6   7
HETATM    7  C   UNL     1     -11.532  13.123  68.660  1.00  0.00    -0.342 C  
BRANCH   7   8
HETATM    8  C   UNL     1     -11.656  14.646  68.729  1.00  0.00    -0.346 C  
BRANCH   8   9
HETATM    9  C   UNL     1     -12.172  15.090  70.100  1.00  0.00    -0.392 C  
BRANCH   9  10
HETATM   10  C   UNL     1     -12.812  13.934  70.864  1.00  0.00    -0.370 C  
HETATM   11  C   UNL     1     -13.551  14.412  72.094  1.00  0.00    -0.435 C  
HETATM   12  O   UNL     1     -14.122  13.392  72.776  1.00  0.00    -0.715 OA 
HETATM   13  O   UNL     1     -13.643  15.572  72.459  1.00  0.00    -0.459 OA 
ENDBRANCH   9  10
ENDBRANCH   8   9
ENDBRANCH   7   8
ENDBRANCH   6   7
ENDBRANCH   5   6
ENDBRANCH   4   5
TORSDOF 6
ENDMDL
MODEL      138
REMARK 921   NORMALIZED FREE ENERGY PREDICTED BY IDOCK:   -3.31 KCAL/MOL
REMARK 922        TOTAL FREE ENERGY PREDICTED BY IDOCK:   -4.82 KCAL/MOL
REMARK 923 INTER-LIGAND FREE ENERGY PREDICTED BY IDOCK:   -4.56 KCAL/MOL
REMARK 924 INTRA-LIGAND FREE ENERGY PREDICTED BY IDOCK:   -0.26 KCAL/MOL
REMARK 927      BINDING AFFINITY PREDICTED BY RF-SCORE:    0.00 PKD
ROOT
HETATM    1  O   UNL     1     -13.027  11.900  63.238  1.00  0.00    -0.707 OA 
HETATM    2  C   UNL     1     -12.528  12.642  64.255  1.00  0.00    -0.411 C  
HETATM    3  O   UNL     1     -12.761  12.383  65.424  1.00  0.00    -0.582 OA 
HETATM    4  C   UNL     1     -11.674  13.789  63.762  1.00  0.00    -0.219 C  
ENDROOT
BRANCH   4   5
HETATM    5  C   UNL     1     -11.121  14.614  64.923  1.00  0.00    -0.409 C  
BRANCH   5   6
HETATM    6  C   UNL     1      -9.981  13.896  65.648  1.00  0.00    -0.298 C  
BRANCH   6   7
HETATM    7  C   UNL     1     -10.135  14.036  67.164  1.00  0.00    -0.259 C  
BRANCH   7   8
HETATM    8  C   UNL     1      -9.128  13.172  67.925  1.00  0.00    -0.207 C  
BRANCH   8   9
HETATM    9  C   UNL     1      -9.357  11.686  67.640  1.00  0.00    -0.178 C  
BRANCH   9  10
HETATM   10  C   UNL     1      -9.720  10.918  68.909  1.00  0.00    -0.198 C  
HETATM   11  C   UNL     1     -11.190  10.565  68.953  1.00  0.00    -0.266 C  
HETATM   12  O   UNL     1     -11.519   9.883  70.075  1.00  0.00    -0.247 OA 
HETATM   13  O   UNL     1     -12.011  10.845  68.096  1.00  0.00    -0.581 OA 
ENDBRANCH   9  10
ENDBRANCH   8   9
ENDBRANCH   7   8
ENDBRANCH   6   7
ENDBRANCH   5   6
ENDBRANCH   4   5
TORSDOF 6
ENDMDL
MODEL      139
REMARK 921   NORMALIZED FREE ENERGY PREDICTED BY IDOCK:   -3.27 KCAL/MOL
REMARK 922        TOTAL FREE ENERGY PREDICTED BY IDOCK:   -4.77 KCAL/MOL
REMARK 923 INTER-LIGAND FREE ENERGY PREDICTED BY IDOCK:   -4.38 KCAL/MOL
REMARK 924 INTRA-LIGAND FREE ENERGY PREDICTED BY IDOCK:   -0.39 KCAL/MOL
REMARK 927      BINDING AFFINITY PREDICTED BY RF-SCORE:    0.00 PKD
ROOT
HETATM    1  O   UNL     1      -7.070  16.614  66.672  1.00  0.00    -0.218 OA 
HETATM    2  C   UNL     1      -8.372  16.906  66.444  1.00  0.00    -0.298 C  
HETATM    3  O   UNL     1      -8.847  18.001  66.698  1.00  0.00    -0.253 OA 
HETATM    4  C   UNL     1      -9.128  15.737  65.851  1.00  0.00    -0.300 C  
ENDROOT
BRANCH   4   5
HETATM    5  C   UNL     1     -10.594  16.087  65.601  1.00  0.00    -0.392 C  
BRANCH   5   6
HETATM    6  C   UNL     1     -11.350  14.945  64.920  1.00  0.00    -0.415 C  
BRANCH   6   7
HETATM    7  C   UNL     1     -10.634  13.613  65.151  1.00  0.00    -0.371 C  
BRANCH   7   8
HETATM    8  C   UNL     1     -11.579  12.539  65.692  1.00  0.00    -0.435 C  
BRANCH   8   9
HETATM    9  C   UNL     1     -11.951  12.824  67.149  1.00  0.00    -0.351 C  
BRANCH   9  10
HETATM   10  C   UNL     1     -11.646  11.631  68.053  1.00  0.00    -0.383 C  
HETATM   11  C   UNL     1     -11.752  11.992  69.518  1.00  0.00    -0.342 C  
HETATM   12  O   UNL     1     -11.483  10.940  70.325  1.00  0.00    -0.300 OA 
HETATM   13  O   UNL     1     -12.042  13.092  69.956  1.00  0.00    -0.325 OA 
ENDBRANCH   9  10
ENDBRANCH   8   9
ENDBRANCH   7   8
ENDBRANCH   6   7
ENDBRANCH   5   6
ENDBRANCH   4   5
TORSDOF 6
ENDMDL
MODEL      140
REMARK 921   NORMALIZED FREE ENERGY PREDICTED BY IDOCK:   -3.27 KCAL/MOL
REMARK 922        TOTAL FREE ENERGY PREDICTED BY IDOCK:   -4.77 KCAL/MOL
REMARK 923 INTER-LIGAND FREE ENERGY PREDICTED BY IDOCK:   -4.43 KCAL/MOL
REMARK 924 INTRA-LIGAND FREE ENERGY PREDICTED BY IDOCK:   -0.34 KCAL/MOL
REMARK 927      BINDING AFFINITY PREDICTED BY RF-SCORE:    0.00 PKD
ROOT
HETATM    1  O   UNL     1     -12.659  14.621  63.780  1.00  0.00    -0.820 OA 
HETATM    2  C   UNL     1     -12.631  13.676  64.749  1.00  0.00    -0.295 C  
HETATM    3  O   UNL     1     -13.159  12.586  64.610  1.00  0.00    -0.845 OA 
HETATM    4  C   UNL     1     -11.881  14.139  65.980  1.00  0.00    -0.409 C  
ENDROOT
BRANCH   4   5
HETATM    5  C   UNL     1     -11.861  13.059  67.061  1.00  0.00    -0.437 C  
BRANCH   5   6
HETATM    6  C   UNL     1     -10.523  13.009  67.799  1.00  0.00    -0.232 C  
BRANCH   6   7
HETATM    7  C   UNL     1     -10.569  11.975  68.926  1.00  0.00    -0.192 C  
BRANCH   7   8
HETATM    8  C   UNL     1     -11.564  10.851  68.634  1.00  0.00    -0.373 C  
BRANCH   8   9
HETATM    9  C   UNL     1     -10.898   9.725  67.841  1.00  0.00    -0.298 C  
BRANCH   9  10
HETATM   10  C   UNL     1      -9.872   8.971  68.684  1.00  0.00    -0.177 C  
HETATM   11  C   UNL     1      -8.607   8.682  67.906  1.00  0.00    -0.137 C  
HETATM   12  O   UNL     1      -7.693   8.014  68.647  1.00  0.00    -0.101 OA 
HETATM   13  O   UNL     1      -8.401   8.999  66.747  1.00  0.00    -0.113 OA 
ENDBRANCH   9  10
ENDBRANCH   8   9
ENDBRANCH   7   8
ENDBRANCH   6   7
ENDBRANCH   5   6
ENDBRANCH   4   5
TORSDOF 6
ENDMDL
MODEL      141
REMARK 921   NORMALIZED FREE ENERGY PREDICTED BY IDOCK:   -3.22 KCAL/MOL
REMARK 922        TOTAL FREE ENERGY PREDICTED BY IDOCK:   -4.71 KCAL/MOL
REMARK 923 INTER-LIGAND FREE ENERGY PREDICTED BY IDOCK:   -4.31 KCAL/MOL
REMARK 924 INTRA-LIGAND FREE ENERGY PREDICTED BY IDOCK:   -0.40 KCAL/MOL
REMARK 927      BINDING AFFINITY PREDICTED BY RF-SCORE:    0.00 PKD
ROOT
HETATM    1  O   UNL     1     -10.560  19.124  67.450  1.00  0.00    -0.433 OA 
HETATM    2  C   UNL     1     -10.100  17.884  67.739  1.00  0.00    -0.348 C  
HETATM    3  O   UNL     1      -9.170  17.698  68.505  1.00  0.00    -0.273 OA 
HETATM    4  C   UNL     1     -10.869  16.803  67.010  1.00  0.00    -0.066 C  
ENDROOT
BRANCH   4   5
HETATM    5  C   UNL     1     -10.335  15.412  67.349  1.00  0.00    -0.262 C  
BRANCH   5   6
HETATM    6  C   UNL     1     -11.442  14.471  67.825  1.00  0.00    -0.362 C  
BRANCH   6   7
HETATM    7  C   UNL     1     -11.602  13.296  66.858  1.00  0.00    -0.408 C  
BRANCH   7   8
HETATM    8  C   UNL     1     -11.866  11.980  67.591  1.00  0.00    -0.294 C  
BRANCH   8   9
HETATM    9  C   UNL     1     -11.184  11.972  68.961  1.00  0.00    -0.313 C  
BRANCH   9  10
HETATM   10  C   UNL     1     -12.020  11.233  70.003  1.00  0.00    -0.447 C  
HETATM   11  C   UNL     1     -12.600  12.177  71.033  1.00  0.00    -0.263 C  
HETATM   12  O   UNL     1     -13.342  11.528  71.960  1.00  0.00    -0.476 OA 
HETATM   13  O   UNL     1     -12.438  13.385  71.056  1.00  0.00    -0.362 OA 
ENDBRANCH   9  10
ENDBRANCH   8   9
ENDBRANCH   7   8
ENDBRANCH   6   7
ENDBRANCH   5   6
ENDBRANCH   4   5
TORSDOF 6
ENDMDL
MODEL      142
REMARK 921   NORMALIZED FREE ENERGY PREDICTED BY IDOCK:   -3.22 KCAL/MOL
REMARK 922        TOTAL FREE ENERGY PREDICTED BY IDOCK:   -4.71 KCAL/MOL
REMARK 923 INTER-LIGAND FREE ENERGY PREDICTED BY IDOCK:   -4.30 KCAL/MOL
REMARK 924 INTRA-LIGAND FREE ENERGY PREDICTED BY IDOCK:   -0.41 KCAL/MOL
REMARK 927      BINDING AFFINITY PREDICTED BY RF-SCORE:    0.00 PKD
ROOT
HETATM    1  O   UNL     1     -12.849  15.651  70.520  1.00  0.00    -0.445 OA 
HETATM    2  C   UNL     1     -13.040  14.382  70.952  1.00  0.00    -0.328 C  
HETATM    3  O   UNL     1     -13.912  14.093  71.754  1.00  0.00    -0.406 OA 
HETATM    4  C   UNL     1     -12.063  13.410  70.327  1.00  0.00    -0.419 C  
ENDROOT
BRANCH   4   5
HETATM    5  C   UNL     1     -12.295  11.985  70.827  1.00  0.00    -0.403 C  
BRANCH   5   6
HETATM    6  C   UNL     1     -12.085  10.946  69.725  1.00  0.00    -0.409 C  
BRANCH   6   7
HETATM    7  C   UNL     1     -10.650  11.005  69.197  1.00  0.00    -0.253 C  
BRANCH   7   8
HETATM    8  C   UNL     1     -10.600  11.329  67.703  1.00  0.00    -0.252 C  
BRANCH   8   9
HETATM    9  C   UNL     1      -9.467  12.310  67.395  1.00  0.00    -0.181 C  
BRANCH   9  10
HETATM   10  C   UNL     1      -9.976  13.746  67.294  1.00  0.00    -0.239 C  
HETATM   11  C   UNL     1     -10.534  14.051  65.922  1.00  0.00    -0.309 C  
HETATM   12  O   UNL     1     -10.987  15.323  65.825  1.00  0.00    -0.338 OA 
HETATM   13  O   UNL     1     -10.586  13.268  64.989  1.00  0.00    -0.313 OA 
ENDBRANCH   9  10
ENDBRANCH   8   9
ENDBRANCH   7   8
ENDBRANCH   6   7
ENDBRANCH   5   6
ENDBRANCH   4   5
TORSDOF 6
ENDMDL
MODEL      143
REMARK 921   NORMALIZED FREE ENERGY PREDICTED BY IDOCK:   -3.22 KCAL/MOL
REMARK 922        TOTAL FREE ENERGY PREDICTED BY IDOCK:   -4.70 KCAL/MOL
REMARK 923 INTER-LIGAND FREE ENERGY PREDICTED BY IDOCK:   -4.29 KCAL/MOL
REMARK 924 INTRA-LIGAND FREE ENERGY PREDICTED BY IDOCK:   -0.41 KCAL/MOL
REMARK 927      BINDING AFFINITY PREDICTED BY RF-SCORE:    0.00 PKD
ROOT
HETATM    1  O   UNL     1     -12.314  16.078  63.793  1.00  0.00    -0.858 OA 
HETATM    2  C   UNL     1     -12.016  14.911  64.412  1.00  0.00    -0.394 C  
HETATM    3  O   UNL     1     -12.866  14.075  64.667  1.00  0.00    -0.661 OA 
HETATM    4  C   UNL     1     -10.541  14.791  64.730  1.00  0.00    -0.355 C  
ENDROOT
BRANCH   4   5
HETATM    5  C   UNL     1     -10.226  13.469  65.427  1.00  0.00    -0.316 C  
BRANCH   5   6
HETATM    6  C   UNL     1     -10.123  13.629  66.945  1.00  0.00    -0.260 C  
BRANCH   6   7
HETATM    7  C   UNL     1      -9.651  15.039  67.306  1.00  0.00    -0.208 C  
BRANCH   7   8
HETATM    8  C   UNL     1     -10.280  15.540  68.607  1.00  0.00    -0.216 C  
BRANCH   8   9
HETATM    9  C   UNL     1      -9.735  16.920  68.980  1.00  0.00    -0.231 C  
BRANCH   9  10
HETATM   10  C   UNL     1      -8.220  16.898  69.168  1.00  0.00    -0.066 C  
HETATM   11  C   UNL     1      -7.541  18.011  68.401  1.00  0.00    -0.284 C  
HETATM   12  O   UNL     1      -6.197  17.997  68.562  1.00  0.00    -0.188 OA 
HETATM   13  O   UNL     1      -8.106  18.840  67.708  1.00  0.00    -0.249 OA 
ENDBRANCH   9  10
ENDBRANCH   8   9
ENDBRANCH   7   8
ENDBRANCH   6   7
ENDBRANCH   5   6
ENDBRANCH   4   5
TORSDOF 6
ENDMDL
MODEL      144
REMARK 921   NORMALIZED FREE ENERGY PREDICTED BY IDOCK:   -3.21 KCAL/MOL
REMARK 922        TOTAL FREE ENERGY PREDICTED BY IDOCK:   -4.69 KCAL/MOL
REMARK 923 INTER-LIGAND FREE ENERGY PREDICTED BY IDOCK:   -4.23 KCAL/MOL
REMARK 924 INTRA-LIGAND FREE ENERGY PREDICTED BY IDOCK:   -0.46 KCAL/MOL
REMARK 927      BINDING AFFINITY PREDICTED BY RF-SCORE:    0.00 PKD
ROOT
HETATM    1  O   UNL     1      -7.906   5.331  71.718  1.00  0.00    -0.105 OA 
HETATM    2  C   UNL     1      -9.142   5.400  72.266  1.00  0.00    -0.142 C  
HETATM    3  O   UNL     1      -9.398   4.915  73.355  1.00  0.00    -0.126 OA 
HETATM    4  C   UNL     1     -10.123   6.135  71.379  1.00  0.00    -0.230 C  
ENDROOT
BRANCH   4   5
HETATM    5  C   UNL     1     -11.510   6.202  72.015  1.00  0.00    -0.366 C  
BRANCH   5   6
HETATM    6  C   UNL     1     -12.533   6.870  71.095  1.00  0.00    -0.398 C  
BRANCH   6   7
HETATM    7  C   UNL     1     -13.890   6.986  71.794  1.00  0.00    -0.320 C  
BRANCH   7   8
HETATM    8  C   UNL     1     -14.393   8.430  71.834  1.00  0.00    -0.561 C  
BRANCH   8   9
HETATM    9  C   UNL     1     -13.305   9.374  72.351  1.00  0.00    -0.503 C  
BRANCH   9  10
HETATM   10  C   UNL     1     -13.153  10.603  71.457  1.00  0.00    -0.527 C  
HETATM   11  C   UNL     1     -11.783  10.670  70.821  1.00  0.00    -0.335 C  
HETATM   12  O   UNL     1     -11.641  11.758  70.027  1.00  0.00    -0.293 OA 
HETATM   13  O   UNL     1     -10.887   9.860  70.981  1.00  0.00    -0.321 OA 
ENDBRANCH   9  10
ENDBRANCH   8   9
ENDBRANCH   7   8
ENDBRANCH   6   7
ENDBRANCH   5   6
ENDBRANCH   4   5
TORSDOF 6
ENDMDL
MODEL      145
REMARK 921   NORMALIZED FREE ENERGY PREDICTED BY IDOCK:   -3.20 KCAL/MOL
REMARK 922        TOTAL FREE ENERGY PREDICTED BY IDOCK:   -4.68 KCAL/MOL
REMARK 923 INTER-LIGAND FREE ENERGY PREDICTED BY IDOCK:   -4.25 KCAL/MOL
REMARK 924 INTRA-LIGAND FREE ENERGY PREDICTED BY IDOCK:   -0.43 KCAL/MOL
REMARK 927      BINDING AFFINITY PREDICTED BY RF-SCORE:    0.00 PKD
ROOT
HETATM    1  O   UNL     1      -6.081  19.736  70.286  1.00  0.00    -0.288 OA 
HETATM    2  C   UNL     1      -6.607  20.061  69.081  1.00  0.00    -0.309 C  
HETATM    3  O   UNL     1      -6.176  20.985  68.412  1.00  0.00    -0.331 OA 
HETATM    4  C   UNL     1      -7.756  19.156  68.694  1.00  0.00    -0.387 C  
ENDROOT
BRANCH   4   5
HETATM    5  C   UNL     1      -8.336  19.540  67.333  1.00  0.00    -0.330 C  
BRANCH   5   6
HETATM    6  C   UNL     1      -9.655  20.302  67.463  1.00  0.00    -0.562 C  
BRANCH   6   7
HETATM    7  C   UNL     1     -10.838  19.388  67.136  1.00  0.00    -0.561 C  
BRANCH   7   8
HETATM    8  C   UNL     1     -10.426  18.209  66.253  1.00  0.00    -0.374 C  
BRANCH   8   9
HETATM    9  C   UNL     1     -10.496  16.893  67.031  1.00  0.00    -0.281 C  
BRANCH   9  10
HETATM   10  C   UNL     1      -9.325  15.973  66.690  1.00  0.00    -0.268 C  
HETATM   11  C   UNL     1      -9.047  14.982  67.798  1.00  0.00    -0.180 C  
HETATM   12  O   UNL     1      -8.011  14.163  67.502  1.00  0.00    -0.162 OA 
HETATM   13  O   UNL     1      -9.663  14.901  68.847  1.00  0.00    -0.214 OA 
ENDBRANCH   9  10
ENDBRANCH   8   9
ENDBRANCH   7   8
ENDBRANCH   6   7
ENDBRANCH   5   6
ENDBRANCH   4   5
TORSDOF 6
ENDMDL
MODEL      146
REMARK 921   NORMALIZED FREE ENERGY PREDICTED BY IDOCK:   -3.19 KCAL/MOL
REMARK 922        TOTAL FREE ENERGY PREDICTED BY IDOCK:   -4.67 KCAL/MOL
REMARK 923 INTER-LIGAND FREE ENERGY PREDICTED BY IDOCK:   -4.38 KCAL/MOL
REMARK 924 INTRA-LIGAND FREE ENERGY PREDICTED BY IDOCK:   -0.29 KCAL/MOL
REMARK 927      BINDING AFFINITY PREDICTED BY RF-SCORE:    0.00 PKD
ROOT
HETATM    1  O   UNL     1     -10.166  15.144  67.272  1.00  0.00    -0.239 OA 
HETATM    2  C   UNL     1     -11.224  14.498  67.818  1.00  0.00    -0.298 C  
HETATM    3  O   UNL     1     -11.953  13.774  67.160  1.00  0.00    -0.385 OA 
HETATM    4  C   UNL     1     -11.370  14.785  69.296  1.00  0.00    -0.317 C  
ENDROOT
BRANCH   4   5
HETATM    5  C   UNL     1     -12.569  14.048  69.892  1.00  0.00    -0.195 C  
BRANCH   5   6
HETATM    6  C   UNL     1     -12.194  12.655  70.399  1.00  0.00    -0.368 C  
BRANCH   6   7
HETATM    7  C   UNL     1     -12.961  12.325  71.681  1.00  0.00    -0.416 C  
BRANCH   7   8
HETATM    8  C   UNL     1     -13.187  10.821  71.844  1.00  0.00    -0.524 C  
BRANCH   8   9
HETATM    9  C   UNL     1     -12.315  10.029  70.867  1.00  0.00    -0.438 C  
BRANCH   9  10
HETATM   10  C   UNL     1     -11.129   9.374  71.570  1.00  0.00    -0.446 C  
HETATM   11  C   UNL     1     -11.241   7.866  71.578  1.00  0.00    -0.249 C  
HETATM   12  O   UNL     1     -10.192   7.279  72.200  1.00  0.00    -0.187 OA 
HETATM   13  O   UNL     1     -12.154   7.221  71.091  1.00  0.00    -0.316 OA 
ENDBRANCH   9  10
ENDBRANCH   8   9
ENDBRANCH   7   8
ENDBRANCH   6   7
ENDBRANCH   5   6
ENDBRANCH   4   5
TORSDOF 6
ENDMDL
MODEL      147
REMARK 921   NORMALIZED FREE ENERGY PREDICTED BY IDOCK:   -3.19 KCAL/MOL
REMARK 922        TOTAL FREE ENERGY PREDICTED BY IDOCK:   -4.66 KCAL/MOL
REMARK 923 INTER-LIGAND FREE ENERGY PREDICTED BY IDOCK:   -4.36 KCAL/MOL
REMARK 924 INTRA-LIGAND FREE ENERGY PREDICTED BY IDOCK:   -0.30 KCAL/MOL
REMARK 927      BINDING AFFINITY PREDICTED BY RF-SCORE:    0.00 PKD
ROOT
HETATM    1  O   UNL     1     -10.622  12.340  66.822  1.00  0.00    -0.219 OA 
HETATM    2  C   UNL     1     -10.363  11.145  67.403  1.00  0.00    -0.196 C  
HETATM    3  O   UNL     1     -10.063  10.157  66.753  1.00  0.00    -0.201 OA 
HETATM    4  C   UNL     1     -10.490  11.200  68.910  1.00  0.00    -0.233 C  
ENDROOT
BRANCH   4   5
HETATM    5  C   UNL     1     -10.195   9.843  69.546  1.00  0.00    -0.243 C  
BRANCH   5   6
HETATM    6  C   UNL     1     -10.609   9.794  71.017  1.00  0.00    -0.295 C  
BRANCH   6   7
HETATM    7  C   UNL     1     -11.977   9.126  71.168  1.00  0.00    -0.374 C  
BRANCH   7   8
HETATM    8  C   UNL     1     -12.987  10.038  71.867  1.00  0.00    -0.547 C  
BRANCH   8   9
HETATM    9  C   UNL     1     -13.000  11.429  71.230  1.00  0.00    -0.415 C  
BRANCH   9  10
HETATM   10  C   UNL     1     -13.507  12.491  72.203  1.00  0.00    -0.523 C  
HETATM   11  C   UNL     1     -13.051  13.878  71.810  1.00  0.00    -0.377 C  
HETATM   12  O   UNL     1     -13.498  14.825  72.668  1.00  0.00    -0.412 OA 
HETATM   13  O   UNL     1     -12.362  14.149  70.841  1.00  0.00    -0.323 OA 
ENDBRANCH   9  10
ENDBRANCH   8   9
ENDBRANCH   7   8
ENDBRANCH   6   7
ENDBRANCH   5   6
ENDBRANCH   4   5
TORSDOF 6
ENDMDL
MODEL      148
REMARK 921   NORMALIZED FREE ENERGY PREDICTED BY IDOCK:   -3.17 KCAL/MOL
REMARK 922        TOTAL FREE ENERGY PREDICTED BY IDOCK:   -4.64 KCAL/MOL
REMARK 923 INTER-LIGAND FREE ENERGY PREDICTED BY IDOCK:   -4.32 KCAL/MOL
REMARK 924 INTRA-LIGAND FREE ENERGY PREDICTED BY IDOCK:   -0.32 KCAL/MOL
REMARK 927      BINDING AFFINITY PREDICTED BY RF-SCORE:    0.00 PKD
ROOT
HETATM    1  O   UNL     1     -10.740   5.158  71.946  1.00  0.00    -0.213 OA 
HETATM    2  C   UNL     1     -10.700   6.100  70.975  1.00  0.00    -0.260 C  
HETATM    3  O   UNL     1     -11.601   6.237  70.165  1.00  0.00    -0.413 OA 
HETATM    4  C   UNL     1      -9.434   6.927  71.030  1.00  0.00    -0.163 C  
ENDROOT
BRANCH   4   5
HETATM    5  C   UNL     1      -9.407   7.983  69.926  1.00  0.00    -0.156 C  
BRANCH   5   6
HETATM    6  C   UNL     1      -9.346   9.404  70.490  1.00  0.00    -0.319 C  
BRANCH   6   7
HETATM    7  C   UNL     1     -10.543  10.226  70.007  1.00  0.00    -0.321 C  
BRANCH   7   8
HETATM    8  C   UNL     1     -11.703  10.193  71.004  1.00  0.00    -0.470 C  
BRANCH   8   9
HETATM    9  C   UNL     1     -12.734  11.275  70.677  1.00  0.00    -0.314 C  
BRANCH   9  10
HETATM   10  C   UNL     1     -13.151  12.052  71.924  1.00  0.00    -0.475 C  
HETATM   11  C   UNL     1     -13.144  13.545  71.684  1.00  0.00    -0.374 C  
HETATM   12  O   UNL     1     -13.513  14.241  72.785  1.00  0.00    -0.505 OA 
HETATM   13  O   UNL     1     -12.847  14.093  70.636  1.00  0.00    -0.336 OA 
ENDBRANCH   9  10
ENDBRANCH   8   9
ENDBRANCH   7   8
ENDBRANCH   6   7
ENDBRANCH   5   6
ENDBRANCH   4   5
TORSDOF 6
ENDMDL
MODEL      149
REMARK 921   NORMALIZED FREE ENERGY PREDICTED BY IDOCK:   -3.16 KCAL/MOL
REMARK 922        TOTAL FREE ENERGY PREDICTED BY IDOCK:   -4.61 KCAL/MOL
REMARK 923 INTER-LIGAND FREE ENERGY PREDICTED BY IDOCK:   -4.21 KCAL/MOL
REMARK 924 INTRA-LIGAND FREE ENERGY PREDICTED BY IDOCK:   -0.41 KCAL/MOL
REMARK 927      BINDING AFFINITY PREDICTED BY RF-SCORE:    0.00 PKD
ROOT
HETATM    1  O   UNL     1      -8.927   6.510  66.162  1.00  0.00    -0.155 OA 
HETATM    2  C   UNL     1     -10.015   6.128  66.871  1.00  0.00    -0.168 C  
HETATM    3  O   UNL     1     -10.886   5.419  66.395  1.00  0.00    -0.284 OA 
HETATM    4  C   UNL     1     -10.003   6.679  68.281  1.00  0.00    -0.148 C  
ENDROOT
BRANCH   4   5
HETATM    5  C   UNL     1     -11.239   6.237  69.064  1.00  0.00    -0.415 C  
BRANCH   5   6
HETATM    6  C   UNL     1     -11.401   7.016  70.370  1.00  0.00    -0.354 C  
BRANCH   6   7
HETATM    7  C   UNL     1     -10.121   7.788  70.698  1.00  0.00    -0.191 C  
BRANCH   7   8
HETATM    8  C   UNL     1     -10.402   9.261  71.002  1.00  0.00    -0.388 C  
BRANCH   8   9
HETATM    9  C   UNL     1     -11.543   9.791  70.130  1.00  0.00    -0.239 C  
BRANCH   9  10
HETATM   10  C   UNL     1     -12.038  11.151  70.615  1.00  0.00    -0.477 C  
HETATM   11  C   UNL     1     -13.057  11.016  71.725  1.00  0.00    -0.449 C  
HETATM   12  O   UNL     1     -13.501  12.219  72.159  1.00  0.00    -0.509 OA 
HETATM   13  O   UNL     1     -13.455   9.965  72.197  1.00  0.00    -0.429 OA 
ENDBRANCH   9  10
ENDBRANCH   8   9
ENDBRANCH   7   8
ENDBRANCH   6   7
ENDBRANCH   5   6
ENDBRANCH   4   5
TORSDOF 6
ENDMDL
MODEL      150
REMARK 921   NORMALIZED FREE ENERGY PREDICTED BY IDOCK:   -3.13 KCAL/MOL
REMARK 922        TOTAL FREE ENERGY PREDICTED BY IDOCK:   -4.59 KCAL/MOL
REMARK 923 INTER-LIGAND FREE ENERGY PREDICTED BY IDOCK:   -4.19 KCAL/MOL
REMARK 924 INTRA-LIGAND FREE ENERGY PREDICTED BY IDOCK:   -0.40 KCAL/MOL
REMARK 927      BINDING AFFINITY PREDICTED BY RF-SCORE:    0.00 PKD
ROOT
HETATM    1  O   UNL     1      -8.304   8.909  69.754  1.00  0.00    -0.115 OA 
HETATM    2  C   UNL     1      -9.477   9.526  70.029  1.00  0.00    -0.232 C  
HETATM    3  O   UNL     1     -10.186   9.188  70.962  1.00  0.00    -0.251 OA 
HETATM    4  C   UNL     1      -9.775  10.649  69.059  1.00  0.00    -0.214 C  
ENDROOT
BRANCH   4   5
HETATM    5  C   UNL     1     -11.102  11.332  69.385  1.00  0.00    -0.316 C  
BRANCH   5   6
HETATM    6  C   UNL     1     -11.928  11.615  68.130  1.00  0.00    -0.214 C  
BRANCH   6   7
HETATM    7  C   UNL     1     -11.077  11.424  66.872  1.00  0.00    -0.356 C  
BRANCH   7   8
HETATM    8  C   UNL     1     -11.530  12.332  65.729  1.00  0.00    -0.417 C  
BRANCH   8   9
HETATM    9  C   UNL     1     -12.098  13.647  66.268  1.00  0.00    -0.477 C  
BRANCH   9  10
HETATM   10  C   UNL     1     -10.992  14.654  66.577  1.00  0.00    -0.318 C  
HETATM   11  C   UNL     1     -10.723  15.573  65.407  1.00  0.00    -0.405 C  
HETATM   12  O   UNL     1      -9.744  16.469  65.674  1.00  0.00    -0.513 OA 
HETATM   13  O   UNL     1     -11.300  15.540  64.333  1.00  0.00    -0.357 OA 
ENDBRANCH   9  10
ENDBRANCH   8   9
ENDBRANCH   7   8
ENDBRANCH   6   7
ENDBRANCH   5   6
ENDBRANCH   4   5
TORSDOF 6
ENDMDL
MODEL      151
REMARK 921   NORMALIZED FREE ENERGY PREDICTED BY IDOCK:   -3.11 KCAL/MOL
REMARK 922        TOTAL FREE ENERGY PREDICTED BY IDOCK:   -4.56 KCAL/MOL
REMARK 923 INTER-LIGAND FREE ENERGY PREDICTED BY IDOCK:   -4.16 KCAL/MOL
REMARK 924 INTRA-LIGAND FREE ENERGY PREDICTED BY IDOCK:   -0.40 KCAL/MOL
REMARK 927      BINDING AFFINITY PREDICTED BY RF-SCORE:    0.00 PKD
ROOT
HETATM    1  O   UNL     1      -8.271  15.356  69.005  1.00  0.00    -0.180 OA 
HETATM    2  C   UNL     1      -8.770  14.766  67.893  1.00  0.00    -0.167 C  
HETATM    3  O   UNL     1      -8.083  14.071  67.162  1.00  0.00    -0.174 OA 
HETATM    4  C   UNL     1     -10.237  15.073  67.690  1.00  0.00    -0.236 C  
ENDROOT
BRANCH   4   5
HETATM    5  C   UNL     1     -10.781  14.399  66.431  1.00  0.00    -0.306 C  
BRANCH   5   6
HETATM    6  C   UNL     1     -11.937  13.447  66.741  1.00  0.00    -0.447 C  
BRANCH   6   7
HETATM    7  C   UNL     1     -11.661  12.668  68.028  1.00  0.00    -0.402 C  
BRANCH   7   8
HETATM    8  C   UNL     1     -11.086  11.279  67.747  1.00  0.00    -0.328 C  
BRANCH   8   9
HETATM    9  C   UNL     1     -11.170  10.391  68.991  1.00  0.00    -0.289 C  
BRANCH   9  10
HETATM   10  C   UNL     1     -12.265  10.860  69.947  1.00  0.00    -0.408 C  
HETATM   11  C   UNL     1     -12.140  10.211  71.307  1.00  0.00    -0.394 C  
HETATM   12  O   UNL     1     -13.109  10.622  72.160  1.00  0.00    -0.460 OA 
HETATM   13  O   UNL     1     -11.283   9.409  71.633  1.00  0.00    -0.370 OA 
ENDBRANCH   9  10
ENDBRANCH   8   9
ENDBRANCH   7   8
ENDBRANCH   6   7
ENDBRANCH   5   6
ENDBRANCH   4   5
TORSDOF 6
ENDMDL
MODEL      152
REMARK 921   NORMALIZED FREE ENERGY PREDICTED BY IDOCK:   -3.11 KCAL/MOL
REMARK 922        TOTAL FREE ENERGY PREDICTED BY IDOCK:   -4.55 KCAL/MOL
REMARK 923 INTER-LIGAND FREE ENERGY PREDICTED BY IDOCK:   -4.06 KCAL/MOL
REMARK 924 INTRA-LIGAND FREE ENERGY PREDICTED BY IDOCK:   -0.49 KCAL/MOL
REMARK 927      BINDING AFFINITY PREDICTED BY RF-SCORE:    0.00 PKD
ROOT
HETATM    1  O   UNL     1      -8.008   8.483  73.034  1.00  0.00    -0.344 OA 
HETATM    2  C   UNL     1      -8.426   8.250  71.767  1.00  0.00    -0.158 C  
HETATM    3  O   UNL     1      -8.053   8.928  70.824  1.00  0.00    -0.122 OA 
HETATM    4  C   UNL     1      -9.379   7.078  71.684  1.00  0.00    -0.158 C  
ENDROOT
BRANCH   4   5
HETATM    5  C   UNL     1      -9.839   6.832  70.247  1.00  0.00    -0.185 C  
BRANCH   5   6
HETATM    6  C   UNL     1     -11.284   6.337  70.182  1.00  0.00    -0.470 C  
BRANCH   6   7
HETATM    7  C   UNL     1     -11.996   6.579  71.515  1.00  0.00    -0.383 C  
BRANCH   7   8
HETATM    8  C   UNL     1     -13.125   7.602  71.386  1.00  0.00    -0.339 C  
BRANCH   8   9
HETATM    9  C   UNL     1     -12.995   8.697  72.447  1.00  0.00    -0.403 C  
BRANCH   9  10
HETATM   10  C   UNL     1     -13.332  10.075  71.882  1.00  0.00    -0.516 C  
HETATM   11  C   UNL     1     -12.160  10.684  71.146  1.00  0.00    -0.341 C  
HETATM   12  O   UNL     1     -12.452  11.906  70.642  1.00  0.00    -0.318 OA 
HETATM   13  O   UNL     1     -11.066  10.165  71.005  1.00  0.00    -0.323 OA 
ENDBRANCH   9  10
ENDBRANCH   8   9
ENDBRANCH   7   8
ENDBRANCH   6   7
ENDBRANCH   5   6
ENDBRANCH   4   5
TORSDOF 6
ENDMDL
MODEL      153
REMARK 921   NORMALIZED FREE ENERGY PREDICTED BY IDOCK:   -3.11 KCAL/MOL
REMARK 922        TOTAL FREE ENERGY PREDICTED BY IDOCK:   -4.55 KCAL/MOL
REMARK 923 INTER-LIGAND FREE ENERGY PREDICTED BY IDOCK:   -4.01 KCAL/MOL
REMARK 924 INTRA-LIGAND FREE ENERGY PREDICTED BY IDOCK:   -0.54 KCAL/MOL
REMARK 927      BINDING AFFINITY PREDICTED BY RF-SCORE:    0.00 PKD
ROOT
HETATM    1  O   UNL     1     -12.068  12.578  67.275  1.00  0.00    -0.490 OA 
HETATM    2  C   UNL     1     -11.342  11.870  66.378  1.00  0.00    -0.339 C  
HETATM    3  O   UNL     1     -11.250  12.202  65.208  1.00  0.00    -0.315 OA 
HETATM    4  C   UNL     1     -10.684  10.659  67.002  1.00  0.00    -0.317 C  
ENDROOT
BRANCH   4   5
HETATM    5  C   UNL     1      -9.870   9.873  65.975  1.00  0.00    -0.330 C  
BRANCH   5   6
HETATM    6  C   UNL     1      -9.594   8.440  66.433  1.00  0.00    -0.307 C  
BRANCH   6   7
HETATM    7  C   UNL     1     -10.580   8.027  67.528  1.00  0.00    -0.302 C  
BRANCH   7   8
HETATM    8  C   UNL     1      -9.873   7.406  68.733  1.00  0.00    -0.164 C  
BRANCH   8   9
HETATM    9  C   UNL     1      -9.768   8.411  69.882  1.00  0.00    -0.179 C  
BRANCH   9  10
HETATM   10  C   UNL     1     -10.906   8.243  70.886  1.00  0.00    -0.261 C  
HETATM   11  C   UNL     1     -11.710   9.514  71.044  1.00  0.00    -0.343 C  
HETATM   12  O   UNL     1     -12.721   9.372  71.933  1.00  0.00    -0.349 OA 
HETATM   13  O   UNL     1     -11.500  10.562  70.458  1.00  0.00    -0.313 OA 
ENDBRANCH   9  10
ENDBRANCH   8   9
ENDBRANCH   7   8
ENDBRANCH   6   7
ENDBRANCH   5   6
ENDBRANCH   4   5
TORSDOF 6
ENDMDL
MODEL      154
REMARK 921   NORMALIZED FREE ENERGY PREDICTED BY IDOCK:   -3.10 KCAL/MOL
REMARK 922        TOTAL FREE ENERGY PREDICTED BY IDOCK:   -4.54 KCAL/MOL
REMARK 923 INTER-LIGAND FREE ENERGY PREDICTED BY IDOCK:   -5.44 KCAL/MOL
REMARK 924 INTRA-LIGAND FREE ENERGY PREDICTED BY IDOCK:    0.90 KCAL/MOL
REMARK 927      BINDING AFFINITY PREDICTED BY RF-SCORE:    0.00 PKD
ROOT
HETATM    1  O   UNL     1      -5.359  18.812  72.249  1.00  0.00    -0.664 OA 
HETATM    2  C   UNL     1      -5.437  19.893  71.438  1.00  0.00    -0.355 C  
HETATM    3  O   UNL     1      -5.251  21.027  71.847  1.00  0.00    -0.571 OA 
HETATM    4  C   UNL     1      -5.772  19.517  70.011  1.00  0.00    -0.290 C  
ENDROOT
BRANCH   4   5
HETATM    5  C   UNL     1      -5.856  20.750  69.113  1.00  0.00    -0.373 C  
BRANCH   5   6
HETATM    6  C   UNL     1      -5.830  20.384  67.629  1.00  0.00    -0.253 C  
BRANCH   6   7
HETATM    7  C   UNL     1      -7.150  20.769  66.957  1.00  0.00    -0.383 C  
BRANCH   7   8
HETATM    8  C   UNL     1      -8.340  20.015  67.554  1.00  0.00    -0.381 C  
BRANCH   8   9
HETATM    9  C   UNL     1      -9.663  20.624  67.085  1.00  0.00    -0.530 C  
BRANCH   9  10
HETATM   10  C   UNL     1     -10.658  19.548  66.653  1.00  0.00    -0.583 C  
HETATM   11  C   UNL     1      -9.964  18.354  66.038  1.00  0.00    -0.218 C  
HETATM   12  O   UNL     1     -10.840  17.396  65.653  1.00  0.00    -0.336 OA 
HETATM   13  O   UNL     1      -8.760  18.233  65.890  1.00  0.00    -0.500 OA 
ENDBRANCH   9  10
ENDBRANCH   8   9
ENDBRANCH   7   8
ENDBRANCH   6   7
ENDBRANCH   5   6
ENDBRANCH   4   5
TORSDOF 6
ENDMDL
MODEL      155
REMARK 921   NORMALIZED FREE ENERGY PREDICTED BY IDOCK:   -3.09 KCAL/MOL
REMARK 922        TOTAL FREE ENERGY PREDICTED BY IDOCK:   -4.53 KCAL/MOL
REMARK 923 INTER-LIGAND FREE ENERGY PREDICTED BY IDOCK:   -3.88 KCAL/MOL
REMARK 924 INTRA-LIGAND FREE ENERGY PREDICTED BY IDOCK:   -0.65 KCAL/MOL
REMARK 927      BINDING AFFINITY PREDICTED BY RF-SCORE:    0.00 PKD
ROOT
HETATM    1  O   UNL     1     -11.554  14.585  67.992  1.00  0.00    -0.303 OA 
HETATM    2  C   UNL     1     -11.810  13.266  67.825  1.00  0.00    -0.353 C  
HETATM    3  O   UNL     1     -12.545  12.853  66.944  1.00  0.00    -0.170 OA 
HETATM    4  C   UNL     1     -11.085  12.408  68.840  1.00  0.00    -0.307 C  
ENDROOT
BRANCH   4   5
HETATM    5  C   UNL     1     -11.386  10.924  68.634  1.00  0.00    -0.360 C  
BRANCH   5   6
HETATM    6  C   UNL     1     -10.116  10.106  68.399  1.00  0.00    -0.184 C  
BRANCH   6   7
HETATM    7  C   UNL     1      -9.486  10.467  67.052  1.00  0.00    -0.188 C  
BRANCH   7   8
HETATM    8  C   UNL     1     -10.178   9.760  65.886  1.00  0.00    -0.245 C  
BRANCH   8   9
HETATM    9  C   UNL     1      -9.978  10.533  64.581  1.00  0.00    -0.415 C  
BRANCH   9  10
HETATM   10  C   UNL     1     -10.061  12.042  64.801  1.00  0.00    -0.286 C  
HETATM   11  C   UNL     1     -11.102  12.685  63.911  1.00  0.00    -0.427 C  
HETATM   12  O   UNL     1     -11.180  14.023  64.101  1.00  0.00    -0.276 OA 
HETATM   13  O   UNL     1     -11.805  12.098  63.107  1.00  0.00    -0.373 OA 
ENDBRANCH   9  10
ENDBRANCH   8   9
ENDBRANCH   7   8
ENDBRANCH   6   7
ENDBRANCH   5   6
ENDBRANCH   4   5
TORSDOF 6
ENDMDL
MODEL      156
REMARK 921   NORMALIZED FREE ENERGY PREDICTED BY IDOCK:   -3.09 KCAL/MOL
REMARK 922        TOTAL FREE ENERGY PREDICTED BY IDOCK:   -4.52 KCAL/MOL
REMARK 923 INTER-LIGAND FREE ENERGY PREDICTED BY IDOCK:   -3.97 KCAL/MOL
REMARK 924 INTRA-LIGAND FREE ENERGY PREDICTED BY IDOCK:   -0.56 KCAL/MOL
REMARK 927      BINDING AFFINITY PREDICTED BY RF-SCORE:    0.00 PKD
ROOT
HETATM    1  O   UNL     1      -7.150  14.181  69.413  1.00  0.00    -0.116 OA 
HETATM    2  C   UNL     1      -7.390  13.660  68.187  1.00  0.00    -0.121 C  
HETATM    3  O   UNL     1      -6.612  13.799  67.258  1.00  0.00    -0.259 OA 
HETATM    4  C   UNL     1      -8.703  12.909  68.129  1.00  0.00    -0.190 C  
ENDROOT
BRANCH   4   5
HETATM    5  C   UNL     1      -8.955  12.330  66.738  1.00  0.00    -0.209 C  
BRANCH   5   6
HETATM    6  C   UNL     1     -10.416  12.476  66.310  1.00  0.00    -0.268 C  
BRANCH   6   7
HETATM    7  C   UNL     1     -10.548  13.520  65.198  1.00  0.00    -0.364 C  
BRANCH   7   8
HETATM    8  C   UNL     1     -10.917  14.899  65.747  1.00  0.00    -0.345 C  
BRANCH   8   9
HETATM    9  C   UNL     1      -9.702  15.830  65.744  1.00  0.00    -0.372 C  
BRANCH   9  10
HETATM   10  C   UNL     1      -9.807  16.898  66.831  1.00  0.00    -0.278 C  
HETATM   11  C   UNL     1     -10.462  18.161  66.318  1.00  0.00    -0.361 C  
HETATM   12  O   UNL     1     -10.558  19.112  67.276  1.00  0.00    -0.428 OA 
HETATM   13  O   UNL     1     -10.868  18.337  65.182  1.00  0.00    -0.656 OA 
ENDBRANCH   9  10
ENDBRANCH   8   9
ENDBRANCH   7   8
ENDBRANCH   6   7
ENDBRANCH   5   6
ENDBRANCH   4   5
TORSDOF 6
ENDMDL
MODEL      157
REMARK 921   NORMALIZED FREE ENERGY PREDICTED BY IDOCK:   -3.09 KCAL/MOL
REMARK 922        TOTAL FREE ENERGY PREDICTED BY IDOCK:   -4.52 KCAL/MOL
REMARK 923 INTER-LIGAND FREE ENERGY PREDICTED BY IDOCK:   -4.22 KCAL/MOL
REMARK 924 INTRA-LIGAND FREE ENERGY PREDICTED BY IDOCK:   -0.30 KCAL/MOL
REMARK 927      BINDING AFFINITY PREDICTED BY RF-SCORE:    0.00 PKD
ROOT
HETATM    1  O   UNL     1     -10.747  17.108  69.251  1.00  0.00    -0.300 OA 
HETATM    2  C   UNL     1     -11.305  15.885  69.087  1.00  0.00    -0.366 C  
HETATM    3  O   UNL     1     -11.583  15.439  67.986  1.00  0.00    -0.344 OA 
HETATM    4  C   UNL     1     -11.527  15.175  70.405  1.00  0.00    -0.322 C  
ENDROOT
BRANCH   4   5
HETATM    5  C   UNL     1     -12.158  13.798  70.198  1.00  0.00    -0.429 C  
BRANCH   5   6
HETATM    6  C   UNL     1     -12.931  13.329  71.432  1.00  0.00    -0.398 C  
BRANCH   6   7
HETATM    7  C   UNL     1     -12.935  11.801  71.514  1.00  0.00    -0.446 C  
BRANCH   7   8
HETATM    8  C   UNL     1     -11.941  11.170  70.537  1.00  0.00    -0.475 C  
BRANCH   8   9
HETATM    9  C   UNL     1     -11.530   9.772  71.004  1.00  0.00    -0.458 C  
BRANCH   9  10
HETATM   10  C   UNL     1     -10.919   8.955  69.868  1.00  0.00    -0.190 C  
HETATM   11  C   UNL     1      -9.491   8.555  70.166  1.00  0.00    -0.165 C  
HETATM   12  O   UNL     1      -8.944   7.830  69.162  1.00  0.00    -0.145 OA 
HETATM   13  O   UNL     1      -8.874   8.836  71.179  1.00  0.00    -0.181 OA 
ENDBRANCH   9  10
ENDBRANCH   8   9
ENDBRANCH   7   8
ENDBRANCH   6   7
ENDBRANCH   5   6
ENDBRANCH   4   5
TORSDOF 6
ENDMDL
MODEL      158
REMARK 921   NORMALIZED FREE ENERGY PREDICTED BY IDOCK:   -3.08 KCAL/MOL
REMARK 922        TOTAL FREE ENERGY PREDICTED BY IDOCK:   -4.52 KCAL/MOL
REMARK 923 INTER-LIGAND FREE ENERGY PREDICTED BY IDOCK:   -4.18 KCAL/MOL
REMARK 924 INTRA-LIGAND FREE ENERGY PREDICTED BY IDOCK:   -0.34 KCAL/MOL
REMARK 927      BINDING AFFINITY PREDICTED BY RF-SCORE:    0.00 PKD
ROOT
HETATM    1  O   UNL     1      -6.845  14.059  68.540  1.00  0.00    -0.089 OA 
HETATM    2  C   UNL     1      -6.699  13.042  67.658  1.00  0.00    -0.157 C  
HETATM    3  O   UNL     1      -5.649  12.836  67.071  1.00  0.00    -0.341 OA 
HETATM    4  C   UNL     1      -7.965  12.227  67.507  1.00  0.00    -0.166 C  
ENDROOT
BRANCH   4   5
HETATM    5  C   UNL     1      -7.779  11.085  66.508  1.00  0.00    -0.154 C  
BRANCH   5   6
HETATM    6  C   UNL     1      -9.107  10.420  66.142  1.00  0.00    -0.183 C  
BRANCH   6   7
HETATM    7  C   UNL     1      -9.263  10.331  64.622  1.00  0.00    -0.290 C  
BRANCH   7   8
HETATM    8  C   UNL     1     -10.583  10.937  64.145  1.00  0.00    -0.327 C  
BRANCH   8   9
HETATM    9  C   UNL     1     -10.420  12.427  63.836  1.00  0.00    -0.469 C  
BRANCH   9  10
HETATM   10  C   UNL     1     -11.754  13.168  63.911  1.00  0.00    -0.515 C  
HETATM   11  C   UNL     1     -12.173  13.430  65.340  1.00  0.00    -0.452 C  
HETATM   12  O   UNL     1     -13.354  14.086  65.414  1.00  0.00    -0.721 OA 
HETATM   13  O   UNL     1     -11.546  13.101  66.333  1.00  0.00    -0.317 OA 
ENDBRANCH   9  10
ENDBRANCH   8   9
ENDBRANCH   7   8
ENDBRANCH   6   7
ENDBRANCH   5   6
ENDBRANCH   4   5
TORSDOF 6
ENDMDL
MODEL      159
REMARK 921   NORMALIZED FREE ENERGY PREDICTED BY IDOCK:   -3.08 KCAL/MOL
REMARK 922        TOTAL FREE ENERGY PREDICTED BY IDOCK:   -4.51 KCAL/MOL
REMARK 923 INTER-LIGAND FREE ENERGY PREDICTED BY IDOCK:   -4.11 KCAL/MOL
REMARK 924 INTRA-LIGAND FREE ENERGY PREDICTED BY IDOCK:   -0.40 KCAL/MOL
REMARK 927      BINDING AFFINITY PREDICTED BY RF-SCORE:    0.00 PKD
ROOT
HETATM    1  O   UNL     1      -7.691   8.474  73.979  1.00  0.00    -0.350 OA 
HETATM    2  C   UNL     1      -8.533   7.425  73.827  1.00  0.00    -0.175 C  
HETATM    3  O   UNL     1      -8.214   6.287  74.128  1.00  0.00    -0.114 OA 
HETATM    4  C   UNL     1      -9.871   7.842  73.258  1.00  0.00    -0.362 C  
ENDROOT
BRANCH   4   5
HETATM    5  C   UNL     1     -10.806   6.644  73.094  1.00  0.00    -0.298 C  
BRANCH   5   6
HETATM    6  C   UNL     1     -10.946   6.219  71.631  1.00  0.00    -0.310 C  
BRANCH   6   7
HETATM    7  C   UNL     1     -11.623   7.321  70.813  1.00  0.00    -0.334 C  
BRANCH   7   8
HETATM    8  C   UNL     1     -10.616   8.131  69.996  1.00  0.00    -0.239 C  
BRANCH   8   9
HETATM    9  C   UNL     1     -11.027   9.604  69.927  1.00  0.00    -0.281 C  
BRANCH   9  10
HETATM   10  C   UNL     1     -12.032   9.961  71.020  1.00  0.00    -0.456 C  
HETATM   11  C   UNL     1     -12.382  11.432  71.004  1.00  0.00    -0.343 C  
HETATM   12  O   UNL     1     -13.273  11.756  71.970  1.00  0.00    -0.506 OA 
HETATM   13  O   UNL     1     -11.934  12.258  70.227  1.00  0.00    -0.344 OA 
ENDBRANCH   9  10
ENDBRANCH   8   9
ENDBRANCH   7   8
ENDBRANCH   6   7
ENDBRANCH   5   6
ENDBRANCH   4   5
TORSDOF 6
ENDMDL
MODEL      160
REMARK 921   NORMALIZED FREE ENERGY PREDICTED BY IDOCK:   -3.05 KCAL/MOL
REMARK 922        TOTAL FREE ENERGY PREDICTED BY IDOCK:   -4.47 KCAL/MOL
REMARK 923 INTER-LIGAND FREE ENERGY PREDICTED BY IDOCK:   -3.83 KCAL/MOL
REMARK 924 INTRA-LIGAND FREE ENERGY PREDICTED BY IDOCK:   -0.64 KCAL/MOL
REMARK 927      BINDING AFFINITY PREDICTED BY RF-SCORE:    0.00 PKD
ROOT
HETATM    1  O   UNL     1     -11.803  11.972  70.068  1.00  0.00    -0.323 OA 
HETATM    2  C   UNL     1     -11.843  12.440  68.798  1.00  0.00    -0.311 C  
HETATM    3  O   UNL     1     -12.062  11.712  67.844  1.00  0.00    -0.613 OA 
HETATM    4  C   UNL     1     -11.590  13.930  68.727  1.00  0.00    -0.370 C  
ENDROOT
BRANCH   4   5
HETATM    5  C   UNL     1     -11.638  14.438  67.287  1.00  0.00    -0.401 C  
BRANCH   5   6
HETATM    6  C   UNL     1     -10.953  15.796  67.132  1.00  0.00    -0.244 C  
BRANCH   6   7
HETATM    7  C   UNL     1     -11.018  16.584  68.443  1.00  0.00    -0.348 C  
BRANCH   7   8
HETATM    8  C   UNL     1      -9.762  17.426  68.669  1.00  0.00    -0.308 C  
BRANCH   8   9
HETATM    9  C   UNL     1      -8.538  16.763  68.034  1.00  0.00    -0.210 C  
BRANCH   9  10
HETATM   10  C   UNL     1      -7.502  16.368  69.084  1.00  0.00    -0.228 C  
HETATM   11  C   UNL     1      -7.384  14.866  69.221  1.00  0.00    -0.175 C  
HETATM   12  O   UNL     1      -6.467  14.508  70.150  1.00  0.00    -0.164 OA 
HETATM   13  O   UNL     1      -8.024  14.045  68.587  1.00  0.00    -0.138 OA 
ENDBRANCH   9  10
ENDBRANCH   8   9
ENDBRANCH   7   8
ENDBRANCH   6   7
ENDBRANCH   5   6
ENDBRANCH   4   5
TORSDOF 6
ENDMDL
MODEL      161
REMARK 921   NORMALIZED FREE ENERGY PREDICTED BY IDOCK:   -3.05 KCAL/MOL
REMARK 922        TOTAL FREE ENERGY PREDICTED BY IDOCK:   -4.47 KCAL/MOL
REMARK 923 INTER-LIGAND FREE ENERGY PREDICTED BY IDOCK:   -4.05 KCAL/MOL
REMARK 924 INTRA-LIGAND FREE ENERGY PREDICTED BY IDOCK:   -0.42 KCAL/MOL
REMARK 927      BINDING AFFINITY PREDICTED BY RF-SCORE:    0.00 PKD
ROOT
HETATM    1  O   UNL     1     -12.598   8.647  72.374  1.00  0.00    -0.383 OA 
HETATM    2  C   UNL     1     -11.557   7.998  71.800  1.00  0.00    -0.285 C  
HETATM    3  O   UNL     1     -10.397   8.275  72.058  1.00  0.00    -0.232 OA 
HETATM    4  C   UNL     1     -12.011   6.924  70.836  1.00  0.00    -0.430 C  
ENDROOT
BRANCH   4   5
HETATM    5  C   UNL     1     -10.823   6.206  70.199  1.00  0.00    -0.395 C  
BRANCH   5   6
HETATM    6  C   UNL     1     -10.787   6.386  68.681  1.00  0.00    -0.379 C  
BRANCH   6   7
HETATM    7  C   UNL     1      -9.950   7.611  68.305  1.00  0.00    -0.198 C  
BRANCH   7   8
HETATM    8  C   UNL     1     -10.496   8.320  67.065  1.00  0.00    -0.384 C  
BRANCH   8   9
HETATM    9  C   UNL     1     -10.299   9.834  67.172  1.00  0.00    -0.311 C  
BRANCH   9  10
HETATM   10  C   UNL     1     -11.367  10.483  68.049  1.00  0.00    -0.319 C  
HETATM   11  C   UNL     1     -10.979  11.884  68.466  1.00  0.00    -0.235 C  
HETATM   12  O   UNL     1     -11.921  12.465  69.245  1.00  0.00    -0.298 OA 
HETATM   13  O   UNL     1      -9.947  12.454  68.157  1.00  0.00    -0.204 OA 
ENDBRANCH   9  10
ENDBRANCH   8   9
ENDBRANCH   7   8
ENDBRANCH   6   7
ENDBRANCH   5   6
ENDBRANCH   4   5
TORSDOF 6
ENDMDL
MODEL      162
REMARK 921   NORMALIZED FREE ENERGY PREDICTED BY IDOCK:   -3.05 KCAL/MOL
REMARK 922        TOTAL FREE ENERGY PREDICTED BY IDOCK:   -4.47 KCAL/MOL
REMARK 923 INTER-LIGAND FREE ENERGY PREDICTED BY IDOCK:   -4.15 KCAL/MOL
REMARK 924 INTRA-LIGAND FREE ENERGY PREDICTED BY IDOCK:   -0.32 KCAL/MOL
REMARK 927      BINDING AFFINITY PREDICTED BY RF-SCORE:    0.00 PKD
ROOT
HETATM    1  O   UNL     1      -5.553  16.842  67.567  1.00  0.00    -0.120 OA 
HETATM    2  C   UNL     1      -6.465  15.868  67.336  1.00  0.00    -0.175 C  
HETATM    3  O   UNL     1      -6.192  14.684  67.443  1.00  0.00    -0.332 OA 
HETATM    4  C   UNL     1      -7.815  16.427  66.944  1.00  0.00    -0.273 C  
ENDROOT
BRANCH   4   5
HETATM    5  C   UNL     1      -8.829  15.312  66.688  1.00  0.00    -0.328 C  
BRANCH   5   6
HETATM    6  C   UNL     1      -9.843  15.694  65.609  1.00  0.00    -0.369 C  
BRANCH   6   7
HETATM    7  C   UNL     1     -11.267  15.384  66.077  1.00  0.00    -0.168 C  
BRANCH   7   8
HETATM    8  C   UNL     1     -12.028  14.524  65.068  1.00  0.00    -0.399 C  
BRANCH   8   9
HETATM    9  C   UNL     1     -12.242  13.108  65.609  1.00  0.00    -0.521 C  
BRANCH   9  10
HETATM   10  C   UNL     1     -11.127  12.161  65.171  1.00  0.00    -0.369 C  
HETATM   11  C   UNL     1     -11.393  11.572  63.804  1.00  0.00    -0.329 C  
HETATM   12  O   UNL     1     -10.408  10.732  63.409  1.00  0.00    -0.299 OA 
HETATM   13  O   UNL     1     -12.369  11.804  63.111  1.00  0.00    -0.465 OA 
ENDBRANCH   9  10
ENDBRANCH   8   9
ENDBRANCH   7   8
ENDBRANCH   6   7
ENDBRANCH   5   6
ENDBRANCH   4   5
TORSDOF 6
ENDMDL
MODEL      163
REMARK 921   NORMALIZED FREE ENERGY PREDICTED BY IDOCK:   -3.05 KCAL/MOL
REMARK 922        TOTAL FREE ENERGY PREDICTED BY IDOCK:   -4.47 KCAL/MOL
REMARK 923 INTER-LIGAND FREE ENERGY PREDICTED BY IDOCK:   -4.04 KCAL/MOL
REMARK 924 INTRA-LIGAND FREE ENERGY PREDICTED BY IDOCK:   -0.43 KCAL/MOL
REMARK 927      BINDING AFFINITY PREDICTED BY RF-SCORE:    0.00 PKD
ROOT
HETATM    1  O   UNL     1      -8.443  11.700  68.065  1.00  0.00    -0.137 OA 
HETATM    2  C   UNL     1      -8.551  13.039  67.903  1.00  0.00    -0.189 C  
HETATM    3  O   UNL     1      -8.041  13.831  68.677  1.00  0.00    -0.140 OA 
HETATM    4  C   UNL     1      -9.359  13.405  66.676  1.00  0.00    -0.248 C  
ENDROOT
BRANCH   4   5
HETATM    5  C   UNL     1      -9.469  14.920  66.511  1.00  0.00    -0.307 C  
BRANCH   5   6
HETATM    6  C   UNL     1     -10.912  15.409  66.647  1.00  0.00    -0.275 C  
BRANCH   6   7
HETATM    7  C   UNL     1     -11.309  15.508  68.122  1.00  0.00    -0.348 C  
BRANCH   7   8
HETATM    8  C   UNL     1     -12.143  14.309  68.573  1.00  0.00    -0.295 C  
BRANCH   8   9
HETATM    9  C   UNL     1     -12.051  14.119  70.089  1.00  0.00    -0.411 C  
BRANCH   9  10
HETATM   10  C   UNL     1     -11.803  15.443  70.810  1.00  0.00    -0.394 C  
HETATM   11  C   UNL     1     -12.214  15.378  72.264  1.00  0.00    -0.391 C  
HETATM   12  O   UNL     1     -11.997  16.548  72.909  1.00  0.00    -0.536 OA 
HETATM   13  O   UNL     1     -12.689  14.404  72.823  1.00  0.00    -0.371 OA 
ENDBRANCH   9  10
ENDBRANCH   8   9
ENDBRANCH   7   8
ENDBRANCH   6   7
ENDBRANCH   5   6
ENDBRANCH   4   5
TORSDOF 6
ENDMDL
MODEL      164
REMARK 921   NORMALIZED FREE ENERGY PREDICTED BY IDOCK:   -3.05 KCAL/MOL
REMARK 922        TOTAL FREE ENERGY PREDICTED BY IDOCK:   -4.47 KCAL/MOL
REMARK 923 INTER-LIGAND FREE ENERGY PREDICTED BY IDOCK:   -4.23 KCAL/MOL
REMARK 924 INTRA-LIGAND FREE ENERGY PREDICTED BY IDOCK:   -0.23 KCAL/MOL
REMARK 927      BINDING AFFINITY PREDICTED BY RF-SCORE:    0.00 PKD
ROOT
HETATM    1  O   UNL     1     -13.877  15.945  72.995  1.00  0.00    -0.592 OA 
HETATM    2  C   UNL     1     -13.651  14.800  72.309  1.00  0.00    -0.429 C  
HETATM    3  O   UNL     1     -14.239  13.762  72.564  1.00  0.00    -0.706 OA 
HETATM    4  C   UNL     1     -12.611  14.977  71.223  1.00  0.00    -0.409 C  
ENDROOT
BRANCH   4   5
HETATM    5  C   UNL     1     -12.371  13.674  70.462  1.00  0.00    -0.425 C  
BRANCH   5   6
HETATM    6  C   UNL     1     -11.614  13.904  69.153  1.00  0.00    -0.359 C  
BRANCH   6   7
HETATM    7  C   UNL     1     -11.167  12.571  68.549  1.00  0.00    -0.322 C  
BRANCH   7   8
HETATM    8  C   UNL     1     -10.139  12.762  67.433  1.00  0.00    -0.219 C  
BRANCH   8   9
HETATM    9  C   UNL     1      -8.770  12.223  67.854  1.00  0.00    -0.177 C  
BRANCH   9  10
HETATM   10  C   UNL     1      -7.795  13.352  68.181  1.00  0.00    -0.145 C  
HETATM   11  C   UNL     1      -6.411  13.075  67.638  1.00  0.00    -0.161 C  
HETATM   12  O   UNL     1      -5.541  14.072  67.923  1.00  0.00    -0.141 OA 
HETATM   13  O   UNL     1      -6.081  12.082  67.012  1.00  0.00    -0.149 OA 
ENDBRANCH   9  10
ENDBRANCH   8   9
ENDBRANCH   7   8
ENDBRANCH   6   7
ENDBRANCH   5   6
ENDBRANCH   4   5
TORSDOF 6
ENDMDL
MODEL      165
REMARK 921   NORMALIZED FREE ENERGY PREDICTED BY IDOCK:   -3.04 KCAL/MOL
REMARK 922        TOTAL FREE ENERGY PREDICTED BY IDOCK:   -4.46 KCAL/MOL
REMARK 923 INTER-LIGAND FREE ENERGY PREDICTED BY IDOCK:   -4.11 KCAL/MOL
REMARK 924 INTRA-LIGAND FREE ENERGY PREDICTED BY IDOCK:   -0.35 KCAL/MOL
REMARK 927      BINDING AFFINITY PREDICTED BY RF-SCORE:    0.00 PKD
ROOT
HETATM    1  O   UNL     1      -7.102  16.533  68.991  1.00  0.00    -0.189 OA 
HETATM    2  C   UNL     1      -8.239  16.255  68.310  1.00  0.00    -0.173 C  
HETATM    3  O   UNL     1      -8.243  15.558  67.309  1.00  0.00    -0.165 OA 
HETATM    4  C   UNL     1      -9.455  16.901  68.937  1.00  0.00    -0.241 C  
ENDROOT
BRANCH   4   5
HETATM    5  C   UNL     1     -10.726  16.576  68.154  1.00  0.00    -0.343 C  
BRANCH   5   6
HETATM    6  C   UNL     1     -11.365  15.264  68.613  1.00  0.00    -0.327 C  
BRANCH   6   7
HETATM    7  C   UNL     1     -11.418  14.260  67.459  1.00  0.00    -0.368 C  
BRANCH   7   8
HETATM    8  C   UNL     1     -11.072  12.842  67.916  1.00  0.00    -0.281 C  
BRANCH   8   9
HETATM    9  C   UNL     1     -11.222  11.845  66.764  1.00  0.00    -0.384 C  
BRANCH   9  10
HETATM   10  C   UNL     1     -11.904  12.479  65.554  1.00  0.00    -0.491 C  
HETATM   11  C   UNL     1     -11.401  11.894  64.253  1.00  0.00    -0.353 C  
HETATM   12  O   UNL     1     -12.001  12.451  63.176  1.00  0.00    -0.424 OA 
HETATM   13  O   UNL     1     -10.556  11.021  64.149  1.00  0.00    -0.371 OA 
ENDBRANCH   9  10
ENDBRANCH   8   9
ENDBRANCH   7   8
ENDBRANCH   6   7
ENDBRANCH   5   6
ENDBRANCH   4   5
TORSDOF 6
ENDMDL
MODEL      166
REMARK 921   NORMALIZED FREE ENERGY PREDICTED BY IDOCK:   -3.04 KCAL/MOL
REMARK 922        TOTAL FREE ENERGY PREDICTED BY IDOCK:   -4.46 KCAL/MOL
REMARK 923 INTER-LIGAND FREE ENERGY PREDICTED BY IDOCK:   -3.94 KCAL/MOL
REMARK 924 INTRA-LIGAND FREE ENERGY PREDICTED BY IDOCK:   -0.52 KCAL/MOL
REMARK 927      BINDING AFFINITY PREDICTED BY RF-SCORE:    0.00 PKD
ROOT
HETATM    1  O   UNL     1      -9.946   4.226  71.927  1.00  0.00    -0.174 OA 
HETATM    2  C   UNL     1     -10.866   5.109  72.384  1.00  0.00    -0.203 C  
HETATM    3  O   UNL     1     -11.599   4.855  73.325  1.00  0.00    -0.336 OA 
HETATM    4  C   UNL     1     -10.860   6.402  71.598  1.00  0.00    -0.291 C  
ENDROOT
BRANCH   4   5
HETATM    5  C   UNL     1     -11.905   7.383  72.128  1.00  0.00    -0.323 C  
BRANCH   5   6
HETATM    6  C   UNL     1     -11.448   8.837  71.996  1.00  0.00    -0.441 C  
BRANCH   6   7
HETATM    7  C   UNL     1     -12.616   9.731  71.576  1.00  0.00    -0.493 C  
BRANCH   7   8
HETATM    8  C   UNL     1     -12.210  10.737  70.498  1.00  0.00    -0.457 C  
BRANCH   8   9
HETATM    9  C   UNL     1     -10.823  10.410  69.941  1.00  0.00    -0.353 C  
BRANCH   9  10
HETATM   10  C   UNL     1     -10.814  10.407  68.414  1.00  0.00    -0.289 C  
HETATM   11  C   UNL     1     -10.588   9.019  67.855  1.00  0.00    -0.196 C  
HETATM   12  O   UNL     1     -10.579   9.009  66.502  1.00  0.00    -0.178 OA 
HETATM   13  O   UNL     1     -10.427   8.008  68.516  1.00  0.00    -0.206 OA 
ENDBRANCH   9  10
ENDBRANCH   8   9
ENDBRANCH   7   8
ENDBRANCH   6   7
ENDBRANCH   5   6
ENDBRANCH   4   5
TORSDOF 6
ENDMDL
MODEL      167
REMARK 921   NORMALIZED FREE ENERGY PREDICTED BY IDOCK:   -3.03 KCAL/MOL
REMARK 922        TOTAL FREE ENERGY PREDICTED BY IDOCK:   -4.45 KCAL/MOL
REMARK 923 INTER-LIGAND FREE ENERGY PREDICTED BY IDOCK:   -3.89 KCAL/MOL
REMARK 924 INTRA-LIGAND FREE ENERGY PREDICTED BY IDOCK:   -0.56 KCAL/MOL
REMARK 927      BINDING AFFINITY PREDICTED BY RF-SCORE:    0.00 PKD
ROOT
HETATM    1  O   UNL     1      -8.081   8.974  72.317  1.00  0.00    -0.355 OA 
HETATM    2  C   UNL     1      -9.023   8.956  71.345  1.00  0.00    -0.229 C  
HETATM    3  O   UNL     1      -8.759   9.198  70.179  1.00  0.00    -0.145 OA 
HETATM    4  C   UNL     1     -10.394   8.606  71.881  1.00  0.00    -0.405 C  
ENDROOT
BRANCH   4   5
HETATM    5  C   UNL     1     -11.443   8.591  70.769  1.00  0.00    -0.281 C  
BRANCH   5   6
HETATM    6  C   UNL     1     -12.548   9.620  71.007  1.00  0.00    -0.367 C  
BRANCH   6   7
HETATM    7  C   UNL     1     -12.022  11.038  70.777  1.00  0.00    -0.436 C  
BRANCH   7   8
HETATM    8  C   UNL     1     -12.271  11.518  69.346  1.00  0.00    -0.273 C  
BRANCH   8   9
HETATM    9  C   UNL     1     -10.964  11.564  68.550  1.00  0.00    -0.268 C  
BRANCH   9  10
HETATM   10  C   UNL     1     -11.063  10.760  67.256  1.00  0.00    -0.339 C  
HETATM   11  C   UNL     1     -10.524  11.531  66.071  1.00  0.00    -0.252 C  
HETATM   12  O   UNL     1     -10.609  10.823  64.920  1.00  0.00    -0.292 OA 
HETATM   13  O   UNL     1     -10.062  12.658  66.111  1.00  0.00    -0.247 OA 
ENDBRANCH   9  10
ENDBRANCH   8   9
ENDBRANCH   7   8
ENDBRANCH   6   7
ENDBRANCH   5   6
ENDBRANCH   4   5
TORSDOF 6
ENDMDL
MODEL      168
REMARK 921   NORMALIZED FREE ENERGY PREDICTED BY IDOCK:   -3.03 KCAL/MOL
REMARK 922        TOTAL FREE ENERGY PREDICTED BY IDOCK:   -4.44 KCAL/MOL
REMARK 923 INTER-LIGAND FREE ENERGY PREDICTED BY IDOCK:   -4.05 KCAL/MOL
REMARK 924 INTRA-LIGAND FREE ENERGY PREDICTED BY IDOCK:   -0.40 KCAL/MOL
REMARK 927      BINDING AFFINITY PREDICTED BY RF-SCORE:    0.00 PKD
ROOT
HETATM    1  O   UNL     1     -12.634  14.046  65.430  1.00  0.00    -0.483 OA 
HETATM    2  C   UNL     1     -12.118  12.855  65.817  1.00  0.00    -0.457 C  
HETATM    3  O   UNL     1     -11.654  12.058  65.019  1.00  0.00    -0.318 OA 
HETATM    4  C   UNL     1     -12.192  12.658  67.315  1.00  0.00     0.026 C  
ENDROOT
BRANCH   4   5
HETATM    5  C   UNL     1     -11.606  11.310  67.731  1.00  0.00    -0.307 C  
BRANCH   5   6
HETATM    6  C   UNL     1     -10.595  11.449  68.871  1.00  0.00    -0.234 C  
BRANCH   6   7
HETATM    7  C   UNL     1      -9.844  10.133  69.086  1.00  0.00    -0.225 C  
BRANCH   7   8
HETATM    8  C   UNL     1     -10.716   9.081  69.773  1.00  0.00    -0.233 C  
BRANCH   8   9
HETATM    9  C   UNL     1     -11.112   9.534  71.180  1.00  0.00    -0.450 C  
BRANCH   9  10
HETATM   10  C   UNL     1     -12.624   9.482  71.386  1.00  0.00    -0.447 C  
HETATM   11  C   UNL     1     -13.063   8.177  72.012  1.00  0.00    -0.293 C  
HETATM   12  O   UNL     1     -14.403   8.124  72.197  1.00  0.00    -0.397 OA 
HETATM   13  O   UNL     1     -12.325   7.259  72.326  1.00  0.00    -0.227 OA 
ENDBRANCH   9  10
ENDBRANCH   8   9
ENDBRANCH   7   8
ENDBRANCH   6   7
ENDBRANCH   5   6
ENDBRANCH   4   5
TORSDOF 6
ENDMDL
MODEL      169
REMARK 921   NORMALIZED FREE ENERGY PREDICTED BY IDOCK:   -3.02 KCAL/MOL
REMARK 922        TOTAL FREE ENERGY PREDICTED BY IDOCK:   -4.43 KCAL/MOL
REMARK 923 INTER-LIGAND FREE ENERGY PREDICTED BY IDOCK:   -3.94 KCAL/MOL
REMARK 924 INTRA-LIGAND FREE ENERGY PREDICTED BY IDOCK:   -0.49 KCAL/MOL
REMARK 927      BINDING AFFINITY PREDICTED BY RF-SCORE:    0.00 PKD
ROOT
HETATM    1  O   UNL     1      -6.450  10.178  64.948  1.00  0.00    -0.119 OA 
HETATM    2  C   UNL     1      -7.413   9.923  65.865  1.00  0.00    -0.108 C  
HETATM    3  O   UNL     1      -7.290   9.054  66.712  1.00  0.00    -0.085 OA 
HETATM    4  C   UNL     1      -8.614  10.829  65.702  1.00  0.00    -0.185 C  
ENDROOT
BRANCH   4   5
HETATM    5  C   UNL     1      -9.688  10.525  66.745  1.00  0.00    -0.220 C  
BRANCH   5   6
HETATM    6  C   UNL     1     -10.156  11.786  67.473  1.00  0.00    -0.207 C  
BRANCH   6   7
HETATM    7  C   UNL     1      -9.331  12.998  67.034  1.00  0.00    -0.236 C  
BRANCH   7   8
HETATM    8  C   UNL     1     -10.138  14.295  67.094  1.00  0.00    -0.254 C  
BRANCH   8   9
HETATM    9  C   UNL     1     -10.305  14.899  65.697  1.00  0.00    -0.370 C  
BRANCH   9  10
HETATM   10  C   UNL     1     -10.759  13.854  64.681  1.00  0.00    -0.422 C  
HETATM   11  C   UNL     1     -12.254  13.632  64.731  1.00  0.00    -0.403 C  
HETATM   12  O   UNL     1     -12.663  12.706  63.832  1.00  0.00    -0.677 OA 
HETATM   13  O   UNL     1     -13.029  14.201  65.480  1.00  0.00    -0.657 OA 
ENDBRANCH   9  10
ENDBRANCH   8   9
ENDBRANCH   7   8
ENDBRANCH   6   7
ENDBRANCH   5   6
ENDBRANCH   4   5
TORSDOF 6
ENDMDL
MODEL      170
REMARK 921   NORMALIZED FREE ENERGY PREDICTED BY IDOCK:   -3.02 KCAL/MOL
REMARK 922        TOTAL FREE ENERGY PREDICTED BY IDOCK:   -4.43 KCAL/MOL
REMARK 923 INTER-LIGAND FREE ENERGY PREDICTED BY IDOCK:   -4.21 KCAL/MOL
REMARK 924 INTRA-LIGAND FREE ENERGY PREDICTED BY IDOCK:   -0.23 KCAL/MOL
REMARK 927      BINDING AFFINITY PREDICTED BY RF-SCORE:    0.00 PKD
ROOT
HETATM    1  O   UNL     1     -11.196   5.835  71.862  1.00  0.00    -0.264 OA 
HETATM    2  C   UNL     1     -10.964   7.143  72.126  1.00  0.00    -0.241 C  
HETATM    3  O   UNL     1     -10.304   7.505  73.085  1.00  0.00    -0.280 OA 
HETATM    4  C   UNL     1     -11.609   8.056  71.107  1.00  0.00    -0.307 C  
ENDROOT
BRANCH   4   5
HETATM    5  C   UNL     1     -11.337   9.526  71.422  1.00  0.00    -0.462 C  
BRANCH   5   6
HETATM    6  C   UNL     1     -10.999  10.331  70.166  1.00  0.00    -0.377 C  
BRANCH   6   7
HETATM    7  C   UNL     1     -11.914  11.552  70.048  1.00  0.00    -0.435 C  
BRANCH   7   8
HETATM    8  C   UNL     1     -11.891  12.153  68.642  1.00  0.00    -0.358 C  
BRANCH   8   9
HETATM    9  C   UNL     1     -11.909  13.682  68.701  1.00  0.00    -0.409 C  
BRANCH   9  10
HETATM   10  C   UNL     1     -10.506  14.269  68.563  1.00  0.00    -0.253 C  
HETATM   11  C   UNL     1     -10.276  15.411  69.527  1.00  0.00    -0.270 C  
HETATM   12  O   UNL     1      -9.034  15.937  69.410  1.00  0.00    -0.248 OA 
HETATM   13  O   UNL     1     -11.090  15.836  70.329  1.00  0.00    -0.301 OA 
ENDBRANCH   9  10
ENDBRANCH   8   9
ENDBRANCH   7   8
ENDBRANCH   6   7
ENDBRANCH   5   6
ENDBRANCH   4   5
TORSDOF 6
ENDMDL
MODEL      171
REMARK 921   NORMALIZED FREE ENERGY PREDICTED BY IDOCK:   -3.01 KCAL/MOL
REMARK 922        TOTAL FREE ENERGY PREDICTED BY IDOCK:   -4.42 KCAL/MOL
REMARK 923 INTER-LIGAND FREE ENERGY PREDICTED BY IDOCK:   -4.01 KCAL/MOL
REMARK 924 INTRA-LIGAND FREE ENERGY PREDICTED BY IDOCK:   -0.41 KCAL/MOL
REMARK 927      BINDING AFFINITY PREDICTED BY RF-SCORE:    0.00 PKD
ROOT
HETATM    1  O   UNL     1     -11.659   6.242  69.886  1.00  0.00    -0.435 OA 
HETATM    2  C   UNL     1     -11.602   7.396  70.592  1.00  0.00    -0.268 C  
HETATM    3  O   UNL     1     -12.191   7.540  71.650  1.00  0.00    -0.296 OA 
HETATM    4  C   UNL     1     -10.741   8.440  69.916  1.00  0.00    -0.227 C  
ENDROOT
BRANCH   4   5
HETATM    5  C   UNL     1     -10.690   9.734  70.728  1.00  0.00    -0.393 C  
BRANCH   5   6
HETATM    6  C   UNL     1     -11.818  10.695  70.349  1.00  0.00    -0.441 C  
BRANCH   6   7
HETATM    7  C   UNL     1     -11.680  11.139  68.891  1.00  0.00    -0.406 C  
BRANCH   7   8
HETATM    8  C   UNL     1     -10.379  11.904  68.645  1.00  0.00    -0.218 C  
BRANCH   8   9
HETATM    9  C   UNL     1     -10.198  12.208  67.156  1.00  0.00    -0.226 C  
BRANCH   9  10
HETATM   10  C   UNL     1      -9.446  11.090  66.438  1.00  0.00    -0.218 C  
HETATM   11  C   UNL     1      -9.992  10.844  65.049  1.00  0.00    -0.298 C  
HETATM   12  O   UNL     1      -9.330   9.854  64.407  1.00  0.00    -0.262 OA 
HETATM   13  O   UNL     1     -10.919  11.448  64.536  1.00  0.00    -0.326 OA 
ENDBRANCH   9  10
ENDBRANCH   8   9
ENDBRANCH   7   8
ENDBRANCH   6   7
ENDBRANCH   5   6
ENDBRANCH   4   5
TORSDOF 6
ENDMDL
MODEL      172
REMARK 921   NORMALIZED FREE ENERGY PREDICTED BY IDOCK:   -3.01 KCAL/MOL
REMARK 922        TOTAL FREE ENERGY PREDICTED BY IDOCK:   -4.42 KCAL/MOL
REMARK 923 INTER-LIGAND FREE ENERGY PREDICTED BY IDOCK:   -4.14 KCAL/MOL
REMARK 924 INTRA-LIGAND FREE ENERGY PREDICTED BY IDOCK:   -0.28 KCAL/MOL
REMARK 927      BINDING AFFINITY PREDICTED BY RF-SCORE:    0.00 PKD
ROOT
HETATM    1  O   UNL     1     -10.783   4.894  74.566  1.00  0.00    -0.360 OA 
HETATM    2  C   UNL     1     -10.633   5.916  73.690  1.00  0.00    -0.272 C  
HETATM    3  O   UNL     1     -10.031   6.936  73.979  1.00  0.00    -0.285 OA 
HETATM    4  C   UNL     1     -11.287   5.628  72.356  1.00  0.00    -0.327 C  
ENDROOT
BRANCH   4   5
HETATM    5  C   UNL     1     -11.107   6.792  71.383  1.00  0.00    -0.293 C  
BRANCH   5   6
HETATM    6  C   UNL     1     -11.980   7.992  71.753  1.00  0.00    -0.342 C  
BRANCH   6   7
HETATM    7  C   UNL     1     -11.304   9.299  71.334  1.00  0.00    -0.434 C  
BRANCH   7   8
HETATM    8  C   UNL     1      -9.944   9.057  70.678  1.00  0.00    -0.287 C  
BRANCH   8   9
HETATM    9  C   UNL     1      -9.669  10.098  69.590  1.00  0.00    -0.250 C  
BRANCH   9  10
HETATM   10  C   UNL     1     -10.932  10.438  68.802  1.00  0.00    -0.287 C  
HETATM   11  C   UNL     1     -10.834  11.794  68.139  1.00  0.00    -0.217 C  
HETATM   12  O   UNL     1     -11.951  12.102  67.439  1.00  0.00    -0.563 OA 
HETATM   13  O   UNL     1      -9.879  12.547  68.206  1.00  0.00    -0.222 OA 
ENDBRANCH   9  10
ENDBRANCH   8   9
ENDBRANCH   7   8
ENDBRANCH   6   7
ENDBRANCH   5   6
ENDBRANCH   4   5
TORSDOF 6
ENDMDL
MODEL      173
REMARK 921   NORMALIZED FREE ENERGY PREDICTED BY IDOCK:   -3.01 KCAL/MOL
REMARK 922        TOTAL FREE ENERGY PREDICTED BY IDOCK:   -4.42 KCAL/MOL
REMARK 923 INTER-LIGAND FREE ENERGY PREDICTED BY IDOCK:   -4.05 KCAL/MOL
REMARK 924 INTRA-LIGAND FREE ENERGY PREDICTED BY IDOCK:   -0.37 KCAL/MOL
REMARK 927      BINDING AFFINITY PREDICTED BY RF-SCORE:    0.00 PKD
ROOT
HETATM    1  O   UNL     1     -11.448   5.651  72.215  1.00  0.00    -0.274 OA 
HETATM    2  C   UNL     1     -11.434   6.968  72.530  1.00  0.00    -0.237 C  
HETATM    3  O   UNL     1     -10.678   7.427  73.370  1.00  0.00    -0.379 OA 
HETATM    4  C   UNL     1     -12.443   7.760  71.728  1.00  0.00    -0.348 C  
ENDROOT
BRANCH   4   5
HETATM    5  C   UNL     1     -12.411   9.242  72.099  1.00  0.00    -0.398 C  
BRANCH   5   6
HETATM    6  C   UNL     1     -11.514  10.051  71.160  1.00  0.00    -0.432 C  
BRANCH   6   7
HETATM    7  C   UNL     1     -12.172  11.387  70.807  1.00  0.00    -0.475 C  
BRANCH   7   8
HETATM    8  C   UNL     1     -12.171  11.646  69.300  1.00  0.00    -0.228 C  
BRANCH   8   9
HETATM    9  C   UNL     1     -11.212  10.694  68.582  1.00  0.00    -0.337 C  
BRANCH   9  10
HETATM   10  C   UNL     1     -11.114  11.009  67.091  1.00  0.00    -0.333 C  
HETATM   11  C   UNL     1      -9.961  11.940  66.786  1.00  0.00    -0.195 C  
HETATM   12  O   UNL     1      -9.868  12.223  65.466  1.00  0.00    -0.243 OA 
HETATM   13  O   UNL     1      -9.187  12.400  67.608  1.00  0.00    -0.173 OA 
ENDBRANCH   9  10
ENDBRANCH   8   9
ENDBRANCH   7   8
ENDBRANCH   6   7
ENDBRANCH   5   6
ENDBRANCH   4   5
TORSDOF 6
ENDMDL
MODEL      174
REMARK 921   NORMALIZED FREE ENERGY PREDICTED BY IDOCK:   -3.00 KCAL/MOL
REMARK 922        TOTAL FREE ENERGY PREDICTED BY IDOCK:   -4.41 KCAL/MOL
REMARK 923 INTER-LIGAND FREE ENERGY PREDICTED BY IDOCK:   -3.93 KCAL/MOL
REMARK 924 INTRA-LIGAND FREE ENERGY PREDICTED BY IDOCK:   -0.47 KCAL/MOL
REMARK 927      BINDING AFFINITY PREDICTED BY RF-SCORE:    0.00 PKD
ROOT
HETATM    1  O   UNL     1      -6.375  14.286  68.473  1.00  0.00    -0.081 OA 
HETATM    2  C   UNL     1      -6.883  13.279  67.724  1.00  0.00    -0.153 C  
HETATM    3  O   UNL     1      -6.196  12.636  66.947  1.00  0.00    -0.203 OA 
HETATM    4  C   UNL     1      -8.361  13.067  67.973  1.00  0.00    -0.169 C  
ENDROOT
BRANCH   4   5
HETATM    5  C   UNL     1      -8.914  11.928  67.118  1.00  0.00    -0.178 C  
BRANCH   5   6
HETATM    6  C   UNL     1     -10.378  11.624  67.443  1.00  0.00    -0.231 C  
BRANCH   6   7
HETATM    7  C   UNL     1     -11.223  11.629  66.167  1.00  0.00    -0.314 C  
BRANCH   7   8
HETATM    8  C   UNL     1     -11.858  12.995  65.905  1.00  0.00    -0.468 C  
BRANCH   8   9
HETATM    9  C   UNL     1     -11.118  13.735  64.788  1.00  0.00    -0.380 C  
BRANCH   9  10
HETATM   10  C   UNL     1     -11.493  15.215  64.747  1.00  0.00    -0.383 C  
HETATM   11  C   UNL     1     -10.418  16.085  65.359  1.00  0.00    -0.392 C  
HETATM   12  O   UNL     1     -10.743  17.399  65.326  1.00  0.00    -0.646 OA 
HETATM   13  O   UNL     1      -9.369  15.685  65.836  1.00  0.00    -0.335 OA 
ENDBRANCH   9  10
ENDBRANCH   8   9
ENDBRANCH   7   8
ENDBRANCH   6   7
ENDBRANCH   5   6
ENDBRANCH   4   5
TORSDOF 6
ENDMDL
MODEL      175
REMARK 921   NORMALIZED FREE ENERGY PREDICTED BY IDOCK:   -2.98 KCAL/MOL
REMARK 922        TOTAL FREE ENERGY PREDICTED BY IDOCK:   -4.38 KCAL/MOL
REMARK 923 INTER-LIGAND FREE ENERGY PREDICTED BY IDOCK:   -3.98 KCAL/MOL
REMARK 924 INTRA-LIGAND FREE ENERGY PREDICTED BY IDOCK:   -0.40 KCAL/MOL
REMARK 927      BINDING AFFINITY PREDICTED BY RF-SCORE:    0.00 PKD
ROOT
HETATM    1  O   UNL     1     -11.623  16.517  64.055  1.00  0.00    -1.154 OA 
HETATM    2  C   UNL     1     -11.123  15.441  64.708  1.00  0.00    -0.403 C  
HETATM    3  O   UNL     1     -11.481  14.303  64.454  1.00  0.00    -0.366 OA 
HETATM    4  C   UNL     1     -10.100  15.829  65.753  1.00  0.00    -0.399 C  
ENDROOT
BRANCH   4   5
HETATM    5  C   UNL     1      -9.549  14.601  66.478  1.00  0.00    -0.308 C  
BRANCH   5   6
HETATM    6  C   UNL     1      -8.279  14.921  67.267  1.00  0.00    -0.234 C  
BRANCH   6   7
HETATM    7  C   UNL     1      -7.876  13.732  68.143  1.00  0.00    -0.149 C  
BRANCH   7   8
HETATM    8  C   UNL     1      -7.487  12.511  67.309  1.00  0.00    -0.125 C  
BRANCH   8   9
HETATM    9  C   UNL     1      -7.629  11.224  68.126  1.00  0.00    -0.105 C  
BRANCH   9  10
HETATM   10  C   UNL     1      -9.070  11.000  68.581  1.00  0.00    -0.174 C  
HETATM   11  C   UNL     1      -9.831  10.111  67.623  1.00  0.00    -0.172 C  
HETATM   12  O   UNL     1     -11.109   9.908  68.020  1.00  0.00    -0.249 OA 
HETATM   13  O   UNL     1      -9.379   9.618  66.603  1.00  0.00    -0.146 OA 
ENDBRANCH   9  10
ENDBRANCH   8   9
ENDBRANCH   7   8
ENDBRANCH   6   7
ENDBRANCH   5   6
ENDBRANCH   4   5
TORSDOF 6
ENDMDL
MODEL      176
REMARK 921   NORMALIZED FREE ENERGY PREDICTED BY IDOCK:   -2.98 KCAL/MOL
REMARK 922        TOTAL FREE ENERGY PREDICTED BY IDOCK:   -4.38 KCAL/MOL
REMARK 923 INTER-LIGAND FREE ENERGY PREDICTED BY IDOCK:   -4.13 KCAL/MOL
REMARK 924 INTRA-LIGAND FREE ENERGY PREDICTED BY IDOCK:   -0.25 KCAL/MOL
REMARK 927      BINDING AFFINITY PREDICTED BY RF-SCORE:    0.00 PKD
ROOT
HETATM    1  O   UNL     1     -10.269   4.890  73.653  1.00  0.00    -0.161 OA 
HETATM    2  C   UNL     1     -11.003   5.313  72.597  1.00  0.00    -0.260 C  
HETATM    3  O   UNL     1     -12.180   5.617  72.703  1.00  0.00    -0.163 OA 
HETATM    4  C   UNL     1     -10.196   5.355  71.318  1.00  0.00    -0.287 C  
ENDROOT
BRANCH   4   5
HETATM    5  C   UNL     1     -11.042   5.834  70.139  1.00  0.00    -0.323 C  
BRANCH   5   6
HETATM    6  C   UNL     1     -11.263   7.347  70.165  1.00  0.00    -0.239 C  
BRANCH   6   7
HETATM    7  C   UNL     1     -10.021   8.062  70.700  1.00  0.00    -0.198 C  
BRANCH   7   8
HETATM    8  C   UNL     1     -10.232   9.573  70.812  1.00  0.00    -0.363 C  
BRANCH   8   9
HETATM    9  C   UNL     1     -11.527   9.996  70.116  1.00  0.00    -0.344 C  
BRANCH   9  10
HETATM   10  C   UNL     1     -12.086  11.291  70.702  1.00  0.00    -0.480 C  
HETATM   11  C   UNL     1     -13.117  11.024  71.775  1.00  0.00    -0.449 C  
HETATM   12  O   UNL     1     -13.617  12.167  72.299  1.00  0.00    -0.432 OA 
HETATM   13  O   UNL     1     -13.481   9.922  72.150  1.00  0.00    -0.429 OA 
ENDBRANCH   9  10
ENDBRANCH   8   9
ENDBRANCH   7   8
ENDBRANCH   6   7
ENDBRANCH   5   6
ENDBRANCH   4   5
TORSDOF 6
ENDMDL
MODEL      177
REMARK 921   NORMALIZED FREE ENERGY PREDICTED BY IDOCK:   -2.97 KCAL/MOL
REMARK 922        TOTAL FREE ENERGY PREDICTED BY IDOCK:   -4.36 KCAL/MOL
REMARK 923 INTER-LIGAND FREE ENERGY PREDICTED BY IDOCK:   -3.96 KCAL/MOL
REMARK 924 INTRA-LIGAND FREE ENERGY PREDICTED BY IDOCK:   -0.40 KCAL/MOL
REMARK 927      BINDING AFFINITY PREDICTED BY RF-SCORE:    0.00 PKD
ROOT
HETATM    1  O   UNL     1      -8.648   8.839  68.325  1.00  0.00    -0.132 OA 
HETATM    2  C   UNL     1      -9.516   9.674  68.943  1.00  0.00    -0.157 C  
HETATM    3  O   UNL     1     -10.240   9.303  69.852  1.00  0.00    -0.192 OA 
HETATM    4  C   UNL     1      -9.466  11.076  68.375  1.00  0.00    -0.182 C  
ENDROOT
BRANCH   4   5
HETATM    5  C   UNL     1     -10.453  12.002  69.084  1.00  0.00    -0.005 C  
BRANCH   5   6
HETATM    6  C   UNL     1     -11.811  12.044  68.380  1.00  0.00    -0.360 C  
BRANCH   6   7
HETATM    7  C   UNL     1     -11.635  12.346  66.891  1.00  0.00    -0.437 C  
BRANCH   7   8
HETATM    8  C   UNL     1     -12.072  13.768  66.538  1.00  0.00    -0.483 C  
BRANCH   8   9
HETATM    9  C   UNL     1     -11.334  14.274  65.296  1.00  0.00    -0.336 C  
BRANCH   9  10
HETATM   10  C   UNL     1     -10.457  13.187  64.678  1.00  0.00    -0.411 C  
HETATM   11  C   UNL     1     -11.136  12.512  63.508  1.00  0.00    -0.439 C  
HETATM   12  O   UNL     1     -10.364  11.547  62.956  1.00  0.00    -0.322 OA 
HETATM   13  O   UNL     1     -12.248  12.779  63.084  1.00  0.00    -0.505 OA 
ENDBRANCH   9  10
ENDBRANCH   8   9
ENDBRANCH   7   8
ENDBRANCH   6   7
ENDBRANCH   5   6
ENDBRANCH   4   5
TORSDOF 6
ENDMDL
MODEL      178
REMARK 921   NORMALIZED FREE ENERGY PREDICTED BY IDOCK:   -2.97 KCAL/MOL
REMARK 922        TOTAL FREE ENERGY PREDICTED BY IDOCK:   -4.36 KCAL/MOL
REMARK 923 INTER-LIGAND FREE ENERGY PREDICTED BY IDOCK:   -3.99 KCAL/MOL
REMARK 924 INTRA-LIGAND FREE ENERGY PREDICTED BY IDOCK:   -0.37 KCAL/MOL
REMARK 927      BINDING AFFINITY PREDICTED BY RF-SCORE:    0.00 PKD
ROOT
HETATM    1  O   UNL     1     -12.282  12.897  67.223  1.00  0.00    -0.353 OA 
HETATM    2  C   UNL     1     -11.571  12.276  66.253  1.00  0.00    -0.385 C  
HETATM    3  O   UNL     1     -11.587  12.653  65.093  1.00  0.00    -0.319 OA 
HETATM    4  C   UNL     1     -10.783  11.099  66.784  1.00  0.00    -0.326 C  
ENDROOT
BRANCH   4   5
HETATM    5  C   UNL     1      -9.988  10.412  65.675  1.00  0.00    -0.337 C  
BRANCH   5   6
HETATM    6  C   UNL     1      -9.587   8.986  66.053  1.00  0.00    -0.342 C  
BRANCH   6   7
HETATM    7  C   UNL     1     -10.469   8.462  67.188  1.00  0.00    -0.380 C  
BRANCH   7   8
HETATM    8  C   UNL     1     -10.636   6.943  67.132  1.00  0.00    -0.408 C  
BRANCH   8   9
HETATM    9  C   UNL     1     -11.067   6.390  68.492  1.00  0.00    -0.385 C  
BRANCH   9  10
HETATM   10  C   UNL     1     -10.681   7.330  69.632  1.00  0.00    -0.249 C  
HETATM   11  C   UNL     1     -10.013   6.591  70.770  1.00  0.00    -0.184 C  
HETATM   12  O   UNL     1      -9.668   7.418  71.784  1.00  0.00    -0.154 OA 
HETATM   13  O   UNL     1      -9.797   5.392  70.805  1.00  0.00    -0.170 OA 
ENDBRANCH   9  10
ENDBRANCH   8   9
ENDBRANCH   7   8
ENDBRANCH   6   7
ENDBRANCH   5   6
ENDBRANCH   4   5
TORSDOF 6
ENDMDL
MODEL      179
REMARK 921   NORMALIZED FREE ENERGY PREDICTED BY IDOCK:   -2.96 KCAL/MOL
REMARK 922        TOTAL FREE ENERGY PREDICTED BY IDOCK:   -4.35 KCAL/MOL
REMARK 923 INTER-LIGAND FREE ENERGY PREDICTED BY IDOCK:   -3.95 KCAL/MOL
REMARK 924 INTRA-LIGAND FREE ENERGY PREDICTED BY IDOCK:   -0.41 KCAL/MOL
REMARK 927      BINDING AFFINITY PREDICTED BY RF-SCORE:    0.00 PKD
ROOT
HETATM    1  O   UNL     1      -9.143   7.358  66.620  1.00  0.00    -0.141 OA 
HETATM    2  C   UNL     1      -9.955   6.498  67.281  1.00  0.00    -0.147 C  
HETATM    3  O   UNL     1     -10.583   5.625  66.705  1.00  0.00    -0.262 OA 
HETATM    4  C   UNL     1      -9.973   6.757  68.772  1.00  0.00    -0.149 C  
ENDROOT
BRANCH   4   5
HETATM    5  C   UNL     1     -10.894   5.778  69.498  1.00  0.00    -0.410 C  
BRANCH   5   6
HETATM    6  C   UNL     1     -11.503   6.390  70.760  1.00  0.00    -0.415 C  
BRANCH   6   7
HETATM    7  C   UNL     1     -10.754   7.664  71.156  1.00  0.00    -0.242 C  
BRANCH   7   8
HETATM    8  C   UNL     1     -11.695   8.859  71.311  1.00  0.00    -0.370 C  
BRANCH   8   9
HETATM    9  C   UNL     1     -11.083  10.119  70.695  1.00  0.00    -0.397 C  
BRANCH   9  10
HETATM   10  C   UNL     1     -11.989  10.720  69.622  1.00  0.00    -0.385 C  
HETATM   11  C   UNL     1     -11.193  11.369  68.512  1.00  0.00    -0.250 C  
HETATM   12  O   UNL     1     -11.990  11.904  67.558  1.00  0.00    -0.586 OA 
HETATM   13  O   UNL     1      -9.977  11.424  68.452  1.00  0.00    -0.190 OA 
ENDBRANCH   9  10
ENDBRANCH   8   9
ENDBRANCH   7   8
ENDBRANCH   6   7
ENDBRANCH   5   6
ENDBRANCH   4   5
TORSDOF 6
ENDMDL
MODEL      180
REMARK 921   NORMALIZED FREE ENERGY PREDICTED BY IDOCK:   -2.95 KCAL/MOL
REMARK 922        TOTAL FREE ENERGY PREDICTED BY IDOCK:   -4.34 KCAL/MOL
REMARK 923 INTER-LIGAND FREE ENERGY PREDICTED BY IDOCK:   -3.90 KCAL/MOL
REMARK 924 INTRA-LIGAND FREE ENERGY PREDICTED BY IDOCK:   -0.43 KCAL/MOL
REMARK 927      BINDING AFFINITY PREDICTED BY RF-SCORE:    0.00 PKD
ROOT
HETATM    1  O   UNL     1      -9.301  10.743  64.240  1.00  0.00    -0.215 OA 
HETATM    2  C   UNL     1     -10.301  10.908  65.138  1.00  0.00    -0.278 C  
HETATM    3  O   UNL     1     -10.736   9.982  65.803  1.00  0.00     0.004 OA 
HETATM    4  C   UNL     1     -10.783  12.340  65.204  1.00  0.00    -0.330 C  
ENDROOT
BRANCH   4   5
HETATM    5  C   UNL     1     -11.910  12.505  66.223  1.00  0.00    -0.453 C  
BRANCH   5   6
HETATM    6  C   UNL     1     -11.441  13.222  67.490  1.00  0.00    -0.361 C  
BRANCH   6   7
HETATM    7  C   UNL     1     -11.844  12.431  68.736  1.00  0.00    -0.358 C  
BRANCH   7   8
HETATM    8  C   UNL     1     -10.745  11.468  69.186  1.00  0.00    -0.210 C  
BRANCH   8   9
HETATM    9  C   UNL     1     -11.338  10.122  69.608  1.00  0.00    -0.289 C  
BRANCH   9  10
HETATM   10  C   UNL     1     -10.445   9.403  70.617  1.00  0.00    -0.354 C  
HETATM   11  C   UNL     1     -11.221   8.955  71.836  1.00  0.00    -0.377 C  
HETATM   12  O   UNL     1     -10.436   8.317  72.735  1.00  0.00    -0.333 OA 
HETATM   13  O   UNL     1     -12.413   9.131  72.020  1.00  0.00    -0.353 OA 
ENDBRANCH   9  10
ENDBRANCH   8   9
ENDBRANCH   7   8
ENDBRANCH   6   7
ENDBRANCH   5   6
ENDBRANCH   4   5
TORSDOF 6
ENDMDL
MODEL      181
REMARK 921   NORMALIZED FREE ENERGY PREDICTED BY IDOCK:   -2.95 KCAL/MOL
REMARK 922        TOTAL FREE ENERGY PREDICTED BY IDOCK:   -4.34 KCAL/MOL
REMARK 923 INTER-LIGAND FREE ENERGY PREDICTED BY IDOCK:   -3.95 KCAL/MOL
REMARK 924 INTRA-LIGAND FREE ENERGY PREDICTED BY IDOCK:   -0.39 KCAL/MOL
REMARK 927      BINDING AFFINITY PREDICTED BY RF-SCORE:    0.00 PKD
ROOT
HETATM    1  O   UNL     1     -13.653  15.563  73.014  1.00  0.00    -0.518 OA 
HETATM    2  C   UNL     1     -13.503  14.394  72.347  1.00  0.00    -0.462 C  
HETATM    3  O   UNL     1     -14.249  13.446  72.522  1.00  0.00    -0.721 OA 
HETATM    4  C   UNL     1     -12.330  14.426  71.392  1.00  0.00    -0.433 C  
ENDROOT
BRANCH   4   5
HETATM    5  C   UNL     1     -12.177  13.098  70.650  1.00  0.00    -0.402 C  
BRANCH   5   6
HETATM    6  C   UNL     1     -11.602  13.287  69.246  1.00  0.00    -0.370 C  
BRANCH   6   7
HETATM    7  C   UNL     1     -10.879  14.631  69.137  1.00  0.00    -0.269 C  
BRANCH   7   8
HETATM    8  C   UNL     1     -10.084  14.752  67.836  1.00  0.00    -0.221 C  
BRANCH   8   9
HETATM    9  C   UNL     1      -8.637  15.166  68.116  1.00  0.00    -0.158 C  
BRANCH   9  10
HETATM   10  C   UNL     1      -8.045  14.388  69.290  1.00  0.00     0.092 C  
HETATM   11  C   UNL     1      -6.864  15.108  69.902  1.00  0.00    -0.154 C  
HETATM   12  O   UNL     1      -6.333  14.424  70.943  1.00  0.00    -0.157 OA 
HETATM   13  O   UNL     1      -6.414  16.177  69.528  1.00  0.00    -0.180 OA 
ENDBRANCH   9  10
ENDBRANCH   8   9
ENDBRANCH   7   8
ENDBRANCH   6   7
ENDBRANCH   5   6
ENDBRANCH   4   5
TORSDOF 6
ENDMDL
MODEL      182
REMARK 921   NORMALIZED FREE ENERGY PREDICTED BY IDOCK:   -2.95 KCAL/MOL
REMARK 922        TOTAL FREE ENERGY PREDICTED BY IDOCK:   -4.33 KCAL/MOL
REMARK 923 INTER-LIGAND FREE ENERGY PREDICTED BY IDOCK:   -3.96 KCAL/MOL
REMARK 924 INTRA-LIGAND FREE ENERGY PREDICTED BY IDOCK:   -0.38 KCAL/MOL
REMARK 927      BINDING AFFINITY PREDICTED BY RF-SCORE:    0.00 PKD
ROOT
HETATM    1  O   UNL     1     -12.332  15.864  63.796  1.00  0.00    -0.791 OA 
HETATM    2  C   UNL     1     -12.249  14.703  64.488  1.00  0.00    -0.456 C  
HETATM    3  O   UNL     1     -12.188  14.675  65.706  1.00  0.00    -0.282 OA 
HETATM    4  C   UNL     1     -12.245  13.493  63.580  1.00  0.00    -0.410 C  
ENDROOT
BRANCH   4   5
HETATM    5  C   UNL     1     -12.151  12.194  64.380  1.00  0.00    -0.443 C  
BRANCH   5   6
HETATM    6  C   UNL     1     -10.708  11.702  64.510  1.00  0.00    -0.378 C  
BRANCH   6   7
HETATM    7  C   UNL     1     -10.202  11.893  65.941  1.00  0.00    -0.270 C  
BRANCH   7   8
HETATM    8  C   UNL     1     -10.711  10.800  66.881  1.00  0.00    -0.309 C  
BRANCH   8   9
HETATM    9  C   UNL     1      -9.683   9.675  67.019  1.00  0.00    -0.232 C  
BRANCH   9  10
HETATM   10  C   UNL     1      -9.120   9.595  68.436  1.00  0.00    -0.123 C  
HETATM   11  C   UNL     1      -7.678  10.047  68.496  1.00  0.00    -0.089 C  
HETATM   12  O   UNL     1      -7.173   9.978  69.750  1.00  0.00    -0.092 OA 
HETATM   13  O   UNL     1      -7.017  10.433  67.548  1.00  0.00    -0.082 OA 
ENDBRANCH   9  10
ENDBRANCH   8   9
ENDBRANCH   7   8
ENDBRANCH   6   7
ENDBRANCH   5   6
ENDBRANCH   4   5
TORSDOF 6
ENDMDL
MODEL      183
REMARK 921   NORMALIZED FREE ENERGY PREDICTED BY IDOCK:   -2.95 KCAL/MOL
REMARK 922        TOTAL FREE ENERGY PREDICTED BY IDOCK:   -4.33 KCAL/MOL
REMARK 923 INTER-LIGAND FREE ENERGY PREDICTED BY IDOCK:   -4.00 KCAL/MOL
REMARK 924 INTRA-LIGAND FREE ENERGY PREDICTED BY IDOCK:   -0.33 KCAL/MOL
REMARK 927      BINDING AFFINITY PREDICTED BY RF-SCORE:    0.00 PKD
ROOT
HETATM    1  O   UNL     1      -5.205  18.928  72.049  1.00  0.00    -0.734 OA 
HETATM    2  C   UNL     1      -5.798  18.811  70.837  1.00  0.00     0.065 C  
HETATM    3  O   UNL     1      -6.287  19.767  70.258  1.00  0.00    -0.298 OA 
HETATM    4  C   UNL     1      -5.770  17.390  70.319  1.00  0.00    -0.192 C  
ENDROOT
BRANCH   4   5
HETATM    5  C   UNL     1      -6.443  17.280  68.952  1.00  0.00    -0.202 C  
BRANCH   5   6
HETATM    6  C   UNL     1      -7.834  16.651  69.044  1.00  0.00    -0.215 C  
BRANCH   6   7
HETATM    7  C   UNL     1      -8.553  16.734  67.696  1.00  0.00    -0.211 C  
BRANCH   7   8
HETATM    8  C   UNL     1     -10.039  17.055  67.857  1.00  0.00    -0.306 C  
BRANCH   8   9
HETATM    9  C   UNL     1     -10.353  18.463  67.345  1.00  0.00    -0.415 C  
BRANCH   9  10
HETATM   10  C   UNL     1      -9.400  19.502  67.931  1.00  0.00    -0.411 C  
HETATM   11  C   UNL     1      -8.437  20.033  66.892  1.00  0.00    -0.328 C  
HETATM   12  O   UNL     1      -7.589  20.955  67.404  1.00  0.00    -0.345 OA 
HETATM   13  O   UNL     1      -8.401  19.693  65.721  1.00  0.00    -0.408 OA 
ENDBRANCH   9  10
ENDBRANCH   8   9
ENDBRANCH   7   8
ENDBRANCH   6   7
ENDBRANCH   5   6
ENDBRANCH   4   5
TORSDOF 6
ENDMDL
MODEL      184
REMARK 921   NORMALIZED FREE ENERGY PREDICTED BY IDOCK:   -2.93 KCAL/MOL
REMARK 922        TOTAL FREE ENERGY PREDICTED BY IDOCK:   -4.31 KCAL/MOL
REMARK 923 INTER-LIGAND FREE ENERGY PREDICTED BY IDOCK:   -3.70 KCAL/MOL
REMARK 924 INTRA-LIGAND FREE ENERGY PREDICTED BY IDOCK:   -0.60 KCAL/MOL
REMARK 927      BINDING AFFINITY PREDICTED BY RF-SCORE:    0.00 PKD
ROOT
HETATM    1  O   UNL     1      -7.580  11.621  66.976  1.00  0.00    -0.144 OA 
HETATM    2  C   UNL     1      -8.916  11.729  67.172  1.00  0.00    -0.177 C  
HETATM    3  O   UNL     1      -9.395  11.962  68.269  1.00  0.00    -0.186 OA 
HETATM    4  C   UNL     1      -9.701  11.530  65.894  1.00  0.00    -0.260 C  
ENDROOT
BRANCH   4   5
HETATM    5  C   UNL     1     -11.204  11.655  66.137  1.00  0.00    -0.314 C  
BRANCH   5   6
HETATM    6  C   UNL     1     -11.873  12.596  65.133  1.00  0.00    -0.437 C  
BRANCH   6   7
HETATM    7  C   UNL     1     -12.445  13.823  65.845  1.00  0.00    -0.512 C  
BRANCH   7   8
HETATM    8  C   UNL     1     -12.137  13.814  67.343  1.00  0.00    -0.378 C  
BRANCH   8   9
HETATM    9  C   UNL     1     -11.643  15.186  67.807  1.00  0.00    -0.303 C  
BRANCH   9  10
HETATM   10  C   UNL     1     -10.120  15.241  67.889  1.00  0.00    -0.233 C  
HETATM   11  C   UNL     1      -9.643  15.632  69.270  1.00  0.00    -0.268 C  
HETATM   12  O   UNL     1      -8.293  15.682  69.349  1.00  0.00    -0.243 OA 
HETATM   13  O   UNL     1     -10.362  15.880  70.223  1.00  0.00    -0.249 OA 
ENDBRANCH   9  10
ENDBRANCH   8   9
ENDBRANCH   7   8
ENDBRANCH   6   7
ENDBRANCH   5   6
ENDBRANCH   4   5
TORSDOF 6
ENDMDL
MODEL      185
REMARK 921   NORMALIZED FREE ENERGY PREDICTED BY IDOCK:   -2.93 KCAL/MOL
REMARK 922        TOTAL FREE ENERGY PREDICTED BY IDOCK:   -4.30 KCAL/MOL
REMARK 923 INTER-LIGAND FREE ENERGY PREDICTED BY IDOCK:   -4.06 KCAL/MOL
REMARK 924 INTRA-LIGAND FREE ENERGY PREDICTED BY IDOCK:   -0.24 KCAL/MOL
REMARK 927      BINDING AFFINITY PREDICTED BY RF-SCORE:    0.00 PKD
ROOT
HETATM    1  O   UNL     1     -12.708  13.182  63.676  1.00  0.00    -0.706 OA 
HETATM    2  C   UNL     1     -11.563  12.962  64.364  1.00  0.00    -0.363 C  
HETATM    3  O   UNL     1     -10.984  13.853  64.963  1.00  0.00    -0.330 OA 
HETATM    4  C   UNL     1     -11.119  11.517  64.293  1.00  0.00    -0.385 C  
ENDROOT
BRANCH   4   5
HETATM    5  C   UNL     1      -9.826  11.291  65.076  1.00  0.00    -0.307 C  
BRANCH   5   6
HETATM    6  C   UNL     1     -10.093  10.798  66.499  1.00  0.00    -0.277 C  
BRANCH   6   7
HETATM    7  C   UNL     1      -9.338   9.495  66.767  1.00  0.00    -0.196 C  
BRANCH   7   8
HETATM    8  C   UNL     1     -10.211   8.462  67.481  1.00  0.00    -0.308 C  
BRANCH   8   9
HETATM    9  C   UNL     1      -9.620   8.097  68.845  1.00  0.00    -0.153 C  
BRANCH   9  10
HETATM   10  C   UNL     1     -10.590   7.259  69.675  1.00  0.00    -0.246 C  
HETATM   11  C   UNL     1     -11.104   8.020  70.877  1.00  0.00    -0.255 C  
HETATM   12  O   UNL     1     -11.965   7.283  71.618  1.00  0.00    -0.279 OA 
HETATM   13  O   UNL     1     -10.800   9.162  71.175  1.00  0.00    -0.257 OA 
ENDBRANCH   9  10
ENDBRANCH   8   9
ENDBRANCH   7   8
ENDBRANCH   6   7
ENDBRANCH   5   6
ENDBRANCH   4   5
TORSDOF 6
ENDMDL
MODEL      186
REMARK 921   NORMALIZED FREE ENERGY PREDICTED BY IDOCK:   -2.92 KCAL/MOL
REMARK 922        TOTAL FREE ENERGY PREDICTED BY IDOCK:   -4.30 KCAL/MOL
REMARK 923 INTER-LIGAND FREE ENERGY PREDICTED BY IDOCK:   -4.02 KCAL/MOL
REMARK 924 INTRA-LIGAND FREE ENERGY PREDICTED BY IDOCK:   -0.27 KCAL/MOL
REMARK 927      BINDING AFFINITY PREDICTED BY RF-SCORE:    0.00 PKD
ROOT
HETATM    1  O   UNL     1      -5.149  16.944  66.088  1.00  0.00    -0.355 OA 
HETATM    2  C   UNL     1      -6.250  16.970  66.875  1.00  0.00    -0.200 C  
HETATM    3  O   UNL     1      -6.624  15.992  67.501  1.00  0.00    -0.147 OA 
HETATM    4  C   UNL     1      -6.925  18.324  66.873  1.00  0.00    -0.213 C  
ENDROOT
BRANCH   4   5
HETATM    5  C   UNL     1      -8.165  18.331  67.767  1.00  0.00    -0.253 C  
BRANCH   5   6
HETATM    6  C   UNL     1      -9.455  18.160  66.962  1.00  0.00    -0.274 C  
BRANCH   6   7
HETATM    7  C   UNL     1     -10.642  17.916  67.896  1.00  0.00    -0.387 C  
BRANCH   7   8
HETATM    8  C   UNL     1     -10.711  16.464  68.370  1.00  0.00    -0.327 C  
BRANCH   8   9
HETATM    9  C   UNL     1     -11.084  16.390  69.853  1.00  0.00    -0.313 C  
BRANCH   9  10
HETATM   10  C   UNL     1     -12.249  15.433  70.095  1.00  0.00    -0.407 C  
HETATM   11  C   UNL     1     -12.572  15.299  71.566  1.00  0.00    -0.373 C  
HETATM   12  O   UNL     1     -13.603  14.452  71.788  1.00  0.00    -0.345 OA 
HETATM   13  O   UNL     1     -11.992  15.872  72.473  1.00  0.00    -0.429 OA 
ENDBRANCH   9  10
ENDBRANCH   8   9
ENDBRANCH   7   8
ENDBRANCH   6   7
ENDBRANCH   5   6
ENDBRANCH   4   5
TORSDOF 6
ENDMDL
MODEL      187
REMARK 921   NORMALIZED FREE ENERGY PREDICTED BY IDOCK:   -2.92 KCAL/MOL
REMARK 922        TOTAL FREE ENERGY PREDICTED BY IDOCK:   -4.30 KCAL/MOL
REMARK 923 INTER-LIGAND FREE ENERGY PREDICTED BY IDOCK:   -3.96 KCAL/MOL
REMARK 924 INTRA-LIGAND FREE ENERGY PREDICTED BY IDOCK:   -0.34 KCAL/MOL
REMARK 927      BINDING AFFINITY PREDICTED BY RF-SCORE:    0.00 PKD
ROOT
HETATM    1  O   UNL     1     -11.483  16.220  63.818  1.00  0.00    -0.888 OA 
HETATM    2  C   UNL     1     -11.698  15.133  64.597  1.00  0.00    -0.348 C  
HETATM    3  O   UNL     1     -12.774  14.560  64.632  1.00  0.00    -0.630 OA 
HETATM    4  C   UNL     1     -10.467  14.741  65.385  1.00  0.00    -0.401 C  
ENDROOT
BRANCH   4   5
HETATM    5  C   UNL     1     -10.729  13.514  66.257  1.00  0.00    -0.288 C  
BRANCH   5   6
HETATM    6  C   UNL     1      -9.567  12.520  66.217  1.00  0.00    -0.246 C  
BRANCH   6   7
HETATM    7  C   UNL     1     -10.051  11.113  66.572  1.00  0.00    -0.265 C  
BRANCH   7   8
HETATM    8  C   UNL     1     -10.222  10.235  65.331  1.00  0.00    -0.312 C  
BRANCH   8   9
HETATM    9  C   UNL     1      -8.991  10.323  64.426  1.00  0.00    -0.255 C  
BRANCH   9  10
HETATM   10  C   UNL     1      -7.820   9.517  64.985  1.00  0.00    -0.117 C  
HETATM   11  C   UNL     1      -7.664   8.188  64.281  1.00  0.00    -0.128 C  
HETATM   12  O   UNL     1      -6.628   7.468  64.771  1.00  0.00    -0.040 OA 
HETATM   13  O   UNL     1      -8.370   7.779  63.375  1.00  0.00    -0.037 OA 
ENDBRANCH   9  10
ENDBRANCH   8   9
ENDBRANCH   7   8
ENDBRANCH   6   7
ENDBRANCH   5   6
ENDBRANCH   4   5
TORSDOF 6
ENDMDL
MODEL      188
REMARK 921   NORMALIZED FREE ENERGY PREDICTED BY IDOCK:   -2.91 KCAL/MOL
REMARK 922        TOTAL FREE ENERGY PREDICTED BY IDOCK:   -4.29 KCAL/MOL
REMARK 923 INTER-LIGAND FREE ENERGY PREDICTED BY IDOCK:   -3.81 KCAL/MOL
REMARK 924 INTRA-LIGAND FREE ENERGY PREDICTED BY IDOCK:   -0.47 KCAL/MOL
REMARK 927      BINDING AFFINITY PREDICTED BY RF-SCORE:    0.00 PKD
ROOT
HETATM    1  O   UNL     1      -5.739  16.844  68.295  1.00  0.00    -0.122 OA 
HETATM    2  C   UNL     1      -6.823  17.599  67.997  1.00  0.00    -0.193 C  
HETATM    3  O   UNL     1      -6.867  18.794  68.235  1.00  0.00    -0.231 OA 
HETATM    4  C   UNL     1      -7.926  16.789  67.351  1.00  0.00    -0.191 C  
ENDROOT
BRANCH   4   5
HETATM    5  C   UNL     1      -9.139  17.659  67.024  1.00  0.00    -0.256 C  
BRANCH   5   6
HETATM    6  C   UNL     1     -10.234  16.872  66.302  1.00  0.00    -0.337 C  
BRANCH   6   7
HETATM    7  C   UNL     1     -10.051  15.369  66.525  1.00  0.00    -0.282 C  
BRANCH   7   8
HETATM    8  C   UNL     1     -11.338  14.700  67.011  1.00  0.00    -0.362 C  
BRANCH   8   9
HETATM    9  C   UNL     1     -11.243  14.352  68.499  1.00  0.00    -0.286 C  
BRANCH   9  10
HETATM   10  C   UNL     1     -12.003  15.355  69.363  1.00  0.00    -0.351 C  
HETATM   11  C   UNL     1     -12.573  14.709  70.606  1.00  0.00    -0.357 C  
HETATM   12  O   UNL     1     -13.249  15.593  71.377  1.00  0.00    -0.489 OA 
HETATM   13  O   UNL     1     -12.459  13.534  70.910  1.00  0.00    -0.356 OA 
ENDBRANCH   9  10
ENDBRANCH   8   9
ENDBRANCH   7   8
ENDBRANCH   6   7
ENDBRANCH   5   6
ENDBRANCH   4   5
TORSDOF 6
ENDMDL
MODEL      189
REMARK 921   NORMALIZED FREE ENERGY PREDICTED BY IDOCK:   -2.90 KCAL/MOL
REMARK 922        TOTAL FREE ENERGY PREDICTED BY IDOCK:   -4.28 KCAL/MOL
REMARK 923 INTER-LIGAND FREE ENERGY PREDICTED BY IDOCK:   -3.79 KCAL/MOL
REMARK 924 INTRA-LIGAND FREE ENERGY PREDICTED BY IDOCK:   -0.48 KCAL/MOL
REMARK 927      BINDING AFFINITY PREDICTED BY RF-SCORE:    0.00 PKD
ROOT
HETATM    1  O   UNL     1     -13.313   9.064  72.601  1.00  0.00    -0.458 OA 
HETATM    2  C   UNL     1     -12.579   8.640  71.545  1.00  0.00    -0.322 C  
HETATM    3  O   UNL     1     -12.025   9.417  70.785  1.00  0.00    -0.279 OA 
HETATM    4  C   UNL     1     -12.539   7.131  71.443  1.00  0.00    -0.432 C  
ENDROOT
BRANCH   4   5
HETATM    5  C   UNL     1     -11.707   6.673  70.246  1.00  0.00    -0.432 C  
BRANCH   5   6
HETATM    6  C   UNL     1     -10.370   6.066  70.674  1.00  0.00    -0.280 C  
BRANCH   6   7
HETATM    7  C   UNL     1      -9.788   5.203  69.552  1.00  0.00    -0.278 C  
BRANCH   7   8
HETATM    8  C   UNL     1      -9.536   3.765  70.006  1.00  0.00    -0.264 C  
BRANCH   8   9
HETATM    9  C   UNL     1      -9.252   3.708  71.509  1.00  0.00    -0.191 C  
BRANCH   9  10
HETATM   10  C   UNL     1      -9.955   2.525  72.172  1.00  0.00    -0.232 C  
HETATM   11  C   UNL     1     -10.940   2.976  73.227  1.00  0.00    -0.159 C  
HETATM   12  O   UNL     1     -11.567   1.932  73.819  1.00  0.00    -0.201 OA 
HETATM   13  O   UNL     1     -11.169   4.133  73.535  1.00  0.00    -0.266 OA 
ENDBRANCH   9  10
ENDBRANCH   8   9
ENDBRANCH   7   8
ENDBRANCH   6   7
ENDBRANCH   5   6
ENDBRANCH   4   5
TORSDOF 6
ENDMDL
MODEL      190
REMARK 921   NORMALIZED FREE ENERGY PREDICTED BY IDOCK:   -2.89 KCAL/MOL
REMARK 922        TOTAL FREE ENERGY PREDICTED BY IDOCK:   -4.25 KCAL/MOL
REMARK 923 INTER-LIGAND FREE ENERGY PREDICTED BY IDOCK:   -3.93 KCAL/MOL
REMARK 924 INTRA-LIGAND FREE ENERGY PREDICTED BY IDOCK:   -0.33 KCAL/MOL
REMARK 927      BINDING AFFINITY PREDICTED BY RF-SCORE:    0.00 PKD
ROOT
HETATM    1  O   UNL     1     -10.850   8.683  72.451  1.00  0.00    -0.343 OA 
HETATM    2  C   UNL     1     -10.277   8.933  71.250  1.00  0.00    -0.291 C  
HETATM    3  O   UNL     1      -9.252   8.379  70.891  1.00  0.00    -0.144 OA 
HETATM    4  C   UNL     1     -11.053   9.953  70.446  1.00  0.00    -0.382 C  
ENDROOT
BRANCH   4   5
HETATM    5  C   UNL     1     -10.390  10.222  69.095  1.00  0.00    -0.241 C  
BRANCH   5   6
HETATM    6  C   UNL     1     -11.402  10.657  68.034  1.00  0.00    -0.350 C  
BRANCH   6   7
HETATM    7  C   UNL     1     -11.013  12.016  67.447  1.00  0.00    -0.311 C  
BRANCH   7   8
HETATM    8  C   UNL     1     -11.683  13.174  68.188  1.00  0.00    -0.391 C  
BRANCH   8   9
HETATM    9  C   UNL     1     -11.822  14.397  67.278  1.00  0.00    -0.434 C  
BRANCH   9  10
HETATM   10  C   UNL     1     -10.604  14.570  66.374  1.00  0.00    -0.302 C  
HETATM   11  C   UNL     1      -9.684  15.663  66.872  1.00  0.00    -0.230 C  
HETATM   12  O   UNL     1      -8.602  15.822  66.075  1.00  0.00    -0.277 OA 
HETATM   13  O   UNL     1      -9.865  16.341  67.869  1.00  0.00    -0.232 OA 
ENDBRANCH   9  10
ENDBRANCH   8   9
ENDBRANCH   7   8
ENDBRANCH   6   7
ENDBRANCH   5   6
ENDBRANCH   4   5
TORSDOF 6
ENDMDL
MODEL      191
REMARK 921   NORMALIZED FREE ENERGY PREDICTED BY IDOCK:   -2.89 KCAL/MOL
REMARK 922        TOTAL FREE ENERGY PREDICTED BY IDOCK:   -4.25 KCAL/MOL
REMARK 923 INTER-LIGAND FREE ENERGY PREDICTED BY IDOCK:   -3.84 KCAL/MOL
REMARK 924 INTRA-LIGAND FREE ENERGY PREDICTED BY IDOCK:   -0.41 KCAL/MOL
REMARK 927      BINDING AFFINITY PREDICTED BY RF-SCORE:    0.00 PKD
ROOT
HETATM    1  O   UNL     1     -11.250  14.288  67.910  1.00  0.00    -0.265 OA 
HETATM    2  C   UNL     1     -11.743  13.039  68.083  1.00  0.00    -0.351 C  
HETATM    3  O   UNL     1     -12.150  12.365  67.151  1.00  0.00    -0.532 OA 
HETATM    4  C   UNL     1     -11.718  12.609  69.533  1.00  0.00    -0.374 C  
ENDROOT
BRANCH   4   5
HETATM    5  C   UNL     1     -12.278  11.198  69.708  1.00  0.00    -0.369 C  
BRANCH   5   6
HETATM    6  C   UNL     1     -11.353  10.311  70.543  1.00  0.00    -0.422 C  
BRANCH   6   7
HETATM    7  C   UNL     1     -10.021  10.094  69.823  1.00  0.00    -0.258 C  
BRANCH   7   8
HETATM    8  C   UNL     1     -10.019   8.808  68.994  1.00  0.00    -0.197 C  
BRANCH   8   9
HETATM    9  C   UNL     1     -10.524   9.073  67.574  1.00  0.00    -0.338 C  
BRANCH   9  10
HETATM   10  C   UNL     1      -9.948   8.073  66.574  1.00  0.00    -0.283 C  
HETATM   11  C   UNL     1      -8.791   8.658  65.795  1.00  0.00    -0.193 C  
HETATM   12  O   UNL     1      -8.276   7.776  64.906  1.00  0.00    -0.141 OA 
HETATM   13  O   UNL     1      -8.349   9.786  65.925  1.00  0.00    -0.121 OA 
ENDBRANCH   9  10
ENDBRANCH   8   9
ENDBRANCH   7   8
ENDBRANCH   6   7
ENDBRANCH   5   6
ENDBRANCH   4   5
TORSDOF 6
ENDMDL
MODEL      192
REMARK 921   NORMALIZED FREE ENERGY PREDICTED BY IDOCK:   -2.87 KCAL/MOL
REMARK 922        TOTAL FREE ENERGY PREDICTED BY IDOCK:   -4.23 KCAL/MOL
REMARK 923 INTER-LIGAND FREE ENERGY PREDICTED BY IDOCK:   -3.87 KCAL/MOL
REMARK 924 INTRA-LIGAND FREE ENERGY PREDICTED BY IDOCK:   -0.36 KCAL/MOL
REMARK 927      BINDING AFFINITY PREDICTED BY RF-SCORE:    0.00 PKD
ROOT
HETATM    1  O   UNL     1      -8.712   8.198  65.610  1.00  0.00    -0.161 OA 
HETATM    2  C   UNL     1      -9.625   9.066  66.105  1.00  0.00    -0.272 C  
HETATM    3  O   UNL     1     -10.201   8.871  67.162  1.00  0.00    -0.223 OA 
HETATM    4  C   UNL     1      -9.824  10.265  65.203  1.00  0.00    -0.389 C  
ENDROOT
BRANCH   4   5
HETATM    5  C   UNL     1     -10.858  11.232  65.778  1.00  0.00    -0.257 C  
BRANCH   5   6
HETATM    6  C   UNL     1     -11.511  12.089  64.693  1.00  0.00    -0.371 C  
BRANCH   6   7
HETATM    7  C   UNL     1     -12.178  13.320  65.309  1.00  0.00    -0.492 C  
BRANCH   7   8
HETATM    8  C   UNL     1     -11.554  14.623  64.807  1.00  0.00    -0.418 C  
BRANCH   8   9
HETATM    9  C   UNL     1     -10.162  14.829  65.408  1.00  0.00    -0.415 C  
BRANCH   9  10
HETATM   10  C   UNL     1     -10.228  15.553  66.751  1.00  0.00    -0.282 C  
HETATM   11  C   UNL     1      -8.915  15.478  67.497  1.00  0.00    -0.189 C  
HETATM   12  O   UNL     1      -8.966  16.117  68.689  1.00  0.00    -0.200 OA 
HETATM   13  O   UNL     1      -7.907  14.916  67.102  1.00  0.00    -0.200 OA 
ENDBRANCH   9  10
ENDBRANCH   8   9
ENDBRANCH   7   8
ENDBRANCH   6   7
ENDBRANCH   5   6
ENDBRANCH   4   5
TORSDOF 6
ENDMDL
MODEL      193
REMARK 921   NORMALIZED FREE ENERGY PREDICTED BY IDOCK:   -2.85 KCAL/MOL
REMARK 922        TOTAL FREE ENERGY PREDICTED BY IDOCK:   -4.21 KCAL/MOL
REMARK 923 INTER-LIGAND FREE ENERGY PREDICTED BY IDOCK:   -3.97 KCAL/MOL
REMARK 924 INTRA-LIGAND FREE ENERGY PREDICTED BY IDOCK:   -0.24 KCAL/MOL
REMARK 927      BINDING AFFINITY PREDICTED BY RF-SCORE:    0.00 PKD
ROOT
HETATM    1  O   UNL     1      -9.860   3.262  70.910  1.00  0.00    -0.156 OA 
HETATM    2  C   UNL     1      -9.576   4.586  70.928  1.00  0.00    -0.180 C  
HETATM    3  O   UNL     1      -8.431   5.006  70.888  1.00  0.00    -0.115 OA 
HETATM    4  C   UNL     1     -10.823   5.439  71.001  1.00  0.00    -0.189 C  
ENDROOT
BRANCH   4   5
HETATM    5  C   UNL     1     -10.481   6.928  71.021  1.00  0.00    -0.235 C  
BRANCH   5   6
HETATM    6  C   UNL     1     -11.729   7.804  71.150  1.00  0.00    -0.304 C  
BRANCH   6   7
HETATM    7  C   UNL     1     -11.347   9.227  71.562  1.00  0.00    -0.455 C  
BRANCH   7   8
HETATM    8  C   UNL     1     -11.140  10.139  70.352  1.00  0.00    -0.393 C  
BRANCH   8   9
HETATM    9  C   UNL     1     -12.376  11.006  70.104  1.00  0.00    -0.389 C  
BRANCH   9  10
HETATM   10  C   UNL     1     -12.052  12.495  70.206  1.00  0.00    -0.373 C  
HETATM   11  C   UNL     1     -12.711  13.133  71.408  1.00  0.00    -0.297 C  
HETATM   12  O   UNL     1     -12.428  14.453  71.506  1.00  0.00    -0.325 OA 
HETATM   13  O   UNL     1     -13.421  12.558  72.216  1.00  0.00    -0.556 OA 
ENDBRANCH   9  10
ENDBRANCH   8   9
ENDBRANCH   7   8
ENDBRANCH   6   7
ENDBRANCH   5   6
ENDBRANCH   4   5
TORSDOF 6
ENDMDL
MODEL      194
REMARK 921   NORMALIZED FREE ENERGY PREDICTED BY IDOCK:   -2.85 KCAL/MOL
REMARK 922        TOTAL FREE ENERGY PREDICTED BY IDOCK:   -4.20 KCAL/MOL
REMARK 923 INTER-LIGAND FREE ENERGY PREDICTED BY IDOCK:   -3.91 KCAL/MOL
REMARK 924 INTRA-LIGAND FREE ENERGY PREDICTED BY IDOCK:   -0.29 KCAL/MOL
REMARK 927      BINDING AFFINITY PREDICTED BY RF-SCORE:    0.00 PKD
ROOT
HETATM    1  O   UNL     1     -12.292  15.813  63.770  1.00  0.00    -0.698 OA 
HETATM    2  C   UNL     1     -12.225  14.619  64.405  1.00  0.00    -0.452 C  
HETATM    3  O   UNL     1     -12.247  14.527  65.621  1.00  0.00    -0.351 OA 
HETATM    4  C   UNL     1     -12.127  13.460  63.437  1.00  0.00    -0.437 C  
ENDROOT
BRANCH   4   5
HETATM    5  C   UNL     1     -12.053  12.123  64.172  1.00  0.00    -0.501 C  
BRANCH   5   6
HETATM    6  C   UNL     1     -10.717  11.414  63.944  1.00  0.00    -0.462 C  
BRANCH   6   7
HETATM    7  C   UNL     1      -9.871  11.438  65.219  1.00  0.00    -0.290 C  
BRANCH   7   8
HETATM    8  C   UNL     1      -9.328  10.053  65.573  1.00  0.00    -0.271 C  
BRANCH   8   9
HETATM    9  C   UNL     1      -8.263   9.611  64.567  1.00  0.00    -0.151 C  
BRANCH   9  10
HETATM   10  C   UNL     1      -7.208   8.718  65.218  1.00  0.00    -0.084 C  
HETATM   11  C   UNL     1      -6.099   9.527  65.852  1.00  0.00    -0.063 C  
HETATM   12  O   UNL     1      -5.160   8.742  66.431  1.00  0.00    -0.029 OA 
HETATM   13  O   UNL     1      -6.026  10.744  65.861  1.00  0.00    -0.120 OA 
ENDBRANCH   9  10
ENDBRANCH   8   9
ENDBRANCH   7   8
ENDBRANCH   6   7
ENDBRANCH   5   6
ENDBRANCH   4   5
TORSDOF 6
ENDMDL
MODEL      195
REMARK 921   NORMALIZED FREE ENERGY PREDICTED BY IDOCK:   -2.84 KCAL/MOL
REMARK 922        TOTAL FREE ENERGY PREDICTED BY IDOCK:   -4.19 KCAL/MOL
REMARK 923 INTER-LIGAND FREE ENERGY PREDICTED BY IDOCK:   -3.88 KCAL/MOL
REMARK 924 INTRA-LIGAND FREE ENERGY PREDICTED BY IDOCK:   -0.31 KCAL/MOL
REMARK 927      BINDING AFFINITY PREDICTED BY RF-SCORE:    0.00 PKD
ROOT
HETATM    1  O   UNL     1     -10.068  20.017  65.604  1.00  0.00    -0.404 OA 
HETATM    2  C   UNL     1     -10.107  19.413  66.815  1.00  0.00    -0.396 C  
HETATM    3  O   UNL     1     -10.059  20.043  67.858  1.00  0.00    -0.401 OA 
HETATM    4  C   UNL     1     -10.216  17.908  66.702  1.00  0.00    -0.371 C  
ENDROOT
BRANCH   4   5
HETATM    5  C   UNL     1     -10.258  17.245  68.078  1.00  0.00    -0.332 C  
BRANCH   5   6
HETATM    6  C   UNL     1     -10.591  15.755  67.989  1.00  0.00    -0.279 C  
BRANCH   6   7
HETATM    7  C   UNL     1     -10.859  15.350  66.538  1.00  0.00    -0.298 C  
BRANCH   7   8
HETATM    8  C   UNL     1      -9.979  14.178  66.098  1.00  0.00    -0.328 C  
BRANCH   8   9
HETATM    9  C   UNL     1     -10.822  12.923  65.858  1.00  0.00    -0.294 C  
BRANCH   9  10
HETATM   10  C   UNL     1     -10.511  11.831  66.879  1.00  0.00    -0.256 C  
HETATM   11  C   UNL     1      -9.470  10.861  66.366  1.00  0.00    -0.187 C  
HETATM   12  O   UNL     1      -9.190   9.889  67.266  1.00  0.00    -0.137 OA 
HETATM   13  O   UNL     1      -8.927  10.916  65.276  1.00  0.00    -0.194 OA 
ENDBRANCH   9  10
ENDBRANCH   8   9
ENDBRANCH   7   8
ENDBRANCH   6   7
ENDBRANCH   5   6
ENDBRANCH   4   5
TORSDOF 6
ENDMDL
MODEL      196
REMARK 921   NORMALIZED FREE ENERGY PREDICTED BY IDOCK:   -2.82 KCAL/MOL
REMARK 922        TOTAL FREE ENERGY PREDICTED BY IDOCK:   -4.17 KCAL/MOL
REMARK 923 INTER-LIGAND FREE ENERGY PREDICTED BY IDOCK:   -3.88 KCAL/MOL
REMARK 924 INTRA-LIGAND FREE ENERGY PREDICTED BY IDOCK:   -0.29 KCAL/MOL
REMARK 927      BINDING AFFINITY PREDICTED BY RF-SCORE:    0.00 PKD
ROOT
HETATM    1  O   UNL     1      -7.266  16.460  69.258  1.00  0.00    -0.222 OA 
HETATM    2  C   UNL     1      -8.195  16.399  68.275  1.00  0.00    -0.177 C  
HETATM    3  O   UNL     1      -7.931  15.998  67.154  1.00  0.00    -0.163 OA 
HETATM    4  C   UNL     1      -9.554  16.876  68.740  1.00  0.00    -0.268 C  
ENDROOT
BRANCH   4   5
HETATM    5  C   UNL     1     -10.588  16.800  67.617  1.00  0.00    -0.325 C  
BRANCH   5   6
HETATM    6  C   UNL     1     -11.593  15.668  67.837  1.00  0.00    -0.195 C  
BRANCH   6   7
HETATM    7  C   UNL     1     -11.157  14.409  67.085  1.00  0.00    -0.318 C  
BRANCH   7   8
HETATM    8  C   UNL     1     -12.236  13.913  66.121  1.00  0.00    -0.498 C  
BRANCH   8   9
HETATM    9  C   UNL     1     -11.893  12.521  65.586  1.00  0.00    -0.493 C  
BRANCH   9  10
HETATM   10  C   UNL     1     -10.547  12.030  66.112  1.00  0.00    -0.298 C  
HETATM   11  C   UNL     1     -10.711  11.056  67.257  1.00  0.00    -0.265 C  
HETATM   12  O   UNL     1      -9.521  10.616  67.728  1.00  0.00    -0.151 OA 
HETATM   13  O   UNL     1     -11.774  10.687  67.726  1.00  0.00    -0.503 OA 
ENDBRANCH   9  10
ENDBRANCH   8   9
ENDBRANCH   7   8
ENDBRANCH   6   7
ENDBRANCH   5   6
ENDBRANCH   4   5
TORSDOF 6
ENDMDL
MODEL      197
REMARK 921   NORMALIZED FREE ENERGY PREDICTED BY IDOCK:   -2.81 KCAL/MOL
REMARK 922        TOTAL FREE ENERGY PREDICTED BY IDOCK:   -4.15 KCAL/MOL
REMARK 923 INTER-LIGAND FREE ENERGY PREDICTED BY IDOCK:   -3.80 KCAL/MOL
REMARK 924 INTRA-LIGAND FREE ENERGY PREDICTED BY IDOCK:   -0.35 KCAL/MOL
REMARK 927      BINDING AFFINITY PREDICTED BY RF-SCORE:    0.00 PKD
ROOT
HETATM    1  O   UNL     1     -12.686   8.600  72.517  1.00  0.00    -0.385 OA 
HETATM    2  C   UNL     1     -11.700   7.879  71.931  1.00  0.00    -0.297 C  
HETATM    3  O   UNL     1     -10.520   8.093  72.152  1.00  0.00    -0.239 OA 
HETATM    4  C   UNL     1     -12.243   6.814  71.003  1.00  0.00    -0.405 C  
ENDROOT
BRANCH   4   5
HETATM    5  C   UNL     1     -11.116   6.013  70.353  1.00  0.00    -0.399 C  
BRANCH   5   6
HETATM    6  C   UNL     1     -11.023   6.269  68.848  1.00  0.00    -0.435 C  
BRANCH   6   7
HETATM    7  C   UNL     1     -10.140   7.486  68.564  1.00  0.00    -0.198 C  
BRANCH   7   8
HETATM    8  C   UNL     1     -10.751   8.405  67.504  1.00  0.00    -0.207 C  
BRANCH   8   9
HETATM    9  C   UNL     1      -9.804   9.559  67.170  1.00  0.00    -0.239 C  
BRANCH   9  10
HETATM   10  C   UNL     1      -8.898   9.222  65.988  1.00  0.00    -0.191 C  
HETATM   11  C   UNL     1      -9.395   9.843  64.702  1.00  0.00    -0.277 C  
HETATM   12  O   UNL     1      -8.596   9.548  63.650  1.00  0.00    -0.186 OA 
HETATM   13  O   UNL     1     -10.393  10.533  64.589  1.00  0.00    -0.344 OA 
ENDBRANCH   9  10
ENDBRANCH   8   9
ENDBRANCH   7   8
ENDBRANCH   6   7
ENDBRANCH   5   6
ENDBRANCH   4   5
TORSDOF 6
ENDMDL
MODEL      198
REMARK 921   NORMALIZED FREE ENERGY PREDICTED BY IDOCK:   -2.81 KCAL/MOL
REMARK 922        TOTAL FREE ENERGY PREDICTED BY IDOCK:   -4.15 KCAL/MOL
REMARK 923 INTER-LIGAND FREE ENERGY PREDICTED BY IDOCK:   -3.68 KCAL/MOL
REMARK 924 INTRA-LIGAND FREE ENERGY PREDICTED BY IDOCK:   -0.47 KCAL/MOL
REMARK 927      BINDING AFFINITY PREDICTED BY RF-SCORE:    0.00 PKD
ROOT
HETATM    1  O   UNL     1      -6.943   9.175  71.076  1.00  0.00    -0.091 OA 
HETATM    2  C   UNL     1      -8.013   8.733  70.374  1.00  0.00    -0.112 C  
HETATM    3  O   UNL     1      -8.052   8.769  69.155  1.00  0.00    -0.113 OA 
HETATM    4  C   UNL     1      -9.110   8.205  71.273  1.00  0.00    -0.185 C  
ENDROOT
BRANCH   4   5
HETATM    5  C   UNL     1     -10.308   7.711  70.463  1.00  0.00    -0.211 C  
BRANCH   5   6
HETATM    6  C   UNL     1     -11.615   8.365  70.912  1.00  0.00    -0.288 C  
BRANCH   6   7
HETATM    7  C   UNL     1     -11.347   9.745  71.515  1.00  0.00    -0.345 C  
BRANCH   7   8
HETATM    8  C   UNL     1     -12.000  10.864  70.703  1.00  0.00    -0.467 C  
BRANCH   8   9
HETATM    9  C   UNL     1     -11.040  11.398  69.637  1.00  0.00    -0.241 C  
BRANCH   9  10
HETATM   10  C   UNL     1     -11.332  12.857  69.295  1.00  0.00    -0.303 C  
HETATM   11  C   UNL     1     -11.804  13.017  67.867  1.00  0.00    -0.343 C  
HETATM   12  O   UNL     1     -12.064  14.309  67.556  1.00  0.00    -0.385 OA 
HETATM   13  O   UNL     1     -11.944  12.112  67.062  1.00  0.00    -0.593 OA 
ENDBRANCH   9  10
ENDBRANCH   8   9
ENDBRANCH   7   8
ENDBRANCH   6   7
ENDBRANCH   5   6
ENDBRANCH   4   5
TORSDOF 6
ENDMDL
MODEL      199
REMARK 921   NORMALIZED FREE ENERGY PREDICTED BY IDOCK:   -2.80 KCAL/MOL
REMARK 922        TOTAL FREE ENERGY PREDICTED BY IDOCK:   -4.14 KCAL/MOL
REMARK 923 INTER-LIGAND FREE ENERGY PREDICTED BY IDOCK:   -3.85 KCAL/MOL
REMARK 924 INTRA-LIGAND FREE ENERGY PREDICTED BY IDOCK:   -0.28 KCAL/MOL
REMARK 927      BINDING AFFINITY PREDICTED BY RF-SCORE:    0.00 PKD
ROOT
HETATM    1  O   UNL     1      -7.810  10.547  69.465  1.00  0.00    -0.155 OA 
HETATM    2  C   UNL     1      -8.906  10.365  68.691  1.00  0.00    -0.142 C  
HETATM    3  O   UNL     1      -9.252   9.261  68.303  1.00  0.00    -0.132 OA 
HETATM    4  C   UNL     1      -9.616  11.666  68.387  1.00  0.00    -0.195 C  
ENDROOT
BRANCH   4   5
HETATM    5  C   UNL     1     -10.849  11.439  67.513  1.00  0.00    -0.291 C  
BRANCH   5   6
HETATM    6  C   UNL     1     -11.755  12.670  67.465  1.00  0.00    -0.429 C  
BRANCH   6   7
HETATM    7  C   UNL     1     -11.249  13.669  66.421  1.00  0.00    -0.317 C  
BRANCH   7   8
HETATM    8  C   UNL     1     -11.024  15.059  67.018  1.00  0.00    -0.318 C  
BRANCH   8   9
HETATM    9  C   UNL     1      -9.832  15.752  66.354  1.00  0.00    -0.296 C  
BRANCH   9  10
HETATM   10  C   UNL     1     -10.002  17.270  66.333  1.00  0.00    -0.319 C  
HETATM   11  C   UNL     1     -10.753  17.735  65.106  1.00  0.00     0.405 C  
HETATM   12  O   UNL     1     -10.906  19.080  65.081  1.00  0.00    -0.478 OA 
HETATM   13  O   UNL     1     -11.183  17.014  64.223  1.00  0.00    -1.186 OA 
ENDBRANCH   9  10
ENDBRANCH   8   9
ENDBRANCH   7   8
ENDBRANCH   6   7
ENDBRANCH   5   6
ENDBRANCH   4   5
TORSDOF 6
ENDMDL
MODEL      200
REMARK 921   NORMALIZED FREE ENERGY PREDICTED BY IDOCK:   -2.78 KCAL/MOL
REMARK 922        TOTAL FREE ENERGY PREDICTED BY IDOCK:   -4.11 KCAL/MOL
REMARK 923 INTER-LIGAND FREE ENERGY PREDICTED BY IDOCK:   -3.46 KCAL/MOL
REMARK 924 INTRA-LIGAND FREE ENERGY PREDICTED BY IDOCK:   -0.65 KCAL/MOL
REMARK 927      BINDING AFFINITY PREDICTED BY RF-SCORE:    0.00 PKD
ROOT
HETATM    1  O   UNL     1      -8.688   9.452  69.422  1.00  0.00    -0.139 OA 
HETATM    2  C   UNL     1      -9.051   9.897  68.196  1.00  0.00    -0.121 C  
HETATM    3  O   UNL     1      -8.936   9.209  67.195  1.00  0.00    -0.122 OA 
HETATM    4  C   UNL     1      -9.597  11.307  68.236  1.00  0.00    -0.193 C  
ENDROOT
BRANCH   4   5
HETATM    5  C   UNL     1     -10.000  11.791  66.844  1.00  0.00    -0.220 C  
BRANCH   5   6
HETATM    6  C   UNL     1     -11.514  11.963  66.710  1.00  0.00    -0.384 C  
BRANCH   6   7
HETATM    7  C   UNL     1     -11.844  12.982  65.617  1.00  0.00    -0.445 C  
BRANCH   7   8
HETATM    8  C   UNL     1     -10.592  13.681  65.086  1.00  0.00    -0.371 C  
BRANCH   8   9
HETATM    9  C   UNL     1     -10.563  15.149  65.516  1.00  0.00    -0.383 C  
BRANCH   9  10
HETATM   10  C   UNL     1      -9.620  15.374  66.697  1.00  0.00    -0.276 C  
HETATM   11  C   UNL     1     -10.373  15.494  68.003  1.00  0.00    -0.247 C  
HETATM   12  O   UNL     1      -9.543  15.693  69.054  1.00  0.00    -0.209 OA 
HETATM   13  O   UNL     1     -11.583  15.425  68.132  1.00  0.00    -0.347 OA 
ENDBRANCH   9  10
ENDBRANCH   8   9
ENDBRANCH   7   8
ENDBRANCH   6   7
ENDBRANCH   5   6
ENDBRANCH   4   5
TORSDOF 6
ENDMDL
MODEL      201
REMARK 921   NORMALIZED FREE ENERGY PREDICTED BY IDOCK:   -2.78 KCAL/MOL
REMARK 922        TOTAL FREE ENERGY PREDICTED BY IDOCK:   -4.11 KCAL/MOL
REMARK 923 INTER-LIGAND FREE ENERGY PREDICTED BY IDOCK:   -3.84 KCAL/MOL
REMARK 924 INTRA-LIGAND FREE ENERGY PREDICTED BY IDOCK:   -0.27 KCAL/MOL
REMARK 927      BINDING AFFINITY PREDICTED BY RF-SCORE:    0.00 PKD
ROOT
HETATM    1  O   UNL     1      -8.610  10.157  63.531  1.00  0.00    -0.170 OA 
HETATM    2  C   UNL     1      -9.460  10.028  64.577  1.00  0.00    -0.296 C  
HETATM    3  O   UNL     1     -10.529  10.613  64.622  1.00  0.00    -0.336 OA 
HETATM    4  C   UNL     1      -8.923   9.094  65.640  1.00  0.00    -0.249 C  
ENDROOT
BRANCH   4   5
HETATM    5  C   UNL     1      -9.896   8.963  66.811  1.00  0.00    -0.308 C  
BRANCH   5   6
HETATM    6  C   UNL     1      -9.320   9.542  68.105  1.00  0.00    -0.141 C  
BRANCH   6   7
HETATM    7  C   UNL     1     -10.338   9.432  69.242  1.00  0.00    -0.217 C  
BRANCH   7   8
HETATM    8  C   UNL     1      -9.661   9.295  70.607  1.00  0.00    -0.334 C  
BRANCH   8   9
HETATM    9  C   UNL     1     -10.569   8.560  71.595  1.00  0.00    -0.353 C  
BRANCH   9  10
HETATM   10  C   UNL     1     -11.852   9.340  71.872  1.00  0.00    -0.426 C  
HETATM   11  C   UNL     1     -13.086   8.505  71.614  1.00  0.00    -0.341 C  
HETATM   12  O   UNL     1     -14.227   9.190  71.857  1.00  0.00    -0.319 OA 
HETATM   13  O   UNL     1     -13.090   7.348  71.230  1.00  0.00    -0.349 OA 
ENDBRANCH   9  10
ENDBRANCH   8   9
ENDBRANCH   7   8
ENDBRANCH   6   7
ENDBRANCH   5   6
ENDBRANCH   4   5
TORSDOF 6
ENDMDL
MODEL      202
REMARK 921   NORMALIZED FREE ENERGY PREDICTED BY IDOCK:   -2.78 KCAL/MOL
REMARK 922        TOTAL FREE ENERGY PREDICTED BY IDOCK:   -4.11 KCAL/MOL
REMARK 923 INTER-LIGAND FREE ENERGY PREDICTED BY IDOCK:   -3.61 KCAL/MOL
REMARK 924 INTRA-LIGAND FREE ENERGY PREDICTED BY IDOCK:   -0.50 KCAL/MOL
REMARK 927      BINDING AFFINITY PREDICTED BY RF-SCORE:    0.00 PKD
ROOT
HETATM    1  O   UNL     1     -11.752  11.848  69.812  1.00  0.00    -0.308 OA 
HETATM    2  C   UNL     1     -11.783  12.688  68.750  1.00  0.00    -0.323 C  
HETATM    3  O   UNL     1     -11.837  13.899  68.881  1.00  0.00    -0.318 OA 
HETATM    4  C   UNL     1     -11.741  11.946  67.432  1.00  0.00    -0.326 C  
ENDROOT
BRANCH   4   5
HETATM    5  C   UNL     1     -11.778  12.910  66.247  1.00  0.00    -0.457 C  
BRANCH   5   6
HETATM    6  C   UNL     1     -10.553  12.758  65.344  1.00  0.00    -0.309 C  
BRANCH   6   7
HETATM    7  C   UNL     1      -9.645  11.636  65.853  1.00  0.00    -0.250 C  
BRANCH   7   8
HETATM    8  C   UNL     1      -9.039  10.824  64.708  1.00  0.00    -0.222 C  
BRANCH   8   9
HETATM    9  C   UNL     1      -9.137   9.323  64.990  1.00  0.00    -0.245 C  
BRANCH   9  10
HETATM   10  C   UNL     1     -10.101   9.026  66.137  1.00  0.00    -0.242 C  
HETATM   11  C   UNL     1      -9.874   7.650  66.721  1.00  0.00    -0.237 C  
HETATM   12  O   UNL     1     -10.726   7.380  67.738  1.00  0.00    -0.223 OA 
HETATM   13  O   UNL     1      -9.034   6.851  66.346  1.00  0.00    -0.145 OA 
ENDBRANCH   9  10
ENDBRANCH   8   9
ENDBRANCH   7   8
ENDBRANCH   6   7
ENDBRANCH   5   6
ENDBRANCH   4   5
TORSDOF 6
ENDMDL
MODEL      203
REMARK 921   NORMALIZED FREE ENERGY PREDICTED BY IDOCK:   -2.78 KCAL/MOL
REMARK 922        TOTAL FREE ENERGY PREDICTED BY IDOCK:   -4.10 KCAL/MOL
REMARK 923 INTER-LIGAND FREE ENERGY PREDICTED BY IDOCK:   -3.74 KCAL/MOL
REMARK 924 INTRA-LIGAND FREE ENERGY PREDICTED BY IDOCK:   -0.36 KCAL/MOL
REMARK 927      BINDING AFFINITY PREDICTED BY RF-SCORE:    0.00 PKD
ROOT
HETATM    1  O   UNL     1      -7.446  10.461  70.124  1.00  0.00    -0.151 OA 
HETATM    2  C   UNL     1      -8.257  10.347  69.046  1.00  0.00    -0.141 C  
HETATM    3  O   UNL     1      -7.864  10.564  67.912  1.00  0.00    -0.102 OA 
HETATM    4  C   UNL     1      -9.661   9.930  69.425  1.00  0.00    -0.228 C  
ENDROOT
BRANCH   4   5
HETATM    5  C   UNL     1     -10.560   9.809  68.196  1.00  0.00    -0.276 C  
BRANCH   5   6
HETATM    6  C   UNL     1     -11.533  10.983  68.076  1.00  0.00    -0.365 C  
BRANCH   6   7
HETATM    7  C   UNL     1     -11.204  12.061  69.110  1.00  0.00    -0.305 C  
BRANCH   7   8
HETATM    8  C   UNL     1     -10.750  13.366  68.455  1.00  0.00    -0.278 C  
BRANCH   8   9
HETATM    9  C   UNL     1     -11.858  14.420  68.513  1.00  0.00    -0.369 C  
BRANCH   9  10
HETATM   10  C   UNL     1     -11.599  15.452  69.608  1.00  0.00    -0.344 C  
HETATM   11  C   UNL     1     -12.445  15.195  70.836  1.00  0.00    -0.365 C  
HETATM   12  O   UNL     1     -12.220  16.106  71.811  1.00  0.00    -0.469 OA 
HETATM   13  O   UNL     1     -13.245  14.284  70.966  1.00  0.00    -0.350 OA 
ENDBRANCH   9  10
ENDBRANCH   8   9
ENDBRANCH   7   8
ENDBRANCH   6   7
ENDBRANCH   5   6
ENDBRANCH   4   5
TORSDOF 6
ENDMDL
MODEL      204
REMARK 921   NORMALIZED FREE ENERGY PREDICTED BY IDOCK:   -2.77 KCAL/MOL
REMARK 922        TOTAL FREE ENERGY PREDICTED BY IDOCK:   -4.09 KCAL/MOL
REMARK 923 INTER-LIGAND FREE ENERGY PREDICTED BY IDOCK:   -3.47 KCAL/MOL
REMARK 924 INTRA-LIGAND FREE ENERGY PREDICTED BY IDOCK:   -0.62 KCAL/MOL
REMARK 927      BINDING AFFINITY PREDICTED BY RF-SCORE:    0.00 PKD
ROOT
HETATM    1  O   UNL     1     -13.307   9.042  72.566  1.00  0.00    -0.453 OA 
HETATM    2  C   UNL     1     -12.500   8.571  71.586  1.00  0.00    -0.330 C  
HETATM    3  O   UNL     1     -11.806   9.308  70.906  1.00  0.00    -0.283 OA 
HETATM    4  C   UNL     1     -12.573   7.065  71.458  1.00  0.00    -0.426 C  
ENDROOT
BRANCH   4   5
HETATM    5  C   UNL     1     -11.656   6.554  70.348  1.00  0.00    -0.470 C  
BRANCH   5   6
HETATM    6  C   UNL     1     -10.579   5.608  70.881  1.00  0.00    -0.328 C  
BRANCH   6   7
HETATM    7  C   UNL     1     -10.651   5.516  72.407  1.00  0.00    -0.272 C  
BRANCH   7   8
HETATM    8  C   UNL     1      -9.453   6.186  73.080  1.00  0.00    -0.142 C  
BRANCH   8   9
HETATM    9  C   UNL     1      -8.308   6.386  72.084  1.00  0.00    -0.108 C  
BRANCH   9  10
HETATM   10  C   UNL     1      -7.701   7.783  72.193  1.00  0.00    -0.107 C  
HETATM   11  C   UNL     1      -8.019   8.631  70.982  1.00  0.00    -0.132 C  
HETATM   12  O   UNL     1      -7.484   9.871  71.072  1.00  0.00    -0.289 OA 
HETATM   13  O   UNL     1      -8.676   8.273  70.019  1.00  0.00    -0.130 OA 
ENDBRANCH   9  10
ENDBRANCH   8   9
ENDBRANCH   7   8
ENDBRANCH   6   7
ENDBRANCH   5   6
ENDBRANCH   4   5
TORSDOF 6
ENDMDL
MODEL      205
REMARK 921   NORMALIZED FREE ENERGY PREDICTED BY IDOCK:   -2.74 KCAL/MOL
REMARK 922        TOTAL FREE ENERGY PREDICTED BY IDOCK:   -4.05 KCAL/MOL
REMARK 923 INTER-LIGAND FREE ENERGY PREDICTED BY IDOCK:   -3.60 KCAL/MOL
REMARK 924 INTRA-LIGAND FREE ENERGY PREDICTED BY IDOCK:   -0.45 KCAL/MOL
REMARK 927      BINDING AFFINITY PREDICTED BY RF-SCORE:    0.00 PKD
ROOT
HETATM    1  O   UNL     1      -6.789  10.573  65.121  1.00  0.00    -0.112 OA 
HETATM    2  C   UNL     1      -7.992   9.960  65.208  1.00  0.00    -0.137 C  
HETATM    3  O   UNL     1      -8.365   9.139  64.386  1.00  0.00    -0.156 OA 
HETATM    4  C   UNL     1      -8.780  10.412  66.419  1.00  0.00    -0.149 C  
ENDROOT
BRANCH   4   5
HETATM    5  C   UNL     1     -10.134   9.708  66.499  1.00  0.00    -0.314 C  
BRANCH   5   6
HETATM    6  C   UNL     1     -10.361   9.050  67.861  1.00  0.00    -0.290 C  
BRANCH   6   7
HETATM    7  C   UNL     1      -9.376   9.601  68.895  1.00  0.00    -0.151 C  
BRANCH   7   8
HETATM    8  C   UNL     1     -10.087  10.127  70.142  1.00  0.00    -0.197 C  
BRANCH   8   9
HETATM    9  C   UNL     1     -11.604  10.141  69.941  1.00  0.00    -0.290 C  
BRANCH   9  10
HETATM   10  C   UNL     1     -12.221  11.464  70.388  1.00  0.00    -0.450 C  
HETATM   11  C   UNL     1     -12.984  11.319  71.686  1.00  0.00    -0.432 C  
HETATM   12  O   UNL     1     -13.534  12.488  72.089  1.00  0.00    -0.532 OA 
HETATM   13  O   UNL     1     -13.111  10.286  72.321  1.00  0.00    -0.396 OA 
ENDBRANCH   9  10
ENDBRANCH   8   9
ENDBRANCH   7   8
ENDBRANCH   6   7
ENDBRANCH   5   6
ENDBRANCH   4   5
TORSDOF 6
ENDMDL
MODEL      206
REMARK 921   NORMALIZED FREE ENERGY PREDICTED BY IDOCK:   -2.73 KCAL/MOL
REMARK 922        TOTAL FREE ENERGY PREDICTED BY IDOCK:   -4.04 KCAL/MOL
REMARK 923 INTER-LIGAND FREE ENERGY PREDICTED BY IDOCK:   -3.64 KCAL/MOL
REMARK 924 INTRA-LIGAND FREE ENERGY PREDICTED BY IDOCK:   -0.40 KCAL/MOL
REMARK 927      BINDING AFFINITY PREDICTED BY RF-SCORE:    0.00 PKD
ROOT
HETATM    1  O   UNL     1      -8.861   7.548  67.736  1.00  0.00    -0.132 OA 
HETATM    2  C   UNL     1      -9.603   8.613  67.353  1.00  0.00    -0.159 C  
HETATM    3  O   UNL     1     -10.724   8.492  66.887  1.00  0.00    -0.265 OA 
HETATM    4  C   UNL     1      -8.881   9.925  67.575  1.00  0.00    -0.131 C  
ENDROOT
BRANCH   4   5
HETATM    5  C   UNL     1      -9.734  11.114  67.136  1.00  0.00    -0.199 C  
BRANCH   5   6
HETATM    6  C   UNL     1      -9.414  11.555  65.707  1.00  0.00    -0.255 C  
BRANCH   6   7
HETATM    7  C   UNL     1     -10.420  12.606  65.232  1.00  0.00    -0.312 C  
BRANCH   7   8
HETATM    8  C   UNL     1     -11.798  12.411  65.866  1.00  0.00    -0.467 C  
BRANCH   8   9
HETATM    9  C   UNL     1     -12.191  13.630  66.702  1.00  0.00    -0.437 C  
BRANCH   9  10
HETATM   10  C   UNL     1     -11.184  14.768  66.551  1.00  0.00    -0.342 C  
HETATM   11  C   UNL     1     -11.158  15.663  67.770  1.00  0.00    -0.311 C  
HETATM   12  O   UNL     1     -10.268  16.675  67.642  1.00  0.00    -0.269 OA 
HETATM   13  O   UNL     1     -11.845  15.521  68.767  1.00  0.00    -0.356 OA 
ENDBRANCH   9  10
ENDBRANCH   8   9
ENDBRANCH   7   8
ENDBRANCH   6   7
ENDBRANCH   5   6
ENDBRANCH   4   5
TORSDOF 6
ENDMDL
MODEL      207
REMARK 921   NORMALIZED FREE ENERGY PREDICTED BY IDOCK:   -2.73 KCAL/MOL
REMARK 922        TOTAL FREE ENERGY PREDICTED BY IDOCK:   -4.04 KCAL/MOL
REMARK 923 INTER-LIGAND FREE ENERGY PREDICTED BY IDOCK:   -3.76 KCAL/MOL
REMARK 924 INTRA-LIGAND FREE ENERGY PREDICTED BY IDOCK:   -0.28 KCAL/MOL
REMARK 927      BINDING AFFINITY PREDICTED BY RF-SCORE:    0.00 PKD
ROOT
HETATM    1  O   UNL     1     -13.319  13.333  72.004  1.00  0.00    -0.435 OA 
HETATM    2  C   UNL     1     -13.150  14.503  71.344  1.00  0.00    -0.353 C  
HETATM    3  O   UNL     1     -13.756  15.516  71.651  1.00  0.00    -0.478 OA 
HETATM    4  C   UNL     1     -12.146  14.386  70.218  1.00  0.00    -0.396 C  
ENDROOT
BRANCH   4   5
HETATM    5  C   UNL     1     -11.970  15.716  69.485  1.00  0.00    -0.363 C  
BRANCH   5   6
HETATM    6  C   UNL     1     -10.694  15.745  68.643  1.00  0.00    -0.263 C  
BRANCH   6   7
HETATM    7  C   UNL     1     -10.072  14.349  68.562  1.00  0.00    -0.244 C  
BRANCH   7   8
HETATM    8  C   UNL     1     -10.155  13.765  67.151  1.00  0.00    -0.241 C  
BRANCH   8   9
HETATM    9  C   UNL     1      -9.183  12.595  66.986  1.00  0.00    -0.212 C  
BRANCH   9  10
HETATM   10  C   UNL     1      -9.528  11.741  65.768  1.00  0.00    -0.232 C  
HETATM   11  C   UNL     1      -9.537  10.265  66.099  1.00  0.00    -0.197 C  
HETATM   12  O   UNL     1      -9.842   9.502  65.024  1.00  0.00    -0.203 OA 
HETATM   13  O   UNL     1      -9.301   9.783  67.194  1.00  0.00    -0.139 OA 
ENDBRANCH   9  10
ENDBRANCH   8   9
ENDBRANCH   7   8
ENDBRANCH   6   7
ENDBRANCH   5   6
ENDBRANCH   4   5
TORSDOF 6
ENDMDL
MODEL      208
REMARK 921   NORMALIZED FREE ENERGY PREDICTED BY IDOCK:   -2.72 KCAL/MOL
REMARK 922        TOTAL FREE ENERGY PREDICTED BY IDOCK:   -4.03 KCAL/MOL
REMARK 923 INTER-LIGAND FREE ENERGY PREDICTED BY IDOCK:   -3.50 KCAL/MOL
REMARK 924 INTRA-LIGAND FREE ENERGY PREDICTED BY IDOCK:   -0.53 KCAL/MOL
REMARK 927      BINDING AFFINITY PREDICTED BY RF-SCORE:    0.00 PKD
ROOT
HETATM    1  O   UNL     1     -10.491   4.633  66.197  1.00  0.00    -0.289 OA 
HETATM    2  C   UNL     1     -10.485   5.384  67.324  1.00  0.00    -0.210 C  
HETATM    3  O   UNL     1     -10.181   4.921  68.412  1.00  0.00    -0.121 OA 
HETATM    4  C   UNL     1     -10.889   6.818  67.061  1.00  0.00    -0.453 C  
ENDROOT
BRANCH   4   5
HETATM    5  C   UNL     1     -10.876   7.647  68.344  1.00  0.00    -0.011 C  
BRANCH   5   6
HETATM    6  C   UNL     1      -9.646   8.553  68.432  1.00  0.00    -0.157 C  
BRANCH   6   7
HETATM    7  C   UNL     1      -9.799   9.558  69.575  1.00  0.00    -0.205 C  
BRANCH   7   8
HETATM    8  C   UNL     1     -11.260   9.947  69.807  1.00  0.00    -0.279 C  
BRANCH   8   9
HETATM    9  C   UNL     1     -11.634   9.809  71.284  1.00  0.00    -0.465 C  
BRANCH   9  10
HETATM   10  C   UNL     1     -11.094   8.513  71.886  1.00  0.00    -0.395 C  
HETATM   11  C   UNL     1     -12.160   7.445  71.973  1.00  0.00    -0.289 C  
HETATM   12  O   UNL     1     -11.688   6.294  72.506  1.00  0.00    -0.274 OA 
HETATM   13  O   UNL     1     -13.320   7.571  71.617  1.00  0.00    -0.353 OA 
ENDBRANCH   9  10
ENDBRANCH   8   9
ENDBRANCH   7   8
ENDBRANCH   6   7
ENDBRANCH   5   6
ENDBRANCH   4   5
TORSDOF 6
ENDMDL
MODEL      209
REMARK 921   NORMALIZED FREE ENERGY PREDICTED BY IDOCK:   -2.72 KCAL/MOL
REMARK 922        TOTAL FREE ENERGY PREDICTED BY IDOCK:   -4.02 KCAL/MOL
REMARK 923 INTER-LIGAND FREE ENERGY PREDICTED BY IDOCK:   -3.56 KCAL/MOL
REMARK 924 INTRA-LIGAND FREE ENERGY PREDICTED BY IDOCK:   -0.46 KCAL/MOL
REMARK 927      BINDING AFFINITY PREDICTED BY RF-SCORE:    0.00 PKD
ROOT
HETATM    1  O   UNL     1     -12.453   9.279  71.706  1.00  0.00    -0.332 OA 
HETATM    2  C   UNL     1     -12.502   7.934  71.848  1.00  0.00    -0.321 C  
HETATM    3  O   UNL     1     -13.432   7.269  71.423  1.00  0.00    -0.388 OA 
HETATM    4  C   UNL     1     -11.293   7.389  72.576  1.00  0.00    -0.358 C  
ENDROOT
BRANCH   4   5
HETATM    5  C   UNL     1     -11.368   5.870  72.726  1.00  0.00    -0.305 C  
BRANCH   5   6
HETATM    6  C   UNL     1     -10.445   5.148  71.744  1.00  0.00    -0.268 C  
BRANCH   6   7
HETATM    7  C   UNL     1     -10.040   6.082  70.601  1.00  0.00    -0.246 C  
BRANCH   7   8
HETATM    8  C   UNL     1     -10.895   5.866  69.352  1.00  0.00    -0.422 C  
BRANCH   8   9
HETATM    9  C   UNL     1     -10.660   6.980  68.330  1.00  0.00    -0.238 C  
BRANCH   9  10
HETATM   10  C   UNL     1      -9.484   7.870  68.725  1.00  0.00    -0.147 C  
HETATM   11  C   UNL     1      -9.901   9.314  68.890  1.00  0.00    -0.165 C  
HETATM   12  O   UNL     1      -8.863  10.109  69.240  1.00  0.00    -0.161 OA 
HETATM   13  O   UNL     1     -11.030   9.748  68.734  1.00  0.00    -0.213 OA 
ENDBRANCH   9  10
ENDBRANCH   8   9
ENDBRANCH   7   8
ENDBRANCH   6   7
ENDBRANCH   5   6
ENDBRANCH   4   5
TORSDOF 6
ENDMDL
MODEL      210
REMARK 921   NORMALIZED FREE ENERGY PREDICTED BY IDOCK:   -2.71 KCAL/MOL
REMARK 922        TOTAL FREE ENERGY PREDICTED BY IDOCK:   -4.02 KCAL/MOL
REMARK 923 INTER-LIGAND FREE ENERGY PREDICTED BY IDOCK:   -3.59 KCAL/MOL
REMARK 924 INTRA-LIGAND FREE ENERGY PREDICTED BY IDOCK:   -0.43 KCAL/MOL
REMARK 927      BINDING AFFINITY PREDICTED BY RF-SCORE:    0.00 PKD
ROOT
HETATM    1  O   UNL     1      -7.884   6.700  66.261  1.00  0.00    -0.099 OA 
HETATM    2  C   UNL     1      -8.911   7.579  66.186  1.00  0.00    -0.159 C  
HETATM    3  O   UNL     1     -10.007   7.340  66.666  1.00  0.00    -0.211 OA 
HETATM    4  C   UNL     1      -8.528   8.849  65.457  1.00  0.00    -0.174 C  
ENDROOT
BRANCH   4   5
HETATM    5  C   UNL     1      -9.700   9.826  65.384  1.00  0.00    -0.383 C  
BRANCH   5   6
HETATM    6  C   UNL     1      -9.572  10.956  66.406  1.00  0.00    -0.229 C  
BRANCH   6   7
HETATM    7  C   UNL     1     -10.446  10.676  67.630  1.00  0.00    -0.267 C  
BRANCH   7   8
HETATM    8  C   UNL     1     -11.499  11.764  67.845  1.00  0.00    -0.387 C  
BRANCH   8   9
HETATM    9  C   UNL     1     -11.595  12.680  66.622  1.00  0.00    -0.443 C  
BRANCH   9  10
HETATM   10  C   UNL     1     -12.045  14.088  67.006  1.00  0.00    -0.455 C  
HETATM   11  C   UNL     1     -10.870  14.996  67.291  1.00  0.00    -0.310 C  
HETATM   12  O   UNL     1     -11.261  16.246  67.632  1.00  0.00    -0.244 OA 
HETATM   13  O   UNL     1      -9.695  14.674  67.232  1.00  0.00    -0.225 OA 
ENDBRANCH   9  10
ENDBRANCH   8   9
ENDBRANCH   7   8
ENDBRANCH   6   7
ENDBRANCH   5   6
ENDBRANCH   4   5
TORSDOF 6
ENDMDL
MODEL      211
REMARK 921   NORMALIZED FREE ENERGY PREDICTED BY IDOCK:   -2.71 KCAL/MOL
REMARK 922        TOTAL FREE ENERGY PREDICTED BY IDOCK:   -4.01 KCAL/MOL
REMARK 923 INTER-LIGAND FREE ENERGY PREDICTED BY IDOCK:   -3.49 KCAL/MOL
REMARK 924 INTRA-LIGAND FREE ENERGY PREDICTED BY IDOCK:   -0.53 KCAL/MOL
REMARK 927      BINDING AFFINITY PREDICTED BY RF-SCORE:    0.00 PKD
ROOT
HETATM    1  O   UNL     1      -9.996  10.609  68.308  1.00  0.00    -0.151 OA 
HETATM    2  C   UNL     1     -10.250   9.325  67.959  1.00  0.00    -0.209 C  
HETATM    3  O   UNL     1     -10.398   8.984  66.798  1.00  0.00    -0.261 OA 
HETATM    4  C   UNL     1     -10.320   8.408  69.161  1.00  0.00    -0.229 C  
ENDROOT
BRANCH   4   5
HETATM    5  C   UNL     1     -10.608   6.965  68.747  1.00  0.00    -0.247 C  
BRANCH   5   6
HETATM    6  C   UNL     1     -11.060   6.107  69.928  1.00  0.00    -0.481 C  
BRANCH   6   7
HETATM    7  C   UNL     1     -12.237   6.765  70.652  1.00  0.00    -0.312 C  
BRANCH   7   8
HETATM    8  C   UNL     1     -12.159   6.573  72.167  1.00  0.00    -0.309 C  
BRANCH   8   9
HETATM    9  C   UNL     1     -10.707   6.414  72.624  1.00  0.00    -0.262 C  
BRANCH   9  10
HETATM   10  C   UNL     1     -10.150   7.715  73.197  1.00  0.00    -0.382 C  
HETATM   11  C   UNL     1      -8.760   7.531  73.765  1.00  0.00    -0.223 C  
HETATM   12  O   UNL     1      -8.260   8.681  74.275  1.00  0.00    -0.317 OA 
HETATM   13  O   UNL     1      -8.134   6.485  73.779  1.00  0.00    -0.104 OA 
ENDBRANCH   9  10
ENDBRANCH   8   9
ENDBRANCH   7   8
ENDBRANCH   6   7
ENDBRANCH   5   6
ENDBRANCH   4   5
TORSDOF 6
ENDMDL
MODEL      212
REMARK 921   NORMALIZED FREE ENERGY PREDICTED BY IDOCK:   -2.71 KCAL/MOL
REMARK 922        TOTAL FREE ENERGY PREDICTED BY IDOCK:   -4.01 KCAL/MOL
REMARK 923 INTER-LIGAND FREE ENERGY PREDICTED BY IDOCK:   -3.54 KCAL/MOL
REMARK 924 INTRA-LIGAND FREE ENERGY PREDICTED BY IDOCK:   -0.47 KCAL/MOL
REMARK 927      BINDING AFFINITY PREDICTED BY RF-SCORE:    0.00 PKD
ROOT
HETATM    1  O   UNL     1      -7.369  10.218  70.367  1.00  0.00    -0.258 OA 
HETATM    2  C   UNL     1      -8.346   9.671  69.607  1.00  0.00    -0.168 C  
HETATM    3  O   UNL     1      -8.423   8.469  69.413  1.00  0.00    -0.123 OA 
HETATM    4  C   UNL     1      -9.294  10.713  69.054  1.00  0.00    -0.191 C  
ENDROOT
BRANCH   4   5
HETATM    5  C   UNL     1     -10.388  10.076  68.198  1.00  0.00    -0.228 C  
BRANCH   5   6
HETATM    6  C   UNL     1     -11.528  11.052  67.902  1.00  0.00    -0.358 C  
BRANCH   6   7
HETATM    7  C   UNL     1     -11.209  11.889  66.662  1.00  0.00    -0.384 C  
BRANCH   7   8
HETATM    8  C   UNL     1     -11.675  13.338  66.812  1.00  0.00    -0.434 C  
BRANCH   8   9
HETATM    9  C   UNL     1     -11.943  13.676  68.281  1.00  0.00    -0.385 C  
BRANCH   9  10
HETATM   10  C   UNL     1     -11.581  15.124  68.602  1.00  0.00    -0.358 C  
HETATM   11  C   UNL     1     -10.111  15.279  68.923  1.00  0.00    -0.225 C  
HETATM   12  O   UNL     1      -9.782  16.560  69.209  1.00  0.00    -0.250 OA 
HETATM   13  O   UNL     1      -9.290  14.378  68.933  1.00  0.00    -0.183 OA 
ENDBRANCH   9  10
ENDBRANCH   8   9
ENDBRANCH   7   8
ENDBRANCH   6   7
ENDBRANCH   5   6
ENDBRANCH   4   5
TORSDOF 6
ENDMDL
MODEL      213
REMARK 921   NORMALIZED FREE ENERGY PREDICTED BY IDOCK:   -2.71 KCAL/MOL
REMARK 922        TOTAL FREE ENERGY PREDICTED BY IDOCK:   -4.01 KCAL/MOL
REMARK 923 INTER-LIGAND FREE ENERGY PREDICTED BY IDOCK:   -3.70 KCAL/MOL
REMARK 924 INTRA-LIGAND FREE ENERGY PREDICTED BY IDOCK:   -0.31 KCAL/MOL
REMARK 927      BINDING AFFINITY PREDICTED BY RF-SCORE:    0.00 PKD
ROOT
HETATM    1  O   UNL     1     -10.969  19.960  65.407  1.00  0.00    -0.362 OA 
HETATM    2  C   UNL     1     -10.574  19.423  66.585  1.00  0.00    -0.467 C  
HETATM    3  O   UNL     1     -10.169  20.109  67.509  1.00  0.00    -0.402 OA 
HETATM    4  C   UNL     1     -10.700  17.915  66.600  1.00  0.00    -0.137 C  
ENDROOT
BRANCH   4   5
HETATM    5  C   UNL     1     -10.249  17.329  67.937  1.00  0.00    -0.332 C  
BRANCH   5   6
HETATM    6  C   UNL     1      -9.188  16.241  67.759  1.00  0.00    -0.203 C  
BRANCH   6   7
HETATM    7  C   UNL     1      -9.844  14.903  67.410  1.00  0.00    -0.221 C  
BRANCH   7   8
HETATM    8  C   UNL     1     -10.189  14.090  68.659  1.00  0.00    -0.233 C  
BRANCH   8   9
HETATM    9  C   UNL     1     -11.696  14.109  68.923  1.00  0.00    -0.369 C  
BRANCH   9  10
HETATM   10  C   UNL     1     -12.038  13.507  70.285  1.00  0.00    -0.425 C  
HETATM   11  C   UNL     1     -11.870  14.512  71.403  1.00  0.00    -0.249 C  
HETATM   12  O   UNL     1     -12.172  13.985  72.612  1.00  0.00     0.047 OA 
HETATM   13  O   UNL     1     -11.508  15.668  71.267  1.00  0.00    -0.343 OA 
ENDBRANCH   9  10
ENDBRANCH   8   9
ENDBRANCH   7   8
ENDBRANCH   6   7
ENDBRANCH   5   6
ENDBRANCH   4   5
TORSDOF 6
ENDMDL
MODEL      214
REMARK 921   NORMALIZED FREE ENERGY PREDICTED BY IDOCK:   -2.69 KCAL/MOL
REMARK 922        TOTAL FREE ENERGY PREDICTED BY IDOCK:   -3.99 KCAL/MOL
REMARK 923 INTER-LIGAND FREE ENERGY PREDICTED BY IDOCK:   -3.71 KCAL/MOL
REMARK 924 INTRA-LIGAND FREE ENERGY PREDICTED BY IDOCK:   -0.28 KCAL/MOL
REMARK 927      BINDING AFFINITY PREDICTED BY RF-SCORE:    0.00 PKD
ROOT
HETATM    1  O   UNL     1      -9.227  12.841  67.294  1.00  0.00    -0.189 OA 
HETATM    2  C   UNL     1      -9.940  12.016  68.096  1.00  0.00    -0.203 C  
HETATM    3  O   UNL     1      -9.409  11.167  68.794  1.00  0.00    -0.181 OA 
HETATM    4  C   UNL     1     -11.428  12.281  68.015  1.00  0.00    -0.378 C  
ENDROOT
BRANCH   4   5
HETATM    5  C   UNL     1     -12.214  11.340  68.926  1.00  0.00    -0.160 C  
BRANCH   5   6
HETATM    6  C   UNL     1     -12.158  11.777  70.391  1.00  0.00    -0.440 C  
BRANCH   6   7
HETATM    7  C   UNL     1     -12.005  10.563  71.309  1.00  0.00    -0.386 C  
BRANCH   7   8
HETATM    8  C   UNL     1     -13.116   9.534  71.091  1.00  0.00    -0.336 C  
BRANCH   8   9
HETATM    9  C   UNL     1     -13.073   8.448  72.168  1.00  0.00    -0.357 C  
BRANCH   9  10
HETATM   10  C   UNL     1     -11.639   8.089  72.552  1.00  0.00    -0.464 C  
HETATM   11  C   UNL     1     -11.401   6.597  72.507  1.00  0.00    -0.253 C  
HETATM   12  O   UNL     1     -10.131   6.271  72.846  1.00  0.00    -0.175 OA 
HETATM   13  O   UNL     1     -12.230   5.756  72.205  1.00  0.00    -0.188 OA 
ENDBRANCH   9  10
ENDBRANCH   8   9
ENDBRANCH   7   8
ENDBRANCH   6   7
ENDBRANCH   5   6
ENDBRANCH   4   5
TORSDOF 6
ENDMDL
MODEL      215
REMARK 921   NORMALIZED FREE ENERGY PREDICTED BY IDOCK:   -2.69 KCAL/MOL
REMARK 922        TOTAL FREE ENERGY PREDICTED BY IDOCK:   -3.98 KCAL/MOL
REMARK 923 INTER-LIGAND FREE ENERGY PREDICTED BY IDOCK:   -3.16 KCAL/MOL
REMARK 924 INTRA-LIGAND FREE ENERGY PREDICTED BY IDOCK:   -0.82 KCAL/MOL
REMARK 927      BINDING AFFINITY PREDICTED BY RF-SCORE:    0.00 PKD
ROOT
HETATM    1  O   UNL     1     -12.050  14.634  67.805  1.00  0.00    -0.314 OA 
HETATM    2  C   UNL     1     -12.090  13.282  67.744  1.00  0.00    -0.237 C  
HETATM    3  O   UNL     1     -12.231  12.683  66.691  1.00  0.00    -0.517 OA 
HETATM    4  C   UNL     1     -11.940  12.642  69.107  1.00  0.00    -0.293 C  
ENDROOT
BRANCH   4   5
HETATM    5  C   UNL     1     -11.989  11.118  69.017  1.00  0.00    -0.389 C  
BRANCH   5   6
HETATM    6  C   UNL     1     -10.654  10.476  69.397  1.00  0.00    -0.269 C  
BRANCH   6   7
HETATM    7  C   UNL     1      -9.486  11.346  68.928  1.00  0.00    -0.064 C  
BRANCH   7   8
HETATM    8  C   UNL     1      -8.979  10.931  67.546  1.00  0.00    -0.136 C  
BRANCH   8   9
HETATM    9  C   UNL     1      -8.604  12.157  66.711  1.00  0.00    -0.163 C  
BRANCH   9  10
HETATM   10  C   UNL     1      -8.286  13.364  67.591  1.00  0.00    -0.179 C  
HETATM   11  C   UNL     1      -8.693  14.664  66.933  1.00  0.00    -0.224 C  
HETATM   12  O   UNL     1      -8.415  15.738  67.708  1.00  0.00    -0.152 OA 
HETATM   13  O   UNL     1      -9.213  14.769  65.835  1.00  0.00    -0.227 OA 
ENDBRANCH   9  10
ENDBRANCH   8   9
ENDBRANCH   7   8
ENDBRANCH   6   7
ENDBRANCH   5   6
ENDBRANCH   4   5
TORSDOF 6
ENDMDL
MODEL      216
REMARK 921   NORMALIZED FREE ENERGY PREDICTED BY IDOCK:   -2.67 KCAL/MOL
REMARK 922        TOTAL FREE ENERGY PREDICTED BY IDOCK:   -3.95 KCAL/MOL
REMARK 923 INTER-LIGAND FREE ENERGY PREDICTED BY IDOCK:   -3.30 KCAL/MOL
REMARK 924 INTRA-LIGAND FREE ENERGY PREDICTED BY IDOCK:   -0.65 KCAL/MOL
REMARK 927      BINDING AFFINITY PREDICTED BY RF-SCORE:    0.00 PKD
ROOT
HETATM    1  O   UNL     1      -7.643  10.189  70.384  1.00  0.00    -0.249 OA 
HETATM    2  C   UNL     1      -8.538  10.147  69.368  1.00  0.00    -0.174 C  
HETATM    3  O   UNL     1      -8.209  10.311  68.205  1.00  0.00    -0.111 OA 
HETATM    4  C   UNL     1      -9.945   9.877  69.854  1.00  0.00    -0.292 C  
ENDROOT
BRANCH   4   5
HETATM    5  C   UNL     1     -10.939   9.834  68.694  1.00  0.00    -0.189 C  
BRANCH   5   6
HETATM    6  C   UNL     1     -11.973  10.957  68.780  1.00  0.00    -0.230 C  
BRANCH   6   7
HETATM    7  C   UNL     1     -11.386  12.175  69.498  1.00  0.00    -0.277 C  
BRANCH   7   8
HETATM    8  C   UNL     1     -11.309  13.398  68.584  1.00  0.00    -0.322 C  
BRANCH   8   9
HETATM    9  C   UNL     1     -10.037  13.366  67.734  1.00  0.00    -0.232 C  
BRANCH   9  10
HETATM   10  C   UNL     1     -10.301  13.836  66.305  1.00  0.00    -0.294 C  
HETATM   11  C   UNL     1     -10.333  12.680  65.329  1.00  0.00    -0.289 C  
HETATM   12  O   UNL     1     -10.567  13.090  64.060  1.00  0.00    -0.412 OA 
HETATM   13  O   UNL     1     -10.171  11.507  65.616  1.00  0.00    -0.229 OA 
ENDBRANCH   9  10
ENDBRANCH   8   9
ENDBRANCH   7   8
ENDBRANCH   6   7
ENDBRANCH   5   6
ENDBRANCH   4   5
TORSDOF 6
ENDMDL
MODEL      217
REMARK 921   NORMALIZED FREE ENERGY PREDICTED BY IDOCK:   -2.64 KCAL/MOL
REMARK 922        TOTAL FREE ENERGY PREDICTED BY IDOCK:   -3.92 KCAL/MOL
REMARK 923 INTER-LIGAND FREE ENERGY PREDICTED BY IDOCK:   -3.56 KCAL/MOL
REMARK 924 INTRA-LIGAND FREE ENERGY PREDICTED BY IDOCK:   -0.36 KCAL/MOL
REMARK 927      BINDING AFFINITY PREDICTED BY RF-SCORE:    0.00 PKD
ROOT
HETATM    1  O   UNL     1      -9.405  16.978  68.656  1.00  0.00    -0.256 OA 
HETATM    2  C   UNL     1     -10.064  16.085  67.880  1.00  0.00    -0.241 C  
HETATM    3  O   UNL     1     -10.765  16.431  66.943  1.00  0.00    -0.296 OA 
HETATM    4  C   UNL     1      -9.819  14.657  68.315  1.00  0.00    -0.222 C  
ENDROOT
BRANCH   4   5
HETATM    5  C   UNL     1     -10.571  13.666  67.428  1.00  0.00    -0.260 C  
BRANCH   5   6
HETATM    6  C   UNL     1     -11.834  13.130  68.105  1.00  0.00    -0.386 C  
BRANCH   6   7
HETATM    7  C   UNL     1     -11.605  11.707  68.619  1.00  0.00    -0.373 C  
BRANCH   7   8
HETATM    8  C   UNL     1     -10.938  10.817  67.570  1.00  0.00    -0.372 C  
BRANCH   8   9
HETATM    9  C   UNL     1     -10.594   9.446  68.155  1.00  0.00    -0.261 C  
BRANCH   9  10
HETATM   10  C   UNL     1     -10.851   9.393  69.659  1.00  0.00    -0.245 C  
HETATM   11  C   UNL     1     -10.601   8.013  70.226  1.00  0.00    -0.231 C  
HETATM   12  O   UNL     1     -10.827   7.960  71.559  1.00  0.00    -0.225 OA 
HETATM   13  O   UNL     1     -10.238   7.041  69.587  1.00  0.00    -0.192 OA 
ENDBRANCH   9  10
ENDBRANCH   8   9
ENDBRANCH   7   8
ENDBRANCH   6   7
ENDBRANCH   5   6
ENDBRANCH   4   5
TORSDOF 6
ENDMDL
MODEL      218
REMARK 921   NORMALIZED FREE ENERGY PREDICTED BY IDOCK:   -2.64 KCAL/MOL
REMARK 922        TOTAL FREE ENERGY PREDICTED BY IDOCK:   -3.92 KCAL/MOL
REMARK 923 INTER-LIGAND FREE ENERGY PREDICTED BY IDOCK:   -3.76 KCAL/MOL
REMARK 924 INTRA-LIGAND FREE ENERGY PREDICTED BY IDOCK:   -0.16 KCAL/MOL
REMARK 927      BINDING AFFINITY PREDICTED BY RF-SCORE:    0.00 PKD
ROOT
HETATM    1  O   UNL     1     -11.643  15.256  67.337  1.00  0.00    -0.303 OA 
HETATM    2  C   UNL     1     -11.822  13.942  67.062  1.00  0.00    -0.415 C  
HETATM    3  O   UNL     1     -12.081  13.543  65.939  1.00  0.00    -0.384 OA 
HETATM    4  C   UNL     1     -11.663  13.072  68.290  1.00  0.00    -0.390 C  
ENDROOT
BRANCH   4   5
HETATM    5  C   UNL     1     -11.869  11.595  67.958  1.00  0.00    -0.295 C  
BRANCH   5   6
HETATM    6  C   UNL     1     -10.736  11.035  67.097  1.00  0.00    -0.313 C  
BRANCH   6   7
HETATM    7  C   UNL     1     -10.067   9.848  67.794  1.00  0.00    -0.221 C  
BRANCH   7   8
HETATM    8  C   UNL     1      -9.437  10.248  69.129  1.00  0.00    -0.225 C  
BRANCH   8   9
HETATM    9  C   UNL     1      -9.482   9.085  70.124  1.00  0.00    -0.217 C  
BRANCH   9  10
HETATM   10  C   UNL     1      -9.996   7.804  69.471  1.00  0.00    -0.187 C  
HETATM   11  C   UNL     1     -10.739   6.930  70.457  1.00  0.00    -0.235 C  
HETATM   12  O   UNL     1     -11.198   5.792  69.885  1.00  0.00    -0.346 OA 
HETATM   13  O   UNL     1     -10.922   7.187  71.634  1.00  0.00    -0.226 OA 
ENDBRANCH   9  10
ENDBRANCH   8   9
ENDBRANCH   7   8
ENDBRANCH   6   7
ENDBRANCH   5   6
ENDBRANCH   4   5
TORSDOF 6
ENDMDL
MODEL      219
REMARK 921   NORMALIZED FREE ENERGY PREDICTED BY IDOCK:   -2.64 KCAL/MOL
REMARK 922        TOTAL FREE ENERGY PREDICTED BY IDOCK:   -3.91 KCAL/MOL
REMARK 923 INTER-LIGAND FREE ENERGY PREDICTED BY IDOCK:   -3.62 KCAL/MOL
REMARK 924 INTRA-LIGAND FREE ENERGY PREDICTED BY IDOCK:   -0.30 KCAL/MOL
REMARK 927      BINDING AFFINITY PREDICTED BY RF-SCORE:    0.00 PKD
ROOT
HETATM    1  O   UNL     1     -10.960  15.606  66.868  1.00  0.00    -0.315 OA 
HETATM    2  C   UNL     1     -11.621  14.514  67.321  1.00  0.00    -0.385 C  
HETATM    3  O   UNL     1     -12.497  13.969  66.672  1.00  0.00    -0.420 OA 
HETATM    4  C   UNL     1     -11.139  14.080  68.689  1.00  0.00    -0.286 C  
ENDROOT
BRANCH   4   5
HETATM    5  C   UNL     1     -11.897  12.848  69.182  1.00  0.00    -0.353 C  
BRANCH   5   6
HETATM    6  C   UNL     1     -10.994  11.617  69.277  1.00  0.00    -0.246 C  
BRANCH   6   7
HETATM    7  C   UNL     1      -9.838  11.720  68.279  1.00  0.00    -0.198 C  
BRANCH   7   8
HETATM    8  C   UNL     1      -9.609  10.408  67.529  1.00  0.00    -0.178 C  
BRANCH   8   9
HETATM    9  C   UNL     1     -10.739   9.414  67.808  1.00  0.00    -0.290 C  
BRANCH   9  10
HETATM   10  C   UNL     1     -10.238   8.190  68.572  1.00  0.00    -0.233 C  
HETATM   11  C   UNL     1     -10.666   6.899  67.910  1.00  0.00    -0.232 C  
HETATM   12  O   UNL     1     -10.226   5.810  68.582  1.00  0.00    -0.164 OA 
HETATM   13  O   UNL     1     -11.329   6.812  66.891  1.00  0.00    -0.318 OA 
ENDBRANCH   9  10
ENDBRANCH   8   9
ENDBRANCH   7   8
ENDBRANCH   6   7
ENDBRANCH   5   6
ENDBRANCH   4   5
TORSDOF 6
ENDMDL
MODEL      220
REMARK 921   NORMALIZED FREE ENERGY PREDICTED BY IDOCK:   -2.59 KCAL/MOL
REMARK 922        TOTAL FREE ENERGY PREDICTED BY IDOCK:   -3.85 KCAL/MOL
REMARK 923 INTER-LIGAND FREE ENERGY PREDICTED BY IDOCK:   -3.50 KCAL/MOL
REMARK 924 INTRA-LIGAND FREE ENERGY PREDICTED BY IDOCK:   -0.34 KCAL/MOL
REMARK 927      BINDING AFFINITY PREDICTED BY RF-SCORE:    0.00 PKD
ROOT
HETATM    1  O   UNL     1      -9.574  10.732  63.755  1.00  0.00    -0.240 OA 
HETATM    2  C   UNL     1      -9.969  10.628  65.045  1.00  0.00    -0.305 C  
HETATM    3  O   UNL     1     -10.060   9.552  65.612  1.00  0.00    -0.285 OA 
HETATM    4  C   UNL     1     -10.270  11.976  65.664  1.00  0.00    -0.284 C  
ENDROOT
BRANCH   4   5
HETATM    5  C   UNL     1     -10.715  11.836  67.119  1.00  0.00    -0.283 C  
BRANCH   5   6
HETATM    6  C   UNL     1     -12.022  12.580  67.395  1.00  0.00    -0.283 C  
BRANCH   6   7
HETATM    7  C   UNL     1     -11.913  14.041  66.954  1.00  0.00    -0.479 C  
BRANCH   7   8
HETATM    8  C   UNL     1     -11.881  14.999  68.145  1.00  0.00    -0.286 C  
BRANCH   8   9
HETATM    9  C   UNL     1     -11.640  16.438  67.682  1.00  0.00     0.282 C  
BRANCH   9  10
HETATM   10  C   UNL     1     -10.371  16.555  66.839  1.00  0.00    -0.300 C  
HETATM   11  C   UNL     1     -10.138  17.973  66.367  1.00  0.00    -0.384 C  
HETATM   12  O   UNL     1      -9.015  18.084  65.619  1.00  0.00    -0.307 OA 
HETATM   13  O   UNL     1     -10.856  18.927  66.611  1.00  0.00    -0.347 OA 
ENDBRANCH   9  10
ENDBRANCH   8   9
ENDBRANCH   7   8
ENDBRANCH   6   7
ENDBRANCH   5   6
ENDBRANCH   4   5
TORSDOF 6
ENDMDL
MODEL      221
REMARK 921   NORMALIZED FREE ENERGY PREDICTED BY IDOCK:   -2.58 KCAL/MOL
REMARK 922        TOTAL FREE ENERGY PREDICTED BY IDOCK:   -3.84 KCAL/MOL
REMARK 923 INTER-LIGAND FREE ENERGY PREDICTED BY IDOCK:   -3.42 KCAL/MOL
REMARK 924 INTRA-LIGAND FREE ENERGY PREDICTED BY IDOCK:   -0.41 KCAL/MOL
REMARK 927      BINDING AFFINITY PREDICTED BY RF-SCORE:    0.00 PKD
ROOT
HETATM    1  O   UNL     1      -5.535  17.478  65.423  1.00  0.00    -0.112 OA 
HETATM    2  C   UNL     1      -6.414  17.529  66.452  1.00  0.00    -0.248 C  
HETATM    3  O   UNL     1      -6.743  16.534  67.075  1.00  0.00    -0.175 OA 
HETATM    4  C   UNL     1      -6.912  18.934  66.712  1.00  0.00    -0.212 C  
ENDROOT
BRANCH   4   5
HETATM    5  C   UNL     1      -7.902  18.970  67.875  1.00  0.00    -0.301 C  
BRANCH   5   6
HETATM    6  C   UNL     1      -9.354  18.990  67.395  1.00  0.00    -0.345 C  
BRANCH   6   7
HETATM    7  C   UNL     1     -10.271  18.331  68.427  1.00  0.00    -0.402 C  
BRANCH   7   8
HETATM    8  C   UNL     1     -10.876  17.026  67.909  1.00  0.00    -0.302 C  
BRANCH   8   9
HETATM    9  C   UNL     1     -10.044  15.823  68.359  1.00  0.00    -0.222 C  
BRANCH   9  10
HETATM   10  C   UNL     1     -10.856  14.868  69.231  1.00  0.00    -0.272 C  
HETATM   11  C   UNL     1     -11.225  13.603  68.488  1.00  0.00    -0.280 C  
HETATM   12  O   UNL     1     -11.946  12.752  69.255  1.00  0.00    -0.289 OA 
HETATM   13  O   UNL     1     -10.926  13.347  67.335  1.00  0.00    -0.264 OA 
ENDBRANCH   9  10
ENDBRANCH   8   9
ENDBRANCH   7   8
ENDBRANCH   6   7
ENDBRANCH   5   6
ENDBRANCH   4   5
TORSDOF 6
ENDMDL
MODEL      222
REMARK 921   NORMALIZED FREE ENERGY PREDICTED BY IDOCK:   -2.58 KCAL/MOL
REMARK 922        TOTAL FREE ENERGY PREDICTED BY IDOCK:   -3.83 KCAL/MOL
REMARK 923 INTER-LIGAND FREE ENERGY PREDICTED BY IDOCK:   -3.50 KCAL/MOL
REMARK 924 INTRA-LIGAND FREE ENERGY PREDICTED BY IDOCK:   -0.33 KCAL/MOL
REMARK 927      BINDING AFFINITY PREDICTED BY RF-SCORE:    0.00 PKD
ROOT
HETATM    1  O   UNL     1      -7.636   8.365  63.296  1.00  0.00    -0.114 OA 
HETATM    2  C   UNL     1      -8.048   7.693  64.396  1.00  0.00    -0.084 C  
HETATM    3  O   UNL     1      -8.039   6.475  64.455  1.00  0.00    -0.118 OA 
HETATM    4  C   UNL     1      -8.501   8.623  65.501  1.00  0.00    -0.181 C  
ENDROOT
BRANCH   4   5
HETATM    5  C   UNL     1      -8.962   7.845  66.733  1.00  0.00    -0.169 C  
BRANCH   5   6
HETATM    6  C   UNL     1     -10.485   7.824  66.863  1.00  0.00    -0.388 C  
BRANCH   6   7
HETATM    7  C   UNL     1     -10.983   6.399  67.112  1.00  0.00    -0.476 C  
BRANCH   7   8
HETATM    8  C   UNL     1     -10.391   5.798  68.388  1.00  0.00    -0.269 C  
BRANCH   8   9
HETATM    9  C   UNL     1     -11.111   6.333  69.628  1.00  0.00    -0.479 C  
BRANCH   9  10
HETATM   10  C   UNL     1     -10.593   5.680  70.907  1.00  0.00    -0.328 C  
HETATM   11  C   UNL     1     -11.474   5.992  72.096  1.00  0.00    -0.302 C  
HETATM   12  O   UNL     1     -11.020   5.416  73.234  1.00  0.00    -0.270 OA 
HETATM   13  O   UNL     1     -12.481   6.678  72.069  1.00  0.00    -0.325 OA 
ENDBRANCH   9  10
ENDBRANCH   8   9
ENDBRANCH   7   8
ENDBRANCH   6   7
ENDBRANCH   5   6
ENDBRANCH   4   5
TORSDOF 6
ENDMDL
MODEL      223
REMARK 921   NORMALIZED FREE ENERGY PREDICTED BY IDOCK:   -2.56 KCAL/MOL
REMARK 922        TOTAL FREE ENERGY PREDICTED BY IDOCK:   -3.81 KCAL/MOL
REMARK 923 INTER-LIGAND FREE ENERGY PREDICTED BY IDOCK:   -3.39 KCAL/MOL
REMARK 924 INTRA-LIGAND FREE ENERGY PREDICTED BY IDOCK:   -0.42 KCAL/MOL
REMARK 927      BINDING AFFINITY PREDICTED BY RF-SCORE:    0.00 PKD
ROOT
HETATM    1  O   UNL     1     -12.455   9.321  71.661  1.00  0.00    -0.324 OA 
HETATM    2  C   UNL     1     -12.484   7.970  71.579  1.00  0.00    -0.310 C  
HETATM    3  O   UNL     1     -13.523   7.350  71.420  1.00  0.00    -0.375 OA 
HETATM    4  C   UNL     1     -11.106   7.358  71.705  1.00  0.00    -0.269 C  
ENDROOT
BRANCH   4   5
HETATM    5  C   UNL     1     -11.161   5.834  71.611  1.00  0.00    -0.290 C  
BRANCH   5   6
HETATM    6  C   UNL     1     -10.390   5.304  70.401  1.00  0.00    -0.345 C  
BRANCH   6   7
HETATM    7  C   UNL     1     -10.204   6.408  69.357  1.00  0.00    -0.230 C  
BRANCH   7   8
HETATM    8  C   UNL     1     -10.975   6.114  68.069  1.00  0.00    -0.399 C  
BRANCH   8   9
HETATM    9  C   UNL     1     -10.780   7.237  67.047  1.00  0.00    -0.406 C  
BRANCH   9  10
HETATM   10  C   UNL     1      -9.510   8.039  67.326  1.00  0.00    -0.196 C  
HETATM   11  C   UNL     1      -8.557   8.010  66.152  1.00  0.00    -0.148 C  
HETATM   12  O   UNL     1      -7.429   8.719  66.393  1.00  0.00    -0.086 OA 
HETATM   13  O   UNL     1      -8.748   7.427  65.099  1.00  0.00    -0.017 OA 
ENDBRANCH   9  10
ENDBRANCH   8   9
ENDBRANCH   7   8
ENDBRANCH   6   7
ENDBRANCH   5   6
ENDBRANCH   4   5
TORSDOF 6
ENDMDL
MODEL      224
REMARK 921   NORMALIZED FREE ENERGY PREDICTED BY IDOCK:   -2.56 KCAL/MOL
REMARK 922        TOTAL FREE ENERGY PREDICTED BY IDOCK:   -3.81 KCAL/MOL
REMARK 923 INTER-LIGAND FREE ENERGY PREDICTED BY IDOCK:   -3.39 KCAL/MOL
REMARK 924 INTRA-LIGAND FREE ENERGY PREDICTED BY IDOCK:   -0.42 KCAL/MOL
REMARK 927      BINDING AFFINITY PREDICTED BY RF-SCORE:    0.00 PKD
ROOT
HETATM    1  O   UNL     1     -12.504  13.144  70.792  1.00  0.00    -0.349 OA 
HETATM    2  C   UNL     1     -12.171  13.836  69.677  1.00  0.00    -0.305 C  
HETATM    3  O   UNL     1     -12.123  15.055  69.658  1.00  0.00    -0.308 OA 
HETATM    4  C   UNL     1     -11.878  12.927  68.503  1.00  0.00    -0.350 C  
ENDROOT
BRANCH   4   5
HETATM    5  C   UNL     1     -11.505  13.726  67.256  1.00  0.00    -0.367 C  
BRANCH   5   6
HETATM    6  C   UNL     1     -10.005  13.670  66.963  1.00  0.00    -0.248 C  
BRANCH   6   7
HETATM    7  C   UNL     1      -9.270  12.909  68.068  1.00  0.00    -0.212 C  
BRANCH   7   8
HETATM    8  C   UNL     1      -7.915  12.380  67.597  1.00  0.00    -0.164 C  
BRANCH   8   9
HETATM    9  C   UNL     1      -8.091  11.181  66.662  1.00  0.00    -0.159 C  
BRANCH   9  10
HETATM   10  C   UNL     1      -9.089  10.170  67.222  1.00  0.00    -0.151 C  
HETATM   11  C   UNL     1      -9.555   9.195  66.165  1.00  0.00    -0.266 C  
HETATM   12  O   UNL     1     -10.440   8.295  66.654  1.00  0.00    -0.305 OA 
HETATM   13  O   UNL     1      -9.198   9.189  64.999  1.00  0.00    -0.208 OA 
ENDBRANCH   9  10
ENDBRANCH   8   9
ENDBRANCH   7   8
ENDBRANCH   6   7
ENDBRANCH   5   6
ENDBRANCH   4   5
TORSDOF 6
ENDMDL
MODEL      225
REMARK 921   NORMALIZED FREE ENERGY PREDICTED BY IDOCK:   -2.53 KCAL/MOL
REMARK 922        TOTAL FREE ENERGY PREDICTED BY IDOCK:   -3.77 KCAL/MOL
REMARK 923 INTER-LIGAND FREE ENERGY PREDICTED BY IDOCK:   -3.46 KCAL/MOL
REMARK 924 INTRA-LIGAND FREE ENERGY PREDICTED BY IDOCK:   -0.31 KCAL/MOL
REMARK 927      BINDING AFFINITY PREDICTED BY RF-SCORE:    0.00 PKD
ROOT
HETATM    1  O   UNL     1      -8.142  11.165  68.375  1.00  0.00    -0.125 OA 
HETATM    2  C   UNL     1      -8.721  12.295  67.907  1.00  0.00    -0.177 C  
HETATM    3  O   UNL     1      -8.073  13.288  67.621  1.00  0.00    -0.148 OA 
HETATM    4  C   UNL     1     -10.224  12.163  67.790  1.00  0.00    -0.207 C  
ENDROOT
BRANCH   4   5
HETATM    5  C   UNL     1     -10.859  13.448  67.260  1.00  0.00    -0.278 C  
BRANCH   5   6
HETATM    6  C   UNL     1     -11.788  14.096  68.288  1.00  0.00    -0.391 C  
BRANCH   6   7
HETATM    7  C   UNL     1     -11.887  15.604  68.047  1.00  0.00    -0.032 C  
BRANCH   7   8
HETATM    8  C   UNL     1     -10.513  16.276  68.038  1.00  0.00    -0.293 C  
BRANCH   8   9
HETATM    9  C   UNL     1     -10.606  17.702  67.490  1.00  0.00    -0.345 C  
BRANCH   9  10
HETATM   10  C   UNL     1      -9.325  18.492  67.751  1.00  0.00    -0.308 C  
HETATM   11  C   UNL     1      -9.276  19.769  66.942  1.00  0.00    -0.360 C  
HETATM   12  O   UNL     1      -8.143  20.474  67.169  1.00  0.00    -0.336 OA 
HETATM   13  O   UNL     1     -10.137  20.150  66.168  1.00  0.00    -0.456 OA 
ENDBRANCH   9  10
ENDBRANCH   8   9
ENDBRANCH   7   8
ENDBRANCH   6   7
ENDBRANCH   5   6
ENDBRANCH   4   5
TORSDOF 6
ENDMDL
MODEL      226
REMARK 921   NORMALIZED FREE ENERGY PREDICTED BY IDOCK:   -2.52 KCAL/MOL
REMARK 922        TOTAL FREE ENERGY PREDICTED BY IDOCK:   -3.76 KCAL/MOL
REMARK 923 INTER-LIGAND FREE ENERGY PREDICTED BY IDOCK:   -3.53 KCAL/MOL
REMARK 924 INTRA-LIGAND FREE ENERGY PREDICTED BY IDOCK:   -0.23 KCAL/MOL
REMARK 927      BINDING AFFINITY PREDICTED BY RF-SCORE:    0.00 PKD
ROOT
HETATM    1  O   UNL     1      -6.513   2.838  69.809  1.00  0.00    -0.028 OA 
HETATM    2  C   UNL     1      -7.859   2.980  69.768  1.00  0.00    -0.042 C  
HETATM    3  O   UNL     1      -8.573   2.228  69.126  1.00  0.00    -0.059 OA 
HETATM    4  C   UNL     1      -8.337   4.153  70.597  1.00  0.00    -0.086 C  
ENDROOT
BRANCH   4   5
HETATM    5  C   UNL     1      -9.857   4.297  70.537  1.00  0.00    -0.269 C  
BRANCH   5   6
HETATM    6  C   UNL     1     -10.352   5.507  71.330  1.00  0.00    -0.291 C  
BRANCH   6   7
HETATM    7  C   UNL     1     -11.394   6.287  70.526  1.00  0.00    -0.428 C  
BRANCH   7   8
HETATM    8  C   UNL     1     -12.493   6.865  71.419  1.00  0.00    -0.413 C  
BRANCH   8   9
HETATM    9  C   UNL     1     -11.938   7.967  72.324  1.00  0.00    -0.412 C  
BRANCH   9  10
HETATM   10  C   UNL     1     -12.893   9.155  72.419  1.00  0.00    -0.438 C  
HETATM   11  C   UNL     1     -12.377  10.356  71.659  1.00  0.00    -0.304 C  
HETATM   12  O   UNL     1     -13.219  11.413  71.739  1.00  0.00    -0.458 OA 
HETATM   13  O   UNL     1     -11.329  10.403  71.037  1.00  0.00    -0.306 OA 
ENDBRANCH   9  10
ENDBRANCH   8   9
ENDBRANCH   7   8
ENDBRANCH   6   7
ENDBRANCH   5   6
ENDBRANCH   4   5
TORSDOF 6
ENDMDL
MODEL      227
REMARK 921   NORMALIZED FREE ENERGY PREDICTED BY IDOCK:   -2.51 KCAL/MOL
REMARK 922        TOTAL FREE ENERGY PREDICTED BY IDOCK:   -3.75 KCAL/MOL
REMARK 923 INTER-LIGAND FREE ENERGY PREDICTED BY IDOCK:   -3.37 KCAL/MOL
REMARK 924 INTRA-LIGAND FREE ENERGY PREDICTED BY IDOCK:   -0.38 KCAL/MOL
REMARK 927      BINDING AFFINITY PREDICTED BY RF-SCORE:    0.00 PKD
ROOT
HETATM    1  O   UNL     1      -8.957   7.186  68.612  1.00  0.00    -0.132 OA 
HETATM    2  C   UNL     1      -9.777   7.907  67.812  1.00  0.00    -0.155 C  
HETATM    3  O   UNL     1     -10.193   7.476  66.750  1.00  0.00    -0.263 OA 
HETATM    4  C   UNL     1     -10.095   9.267  68.394  1.00  0.00    -0.215 C  
ENDROOT
BRANCH   4   5
HETATM    5  C   UNL     1     -11.020  10.065  67.477  1.00  0.00    -0.276 C  
BRANCH   5   6
HETATM    6  C   UNL     1     -10.264  11.129  66.681  1.00  0.00    -0.274 C  
BRANCH   6   7
HETATM    7  C   UNL     1      -9.677  12.186  67.619  1.00  0.00    -0.188 C  
BRANCH   7   8
HETATM    8  C   UNL     1      -9.768  13.594  67.028  1.00  0.00    -0.251 C  
BRANCH   8   9
HETATM    9  C   UNL     1     -11.183  14.158  67.177  1.00  0.00    -0.330 C  
BRANCH   9  10
HETATM   10  C   UNL     1     -11.223  15.331  68.154  1.00  0.00    -0.328 C  
HETATM   11  C   UNL     1     -11.925  14.966  69.443  1.00  0.00    -0.301 C  
HETATM   12  O   UNL     1     -11.964  16.002  70.314  1.00  0.00    -0.328 OA 
HETATM   13  O   UNL     1     -12.411  13.878  69.702  1.00  0.00    -0.328 OA 
ENDBRANCH   9  10
ENDBRANCH   8   9
ENDBRANCH   7   8
ENDBRANCH   6   7
ENDBRANCH   5   6
ENDBRANCH   4   5
TORSDOF 6
ENDMDL
MODEL      228
REMARK 921   NORMALIZED FREE ENERGY PREDICTED BY IDOCK:   -2.51 KCAL/MOL
REMARK 922        TOTAL FREE ENERGY PREDICTED BY IDOCK:   -3.75 KCAL/MOL
REMARK 923 INTER-LIGAND FREE ENERGY PREDICTED BY IDOCK:   -3.55 KCAL/MOL
REMARK 924 INTRA-LIGAND FREE ENERGY PREDICTED BY IDOCK:   -0.20 KCAL/MOL
REMARK 927      BINDING AFFINITY PREDICTED BY RF-SCORE:    0.00 PKD
ROOT
HETATM    1  O   UNL     1      -6.076   6.277  65.218  1.00  0.00    -0.028 OA 
HETATM    2  C   UNL     1      -7.097   6.725  65.987  1.00  0.00    -0.069 C  
HETATM    3  O   UNL     1      -7.830   5.967  66.600  1.00  0.00    -0.099 OA 
HETATM    4  C   UNL     1      -7.199   8.234  65.982  1.00  0.00    -0.072 C  
ENDROOT
BRANCH   4   5
HETATM    5  C   UNL     1      -8.356   8.719  66.854  1.00  0.00    -0.108 C  
BRANCH   5   6
HETATM    6  C   UNL     1      -9.529   9.235  66.019  1.00  0.00    -0.311 C  
BRANCH   6   7
HETATM    7  C   UNL     1     -10.068  10.544  66.600  1.00  0.00    -0.275 C  
BRANCH   7   8
HETATM    8  C   UNL     1      -9.976  11.697  65.600  1.00  0.00    -0.274 C  
BRANCH   8   9
HETATM    9  C   UNL     1     -10.897  12.849  66.009  1.00  0.00    -0.300 C  
BRANCH   9  10
HETATM   10  C   UNL     1     -10.504  14.156  65.324  1.00  0.00    -0.402 C  
HETATM   11  C   UNL     1     -11.684  14.810  64.640  1.00  0.00    -0.422 C  
HETATM   12  O   UNL     1     -11.343  15.969  64.030  1.00  0.00    -0.542 OA 
HETATM   13  O   UNL     1     -12.822  14.373  64.619  1.00  0.00    -0.643 OA 
ENDBRANCH   9  10
ENDBRANCH   8   9
ENDBRANCH   7   8
ENDBRANCH   6   7
ENDBRANCH   5   6
ENDBRANCH   4   5
TORSDOF 6
ENDMDL
MODEL      229
REMARK 921   NORMALIZED FREE ENERGY PREDICTED BY IDOCK:   -2.51 KCAL/MOL
REMARK 922        TOTAL FREE ENERGY PREDICTED BY IDOCK:   -3.74 KCAL/MOL
REMARK 923 INTER-LIGAND FREE ENERGY PREDICTED BY IDOCK:   -3.64 KCAL/MOL
REMARK 924 INTRA-LIGAND FREE ENERGY PREDICTED BY IDOCK:   -0.10 KCAL/MOL
REMARK 927      BINDING AFFINITY PREDICTED BY RF-SCORE:    0.00 PKD
ROOT
HETATM    1  O   UNL     1     -13.729  16.000  72.926  1.00  0.00    -0.565 OA 
HETATM    2  C   UNL     1     -13.609  15.237  71.814  1.00  0.00    -0.483 C  
HETATM    3  O   UNL     1     -14.403  15.304  70.891  1.00  0.00    -0.308 OA 
HETATM    4  C   UNL     1     -12.401  14.327  71.870  1.00  0.00    -0.329 C  
ENDROOT
BRANCH   4   5
HETATM    5  C   UNL     1     -12.283  13.475  70.608  1.00  0.00    -0.434 C  
BRANCH   5   6
HETATM    6  C   UNL     1     -11.604  14.230  69.464  1.00  0.00    -0.353 C  
BRANCH   6   7
HETATM    7  C   UNL     1     -12.248  13.869  68.124  1.00  0.00    -0.185 C  
BRANCH   7   8
HETATM    8  C   UNL     1     -11.518  12.718  67.429  1.00  0.00    -0.396 C  
BRANCH   8   9
HETATM    9  C   UNL     1     -11.744  11.400  68.173  1.00  0.00    -0.355 C  
BRANCH   9  10
HETATM   10  C   UNL     1     -10.434  10.815  68.696  1.00  0.00    -0.213 C  
HETATM   11  C   UNL     1     -10.647   9.488  69.389  1.00  0.00    -0.219 C  
HETATM   12  O   UNL     1      -9.489   8.963  69.855  1.00  0.00    -0.161 OA 
HETATM   13  O   UNL     1     -11.720   8.927  69.531  1.00  0.00     0.361 OA 
ENDBRANCH   9  10
ENDBRANCH   8   9
ENDBRANCH   7   8
ENDBRANCH   6   7
ENDBRANCH   5   6
ENDBRANCH   4   5
TORSDOF 6
ENDMDL
MODEL      230
REMARK 921   NORMALIZED FREE ENERGY PREDICTED BY IDOCK:   -2.49 KCAL/MOL
REMARK 922        TOTAL FREE ENERGY PREDICTED BY IDOCK:   -3.72 KCAL/MOL
REMARK 923 INTER-LIGAND FREE ENERGY PREDICTED BY IDOCK:   -2.98 KCAL/MOL
REMARK 924 INTRA-LIGAND FREE ENERGY PREDICTED BY IDOCK:   -0.74 KCAL/MOL
REMARK 927      BINDING AFFINITY PREDICTED BY RF-SCORE:    0.00 PKD
ROOT
HETATM    1  O   UNL     1     -11.724   8.136  70.852  1.00  0.00    -0.283 OA 
HETATM    2  C   UNL     1     -10.894   7.866  69.816  1.00  0.00    -0.202 C  
HETATM    3  O   UNL     1     -10.441   6.751  69.620  1.00  0.00    -0.196 OA 
HETATM    4  C   UNL     1     -10.619   9.089  68.969  1.00  0.00    -0.209 C  
ENDROOT
BRANCH   4   5
HETATM    5  C   UNL     1      -9.681   8.764  67.807  1.00  0.00    -0.194 C  
BRANCH   5   6
HETATM    6  C   UNL     1      -8.354   9.517  67.910  1.00  0.00    -0.115 C  
BRANCH   6   7
HETATM    7  C   UNL     1      -8.507  10.758  68.793  1.00  0.00    -0.148 C  
BRANCH   7   8
HETATM    8  C   UNL     1      -7.783  11.971  68.209  1.00  0.00    -0.127 C  
BRANCH   8   9
HETATM    9  C   UNL     1      -8.573  12.570  67.043  1.00  0.00    -0.188 C  
BRANCH   9  10
HETATM   10  C   UNL     1     -10.065  12.656  67.357  1.00  0.00    -0.218 C  
HETATM   11  C   UNL     1     -10.901  11.945  66.317  1.00  0.00    -0.282 C  
HETATM   12  O   UNL     1     -12.225  12.017  66.589  1.00  0.00    -0.550 OA 
HETATM   13  O   UNL     1     -10.468  11.364  65.336  1.00  0.00    -0.264 OA 
ENDBRANCH   9  10
ENDBRANCH   8   9
ENDBRANCH   7   8
ENDBRANCH   6   7
ENDBRANCH   5   6
ENDBRANCH   4   5
TORSDOF 6
ENDMDL
MODEL      231
REMARK 921   NORMALIZED FREE ENERGY PREDICTED BY IDOCK:   -2.49 KCAL/MOL
REMARK 922        TOTAL FREE ENERGY PREDICTED BY IDOCK:   -3.71 KCAL/MOL
REMARK 923 INTER-LIGAND FREE ENERGY PREDICTED BY IDOCK:   -3.25 KCAL/MOL
REMARK 924 INTRA-LIGAND FREE ENERGY PREDICTED BY IDOCK:   -0.47 KCAL/MOL
REMARK 927      BINDING AFFINITY PREDICTED BY RF-SCORE:    0.00 PKD
ROOT
HETATM    1  O   UNL     1     -10.353   7.514  68.199  1.00  0.00    -0.190 OA 
HETATM    2  C   UNL     1     -10.064   8.835  68.273  1.00  0.00    -0.188 C  
HETATM    3  O   UNL     1     -10.808   9.689  67.819  1.00  0.00    -0.270 OA 
HETATM    4  C   UNL     1      -8.747   9.096  68.969  1.00  0.00    -0.135 C  
ENDROOT
BRANCH   4   5
HETATM    5  C   UNL     1      -8.439  10.591  69.042  1.00  0.00    -0.159 C  
BRANCH   5   6
HETATM    6  C   UNL     1      -7.180  10.958  68.256  1.00  0.00    -0.084 C  
BRANCH   6   7
HETATM    7  C   UNL     1      -7.448  12.153  67.339  1.00  0.00    -0.156 C  
BRANCH   7   8
HETATM    8  C   UNL     1      -8.681  11.938  66.460  1.00  0.00    -0.158 C  
BRANCH   8   9
HETATM    9  C   UNL     1      -9.621  13.143  66.534  1.00  0.00    -0.268 C  
BRANCH   9  10
HETATM   10  C   UNL     1     -10.960  12.858  65.856  1.00  0.00    -0.300 C  
HETATM   11  C   UNL     1     -11.782  14.115  65.682  1.00  0.00    -0.357 C  
HETATM   12  O   UNL     1     -12.971  13.869  65.082  1.00  0.00    -0.744 OA 
HETATM   13  O   UNL     1     -11.447  15.234  66.030  1.00  0.00    -0.239 OA 
ENDBRANCH   9  10
ENDBRANCH   8   9
ENDBRANCH   7   8
ENDBRANCH   6   7
ENDBRANCH   5   6
ENDBRANCH   4   5
TORSDOF 6
ENDMDL
MODEL      232
REMARK 921   NORMALIZED FREE ENERGY PREDICTED BY IDOCK:   -2.49 KCAL/MOL
REMARK 922        TOTAL FREE ENERGY PREDICTED BY IDOCK:   -3.71 KCAL/MOL
REMARK 923 INTER-LIGAND FREE ENERGY PREDICTED BY IDOCK:   -3.16 KCAL/MOL
REMARK 924 INTRA-LIGAND FREE ENERGY PREDICTED BY IDOCK:   -0.55 KCAL/MOL
REMARK 927      BINDING AFFINITY PREDICTED BY RF-SCORE:    0.00 PKD
ROOT
HETATM    1  O   UNL     1     -10.776   2.993  73.037  1.00  0.00    -0.163 OA 
HETATM    2  C   UNL     1     -10.803   4.321  73.298  1.00  0.00    -0.238 C  
HETATM    3  O   UNL     1     -10.931   4.759  74.430  1.00  0.00    -0.321 OA 
HETATM    4  C   UNL     1     -10.657   5.156  72.044  1.00  0.00    -0.266 C  
ENDROOT
BRANCH   4   5
HETATM    5  C   UNL     1     -10.691   6.650  72.360  1.00  0.00    -0.252 C  
BRANCH   5   6
HETATM    6  C   UNL     1     -11.202   7.477  71.180  1.00  0.00    -0.277 C  
BRANCH   6   7
HETATM    7  C   UNL     1     -10.053   7.828  70.232  1.00  0.00    -0.195 C  
BRANCH   7   8
HETATM    8  C   UNL     1     -10.455   7.678  68.763  1.00  0.00    -0.208 C  
BRANCH   8   9
HETATM    9  C   UNL     1     -11.091   6.309  68.508  1.00  0.00    -0.397 C  
BRANCH   9  10
HETATM   10  C   UNL     1     -10.038   5.210  68.390  1.00  0.00    -0.205 C  
HETATM   11  C   UNL     1     -10.031   4.582  67.014  1.00  0.00    -0.179 C  
HETATM   12  O   UNL     1      -9.100   3.606  66.902  1.00  0.00    -0.140 OA 
HETATM   13  O   UNL     1     -10.764   4.893  66.091  1.00  0.00    -0.317 OA 
ENDBRANCH   9  10
ENDBRANCH   8   9
ENDBRANCH   7   8
ENDBRANCH   6   7
ENDBRANCH   5   6
ENDBRANCH   4   5
TORSDOF 6
ENDMDL
MODEL      233
REMARK 921   NORMALIZED FREE ENERGY PREDICTED BY IDOCK:   -2.47 KCAL/MOL
REMARK 922        TOTAL FREE ENERGY PREDICTED BY IDOCK:   -3.69 KCAL/MOL
REMARK 923 INTER-LIGAND FREE ENERGY PREDICTED BY IDOCK:   -3.42 KCAL/MOL
REMARK 924 INTRA-LIGAND FREE ENERGY PREDICTED BY IDOCK:   -0.27 KCAL/MOL
REMARK 927      BINDING AFFINITY PREDICTED BY RF-SCORE:    0.00 PKD
ROOT
HETATM    1  O   UNL     1     -13.073  12.484  64.487  1.00  0.00    -0.816 OA 
HETATM    2  C   UNL     1     -12.113  12.773  65.397  1.00  0.00    -0.462 C  
HETATM    3  O   UNL     1     -11.965  13.895  65.853  1.00  0.00    -0.366 OA 
HETATM    4  C   UNL     1     -11.283  11.561  65.759  1.00  0.00    -0.228 C  
ENDROOT
BRANCH   4   5
HETATM    5  C   UNL     1     -10.205  11.907  66.786  1.00  0.00    -0.232 C  
BRANCH   5   6
HETATM    6  C   UNL     1     -10.129  10.874  67.911  1.00  0.00    -0.199 C  
BRANCH   6   7
HETATM    7  C   UNL     1      -8.717  10.293  68.012  1.00  0.00    -0.122 C  
BRANCH   7   8
HETATM    8  C   UNL     1      -8.223  10.234  69.458  1.00  0.00    -0.165 C  
BRANCH   8   9
HETATM    9  C   UNL     1      -9.248   9.538  70.357  1.00  0.00    -0.305 C  
BRANCH   9  10
HETATM   10  C   UNL     1      -9.258   8.027  70.137  1.00  0.00    -0.152 C  
HETATM   11  C   UNL     1      -8.848   7.273  71.382  1.00  0.00    -0.130 C  
HETATM   12  O   UNL     1      -8.855   5.933  71.194  1.00  0.00    -0.134 OA 
HETATM   13  O   UNL     1      -8.540   7.780  72.447  1.00  0.00    -0.114 OA 
ENDBRANCH   9  10
ENDBRANCH   8   9
ENDBRANCH   7   8
ENDBRANCH   6   7
ENDBRANCH   5   6
ENDBRANCH   4   5
TORSDOF 6
ENDMDL
MODEL      234
REMARK 921   NORMALIZED FREE ENERGY PREDICTED BY IDOCK:   -2.47 KCAL/MOL
REMARK 922        TOTAL FREE ENERGY PREDICTED BY IDOCK:   -3.69 KCAL/MOL
REMARK 923 INTER-LIGAND FREE ENERGY PREDICTED BY IDOCK:   -3.45 KCAL/MOL
REMARK 924 INTRA-LIGAND FREE ENERGY PREDICTED BY IDOCK:   -0.24 KCAL/MOL
REMARK 927      BINDING AFFINITY PREDICTED BY RF-SCORE:    0.00 PKD
ROOT
HETATM    1  O   UNL     1      -8.441   7.859  67.212  1.00  0.00    -0.120 OA 
HETATM    2  C   UNL     1      -8.813   9.050  67.738  1.00  0.00    -0.124 C  
HETATM    3  O   UNL     1      -9.755   9.156  68.506  1.00  0.00    -0.150 OA 
HETATM    4  C   UNL     1      -7.933  10.186  67.263  1.00  0.00    -0.110 C  
ENDROOT
BRANCH   4   5
HETATM    5  C   UNL     1      -8.369  11.520  67.867  1.00  0.00    -0.136 C  
BRANCH   5   6
HETATM    6  C   UNL     1      -9.515  12.161  67.081  1.00  0.00    -0.190 C  
BRANCH   6   7
HETATM    7  C   UNL     1     -10.545  12.771  68.034  1.00  0.00    -0.238 C  
BRANCH   7   8
HETATM    8  C   UNL     1     -11.810  13.220  67.301  1.00  0.00    -0.421 C  
BRANCH   8   9
HETATM    9  C   UNL     1     -11.500  14.355  66.322  1.00  0.00    -0.361 C  
BRANCH   9  10
HETATM   10  C   UNL     1     -10.767  15.506  67.007  1.00  0.00    -0.321 C  
HETATM   11  C   UNL     1     -10.502  16.651  66.054  1.00  0.00    -0.298 C  
HETATM   12  O   UNL     1      -9.852  17.675  66.655  1.00  0.00    -0.281 OA 
HETATM   13  O   UNL     1     -10.821  16.681  64.878  1.00  0.00    -0.697 OA 
ENDBRANCH   9  10
ENDBRANCH   8   9
ENDBRANCH   7   8
ENDBRANCH   6   7
ENDBRANCH   5   6
ENDBRANCH   4   5
TORSDOF 6
ENDMDL
MODEL      235
REMARK 921   NORMALIZED FREE ENERGY PREDICTED BY IDOCK:   -2.47 KCAL/MOL
REMARK 922        TOTAL FREE ENERGY PREDICTED BY IDOCK:   -3.68 KCAL/MOL
REMARK 923 INTER-LIGAND FREE ENERGY PREDICTED BY IDOCK:   -3.13 KCAL/MOL
REMARK 924 INTRA-LIGAND FREE ENERGY PREDICTED BY IDOCK:   -0.56 KCAL/MOL
REMARK 927      BINDING AFFINITY PREDICTED BY RF-SCORE:    0.00 PKD
ROOT
HETATM    1  O   UNL     1      -6.282  13.552  68.697  1.00  0.00    -0.078 OA 
HETATM    2  C   UNL     1      -6.681  12.396  68.116  1.00  0.00    -0.075 C  
HETATM    3  O   UNL     1      -5.886  11.569  67.699  1.00  0.00    -0.046 OA 
HETATM    4  C   UNL     1      -8.188  12.274  68.058  1.00  0.00    -0.163 C  
ENDROOT
BRANCH   4   5
HETATM    5  C   UNL     1      -8.618  10.963  67.399  1.00  0.00    -0.127 C  
BRANCH   5   6
HETATM    6  C   UNL     1      -9.238  11.189  66.020  1.00  0.00    -0.223 C  
BRANCH   6   7
HETATM    7  C   UNL     1     -10.073  12.472  66.009  1.00  0.00    -0.268 C  
BRANCH   7   8
HETATM    8  C   UNL     1     -11.545  12.201  66.325  1.00  0.00    -0.424 C  
BRANCH   8   9
HETATM    9  C   UNL     1     -12.029  13.088  67.474  1.00  0.00    -0.360 C  
BRANCH   9  10
HETATM   10  C   UNL     1     -11.814  14.569  67.173  1.00  0.00    -0.412 C  
HETATM   11  C   UNL     1     -11.324  15.325  68.389  1.00  0.00    -0.329 C  
HETATM   12  O   UNL     1     -11.131  16.640  68.129  1.00  0.00    -0.361 OA 
HETATM   13  O   UNL     1     -11.118  14.841  69.488  1.00  0.00    -0.261 OA 
ENDBRANCH   9  10
ENDBRANCH   8   9
ENDBRANCH   7   8
ENDBRANCH   6   7
ENDBRANCH   5   6
ENDBRANCH   4   5
TORSDOF 6
ENDMDL
MODEL      236
REMARK 921   NORMALIZED FREE ENERGY PREDICTED BY IDOCK:   -2.45 KCAL/MOL
REMARK 922        TOTAL FREE ENERGY PREDICTED BY IDOCK:   -3.66 KCAL/MOL
REMARK 923 INTER-LIGAND FREE ENERGY PREDICTED BY IDOCK:   -3.36 KCAL/MOL
REMARK 924 INTRA-LIGAND FREE ENERGY PREDICTED BY IDOCK:   -0.30 KCAL/MOL
REMARK 927      BINDING AFFINITY PREDICTED BY RF-SCORE:    0.00 PKD
ROOT
HETATM    1  O   UNL     1     -13.294  13.251  72.119  1.00  0.00    -0.467 OA 
HETATM    2  C   UNL     1     -13.305  14.422  71.439  1.00  0.00    -0.349 C  
HETATM    3  O   UNL     1     -14.183  15.255  71.594  1.00  0.00    -0.492 OA 
HETATM    4  C   UNL     1     -12.126  14.551  70.500  1.00  0.00    -0.395 C  
ENDROOT
BRANCH   4   5
HETATM    5  C   UNL     1     -12.157  15.878  69.743  1.00  0.00    -0.231 C  
BRANCH   5   6
HETATM    6  C   UNL     1     -10.752  16.425  69.483  1.00  0.00    -0.325 C  
BRANCH   6   7
HETATM    7  C   UNL     1      -9.698  15.349  69.751  1.00  0.00    -0.219 C  
BRANCH   7   8
HETATM    8  C   UNL     1      -8.997  14.901  68.468  1.00  0.00    -0.179 C  
BRANCH   8   9
HETATM    9  C   UNL     1      -7.640  14.265  68.780  1.00  0.00    -0.130 C  
BRANCH   9  10
HETATM   10  C   UNL     1      -7.169  13.355  67.648  1.00  0.00    -0.167 C  
HETATM   11  C   UNL     1      -7.661  11.936  67.825  1.00  0.00    -0.130 C  
HETATM   12  O   UNL     1      -7.246  11.123  66.825  1.00  0.00    -0.131 OA 
HETATM   13  O   UNL     1      -8.350  11.535  68.747  1.00  0.00    -0.141 OA 
ENDBRANCH   9  10
ENDBRANCH   8   9
ENDBRANCH   7   8
ENDBRANCH   6   7
ENDBRANCH   5   6
ENDBRANCH   4   5
TORSDOF 6
ENDMDL
MODEL      237
REMARK 921   NORMALIZED FREE ENERGY PREDICTED BY IDOCK:   -2.45 KCAL/MOL
REMARK 922        TOTAL FREE ENERGY PREDICTED BY IDOCK:   -3.66 KCAL/MOL
REMARK 923 INTER-LIGAND FREE ENERGY PREDICTED BY IDOCK:   -3.26 KCAL/MOL
REMARK 924 INTRA-LIGAND FREE ENERGY PREDICTED BY IDOCK:   -0.40 KCAL/MOL
REMARK 927      BINDING AFFINITY PREDICTED BY RF-SCORE:    0.00 PKD
ROOT
HETATM    1  O   UNL     1      -7.276  12.426  66.972  1.00  0.00    -0.114 OA 
HETATM    2  C   UNL     1      -8.590  12.190  67.196  1.00  0.00    -0.185 C  
HETATM    3  O   UNL     1      -9.244  12.851  67.986  1.00  0.00    -0.199 OA 
HETATM    4  C   UNL     1      -9.117  11.041  66.364  1.00  0.00    -0.191 C  
ENDROOT
BRANCH   4   5
HETATM    5  C   UNL     1     -10.600  10.791  66.632  1.00  0.00    -0.291 C  
BRANCH   5   6
HETATM    6  C   UNL     1     -10.819   9.739  67.720  1.00  0.00    -0.306 C  
BRANCH   6   7
HETATM    7  C   UNL     1     -10.495   8.341  67.189  1.00  0.00    -0.386 C  
BRANCH   7   8
HETATM    8  C   UNL     1      -9.422   7.643  68.025  1.00  0.00    -0.151 C  
BRANCH   8   9
HETATM    9  C   UNL     1      -9.927   6.297  68.549  1.00  0.00    -0.163 C  
BRANCH   9  10
HETATM   10  C   UNL     1     -11.354   6.397  69.082  1.00  0.00    -0.366 C  
HETATM   11  C   UNL     1     -11.382   6.664  70.570  1.00  0.00    -0.358 C  
HETATM   12  O   UNL     1     -12.645   6.755  71.050  1.00  0.00    -0.347 OA 
HETATM   13  O   UNL     1     -10.403   6.788  71.286  1.00  0.00    -0.203 OA 
ENDBRANCH   9  10
ENDBRANCH   8   9
ENDBRANCH   7   8
ENDBRANCH   6   7
ENDBRANCH   5   6
ENDBRANCH   4   5
TORSDOF 6
ENDMDL
MODEL      238
REMARK 921   NORMALIZED FREE ENERGY PREDICTED BY IDOCK:   -2.39 KCAL/MOL
REMARK 922        TOTAL FREE ENERGY PREDICTED BY IDOCK:   -3.58 KCAL/MOL
REMARK 923 INTER-LIGAND FREE ENERGY PREDICTED BY IDOCK:   -3.33 KCAL/MOL
REMARK 924 INTRA-LIGAND FREE ENERGY PREDICTED BY IDOCK:   -0.25 KCAL/MOL
REMARK 927      BINDING AFFINITY PREDICTED BY RF-SCORE:    0.00 PKD
ROOT
HETATM    1  O   UNL     1     -10.088   5.395  73.904  1.00  0.00    -0.179 OA 
HETATM    2  C   UNL     1     -10.615   5.319  72.659  1.00  0.00    -0.228 C  
HETATM    3  O   UNL     1     -11.811   5.436  72.452  1.00  0.00    -0.149 OA 
HETATM    4  C   UNL     1      -9.559   5.079  71.602  1.00  0.00    -0.210 C  
ENDROOT
BRANCH   4   5
HETATM    5  C   UNL     1     -10.174   4.996  70.206  1.00  0.00    -0.328 C  
BRANCH   5   6
HETATM    6  C   UNL     1     -10.381   6.378  69.585  1.00  0.00    -0.249 C  
BRANCH   6   7
HETATM    7  C   UNL     1     -11.029   6.256  68.204  1.00  0.00    -0.412 C  
BRANCH   7   8
HETATM    8  C   UNL     1     -10.429   7.240  67.199  1.00  0.00    -0.394 C  
BRANCH   8   9
HETATM    9  C   UNL     1     -10.046   8.554  67.884  1.00  0.00    -0.258 C  
BRANCH   9  10
HETATM   10  C   UNL     1     -10.773   9.746  67.266  1.00  0.00    -0.296 C  
HETATM   11  C   UNL     1      -9.943  10.419  66.196  1.00  0.00    -0.231 C  
HETATM   12  O   UNL     1     -10.582  11.477  65.644  1.00  0.00    -0.261 OA 
HETATM   13  O   UNL     1      -8.826  10.076  65.846  1.00  0.00    -0.137 OA 
ENDBRANCH   9  10
ENDBRANCH   8   9
ENDBRANCH   7   8
ENDBRANCH   6   7
ENDBRANCH   5   6
ENDBRANCH   4   5
TORSDOF 6
ENDMDL
MODEL      239
REMARK 921   NORMALIZED FREE ENERGY PREDICTED BY IDOCK:   -2.38 KCAL/MOL
REMARK 922        TOTAL FREE ENERGY PREDICTED BY IDOCK:   -3.57 KCAL/MOL
REMARK 923 INTER-LIGAND FREE ENERGY PREDICTED BY IDOCK:   -3.21 KCAL/MOL
REMARK 924 INTRA-LIGAND FREE ENERGY PREDICTED BY IDOCK:   -0.36 KCAL/MOL
REMARK 927      BINDING AFFINITY PREDICTED BY RF-SCORE:    0.00 PKD
ROOT
HETATM    1  O   UNL     1     -10.713   4.325  65.486  1.00  0.00    -0.198 OA 
HETATM    2  C   UNL     1     -10.051   4.408  66.664  1.00  0.00    -0.167 C  
HETATM    3  O   UNL     1      -9.123   3.667  66.942  1.00  0.00    -0.140 OA 
HETATM    4  C   UNL     1     -10.597   5.504  67.553  1.00  0.00    -0.252 C  
ENDROOT
BRANCH   4   5
HETATM    5  C   UNL     1      -9.837   5.582  68.876  1.00  0.00    -0.213 C  
BRANCH   5   6
HETATM    6  C   UNL     1     -10.652   5.020  70.042  1.00  0.00    -0.100 C  
BRANCH   6   7
HETATM    7  C   UNL     1     -10.749   6.045  71.173  1.00  0.00    -0.323 C  
BRANCH   7   8
HETATM    8  C   UNL     1     -10.071   7.367  70.810  1.00  0.00    -0.190 C  
BRANCH   8   9
HETATM    9  C   UNL     1     -10.781   8.546  71.479  1.00  0.00    -0.330 C  
BRANCH   9  10
HETATM   10  C   UNL     1     -10.537   9.853  70.727  1.00  0.00    -0.309 C  
HETATM   11  C   UNL     1     -11.830  10.573  70.415  1.00  0.00    -0.340 C  
HETATM   12  O   UNL     1     -11.621  11.732  69.748  1.00  0.00    -0.295 OA 
HETATM   13  O   UNL     1     -12.946  10.184  70.713  1.00  0.00    -0.358 OA 
ENDBRANCH   9  10
ENDBRANCH   8   9
ENDBRANCH   7   8
ENDBRANCH   6   7
ENDBRANCH   5   6
ENDBRANCH   4   5
TORSDOF 6
ENDMDL
MODEL      240
REMARK 921   NORMALIZED FREE ENERGY PREDICTED BY IDOCK:   -2.35 KCAL/MOL
REMARK 922        TOTAL FREE ENERGY PREDICTED BY IDOCK:   -3.53 KCAL/MOL
REMARK 923 INTER-LIGAND FREE ENERGY PREDICTED BY IDOCK:   -3.08 KCAL/MOL
REMARK 924 INTRA-LIGAND FREE ENERGY PREDICTED BY IDOCK:   -0.45 KCAL/MOL
REMARK 927      BINDING AFFINITY PREDICTED BY RF-SCORE:    0.00 PKD
ROOT
HETATM    1  O   UNL     1      -9.628  10.423  64.527  1.00  0.00    -0.257 OA 
HETATM    2  C   UNL     1     -10.335  10.327  65.678  1.00  0.00    -0.162 C  
HETATM    3  O   UNL     1     -10.528   9.259  66.235  1.00  0.00    -0.188 OA 
HETATM    4  C   UNL     1     -10.832  11.672  66.160  1.00  0.00    -0.343 C  
ENDROOT
BRANCH   4   5
HETATM    5  C   UNL     1     -11.627  11.542  67.458  1.00  0.00    -0.322 C  
BRANCH   5   6
HETATM    6  C   UNL     1     -10.826  12.014  68.673  1.00  0.00    -0.273 C  
BRANCH   6   7
HETATM    7  C   UNL     1     -10.094  10.839  69.324  1.00  0.00    -0.200 C  
BRANCH   7   8
HETATM    8  C   UNL     1     -10.991  10.069  70.294  1.00  0.00    -0.377 C  
BRANCH   8   9
HETATM    9  C   UNL     1     -10.363   8.725  70.669  1.00  0.00    -0.253 C  
BRANCH   9  10
HETATM   10  C   UNL     1     -10.911   7.587  69.810  1.00  0.00    -0.234 C  
HETATM   11  C   UNL     1      -9.935   7.177  68.730  1.00  0.00    -0.163 C  
HETATM   12  O   UNL     1     -10.414   6.168  67.964  1.00  0.00    -0.176 OA 
HETATM   13  O   UNL     1      -8.838   7.674  68.540  1.00  0.00    -0.131 OA 
ENDBRANCH   9  10
ENDBRANCH   8   9
ENDBRANCH   7   8
ENDBRANCH   6   7
ENDBRANCH   5   6
ENDBRANCH   4   5
TORSDOF 6
ENDMDL
MODEL      241
REMARK 921   NORMALIZED FREE ENERGY PREDICTED BY IDOCK:   -2.33 KCAL/MOL
REMARK 922        TOTAL FREE ENERGY PREDICTED BY IDOCK:   -3.50 KCAL/MOL
REMARK 923 INTER-LIGAND FREE ENERGY PREDICTED BY IDOCK:   -3.00 KCAL/MOL
REMARK 924 INTRA-LIGAND FREE ENERGY PREDICTED BY IDOCK:   -0.49 KCAL/MOL
REMARK 927      BINDING AFFINITY PREDICTED BY RF-SCORE:    0.00 PKD
ROOT
HETATM    1  O   UNL     1      -8.678   6.338  66.603  1.00  0.00    -0.119 OA 
HETATM    2  C   UNL     1      -9.638   5.709  67.321  1.00  0.00    -0.119 C  
HETATM    3  O   UNL     1     -10.646   5.257  66.802  1.00  0.00    -0.273 OA 
HETATM    4  C   UNL     1      -9.304   5.646  68.795  1.00  0.00    -0.145 C  
ENDROOT
BRANCH   4   5
HETATM    5  C   UNL     1     -10.399   4.933  69.587  1.00  0.00    -0.177 C  
BRANCH   5   6
HETATM    6  C   UNL     1     -10.455   5.402  71.041  1.00  0.00    -0.302 C  
BRANCH   6   7
HETATM    7  C   UNL     1      -9.192   6.186  71.403  1.00  0.00    -0.149 C  
BRANCH   7   8
HETATM    8  C   UNL     1      -9.514   7.492  72.129  1.00  0.00    -0.185 C  
BRANCH   8   9
HETATM    9  C   UNL     1     -10.473   8.353  71.304  1.00  0.00    -0.273 C  
BRANCH   9  10
HETATM   10  C   UNL     1     -11.681   8.800  72.125  1.00  0.00    -0.433 C  
HETATM   11  C   UNL     1     -12.956   8.132  71.659  1.00  0.00    -0.331 C  
HETATM   12  O   UNL     1     -14.031   8.524  72.383  1.00  0.00    -0.364 OA 
HETATM   13  O   UNL     1     -13.043   7.333  70.744  1.00  0.00    -0.134 OA 
ENDBRANCH   9  10
ENDBRANCH   8   9
ENDBRANCH   7   8
ENDBRANCH   6   7
ENDBRANCH   5   6
ENDBRANCH   4   5
TORSDOF 6
ENDMDL
MODEL      242
REMARK 921   NORMALIZED FREE ENERGY PREDICTED BY IDOCK:   -2.33 KCAL/MOL
REMARK 922        TOTAL FREE ENERGY PREDICTED BY IDOCK:   -3.50 KCAL/MOL
REMARK 923 INTER-LIGAND FREE ENERGY PREDICTED BY IDOCK:   -3.09 KCAL/MOL
REMARK 924 INTRA-LIGAND FREE ENERGY PREDICTED BY IDOCK:   -0.41 KCAL/MOL
REMARK 927      BINDING AFFINITY PREDICTED BY RF-SCORE:    0.00 PKD
ROOT
HETATM    1  O   UNL     1      -7.436   5.879  65.287  1.00  0.00    -0.077 OA 
HETATM    2  C   UNL     1      -8.048   5.945  66.492  1.00  0.00    -0.102 C  
HETATM    3  O   UNL     1      -7.464   5.695  67.533  1.00  0.00    -0.079 OA 
HETATM    4  C   UNL     1      -9.499   6.358  66.376  1.00  0.00    -0.169 C  
ENDROOT
BRANCH   4   5
HETATM    5  C   UNL     1     -10.173   6.426  67.746  1.00  0.00    -0.196 C  
BRANCH   5   6
HETATM    6  C   UNL     1     -10.270   7.861  68.268  1.00  0.00    -0.240 C  
BRANCH   6   7
HETATM    7  C   UNL     1     -10.520   8.836  67.116  1.00  0.00    -0.354 C  
BRANCH   7   8
HETATM    8  C   UNL     1     -10.879  10.236  67.617  1.00  0.00    -0.363 C  
BRANCH   8   9
HETATM    9  C   UNL     1     -10.038  11.301  66.910  1.00  0.00    -0.246 C  
BRANCH   9  10
HETATM   10  C   UNL     1     -10.792  11.932  65.741  1.00  0.00    -0.341 C  
HETATM   11  C   UNL     1     -10.229  11.497  64.407  1.00  0.00    -0.300 C  
HETATM   12  O   UNL     1     -10.892  12.053  63.366  1.00  0.00    -0.407 OA 
HETATM   13  O   UNL     1      -9.288  10.737  64.249  1.00  0.00    -0.215 OA 
ENDBRANCH   9  10
ENDBRANCH   8   9
ENDBRANCH   7   8
ENDBRANCH   6   7
ENDBRANCH   5   6
ENDBRANCH   4   5
TORSDOF 6
ENDMDL
MODEL      243
REMARK 921   NORMALIZED FREE ENERGY PREDICTED BY IDOCK:   -2.32 KCAL/MOL
REMARK 922        TOTAL FREE ENERGY PREDICTED BY IDOCK:   -3.49 KCAL/MOL
REMARK 923 INTER-LIGAND FREE ENERGY PREDICTED BY IDOCK:   -3.18 KCAL/MOL
REMARK 924 INTRA-LIGAND FREE ENERGY PREDICTED BY IDOCK:   -0.31 KCAL/MOL
REMARK 927      BINDING AFFINITY PREDICTED BY RF-SCORE:    0.00 PKD
ROOT
HETATM    1  O   UNL     1      -9.234   7.379  66.531  1.00  0.00    -0.154 OA 
HETATM    2  C   UNL     1      -9.907   8.390  67.129  1.00  0.00    -0.215 C  
HETATM    3  O   UNL     1     -10.353   8.295  68.260  1.00  0.00    -0.203 OA 
HETATM    4  C   UNL     1     -10.023   9.607  66.238  1.00  0.00    -0.335 C  
ENDROOT
BRANCH   4   5
HETATM    5  C   UNL     1     -10.786  10.736  66.930  1.00  0.00    -0.309 C  
BRANCH   5   6
HETATM    6  C   UNL     1     -11.163  11.856  65.959  1.00  0.00    -0.377 C  
BRANCH   6   7
HETATM    7  C   UNL     1     -10.334  13.112  66.239  1.00  0.00    -0.291 C  
BRANCH   7   8
HETATM    8  C   UNL     1     -10.013  13.268  67.726  1.00  0.00    -0.223 C  
BRANCH   8   9
HETATM    9  C   UNL     1      -9.338  14.614  68.000  1.00  0.00    -0.198 C  
BRANCH   9  10
HETATM   10  C   UNL     1      -8.111  14.821  67.114  1.00  0.00    -0.226 C  
HETATM   11  C   UNL     1      -7.102  15.746  67.757  1.00  0.00    -0.151 C  
HETATM   12  O   UNL     1      -6.012  15.934  66.976  1.00  0.00    -0.331 OA 
HETATM   13  O   UNL     1      -7.222  16.277  68.847  1.00  0.00    -0.164 OA 
ENDBRANCH   9  10
ENDBRANCH   8   9
ENDBRANCH   7   8
ENDBRANCH   6   7
ENDBRANCH   5   6
ENDBRANCH   4   5
TORSDOF 6
ENDMDL
MODEL      244
REMARK 921   NORMALIZED FREE ENERGY PREDICTED BY IDOCK:   -2.31 KCAL/MOL
REMARK 922        TOTAL FREE ENERGY PREDICTED BY IDOCK:   -3.47 KCAL/MOL
REMARK 923 INTER-LIGAND FREE ENERGY PREDICTED BY IDOCK:   -2.98 KCAL/MOL
REMARK 924 INTRA-LIGAND FREE ENERGY PREDICTED BY IDOCK:   -0.49 KCAL/MOL
REMARK 927      BINDING AFFINITY PREDICTED BY RF-SCORE:    0.00 PKD
ROOT
HETATM    1  O   UNL     1     -12.133  12.145  67.625  1.00  0.00    -0.522 OA 
HETATM    2  C   UNL     1     -11.355  11.652  66.632  1.00  0.00    -0.270 C  
HETATM    3  O   UNL     1     -11.214  12.232  65.568  1.00  0.00    -0.310 OA 
HETATM    4  C   UNL     1     -10.709  10.337  67.009  1.00  0.00    -0.281 C  
ENDROOT
BRANCH   4   5
HETATM    5  C   UNL     1      -9.837   9.798  65.876  1.00  0.00    -0.352 C  
BRANCH   5   6
HETATM    6  C   UNL     1      -8.984   8.610  66.322  1.00  0.00    -0.211 C  
BRANCH   6   7
HETATM    7  C   UNL     1      -8.987   8.488  67.847  1.00  0.00    -0.139 C  
BRANCH   7   8
HETATM    8  C   UNL     1      -7.588   8.658  68.440  1.00  0.00    -0.096 C  
BRANCH   8   9
HETATM    9  C   UNL     1      -6.672   9.410  67.471  1.00  0.00    -0.068 C  
BRANCH   9  10
HETATM   10  C   UNL     1      -6.465  10.861  67.901  1.00  0.00    -0.062 C  
HETATM   11  C   UNL     1      -5.908  11.707  66.778  1.00  0.00    -0.140 C  
HETATM   12  O   UNL     1      -5.722  12.994  67.152  1.00  0.00    -0.349 OA 
HETATM   13  O   UNL     1      -5.645  11.310  65.656  1.00  0.00    -0.181 OA 
ENDBRANCH   9  10
ENDBRANCH   8   9
ENDBRANCH   7   8
ENDBRANCH   6   7
ENDBRANCH   5   6
ENDBRANCH   4   5
TORSDOF 6
ENDMDL
MODEL      245
REMARK 921   NORMALIZED FREE ENERGY PREDICTED BY IDOCK:   -2.29 KCAL/MOL
REMARK 922        TOTAL FREE ENERGY PREDICTED BY IDOCK:   -3.45 KCAL/MOL
REMARK 923 INTER-LIGAND FREE ENERGY PREDICTED BY IDOCK:   -3.23 KCAL/MOL
REMARK 924 INTRA-LIGAND FREE ENERGY PREDICTED BY IDOCK:   -0.22 KCAL/MOL
REMARK 927      BINDING AFFINITY PREDICTED BY RF-SCORE:    0.00 PKD
ROOT
HETATM    1  O   UNL     1     -10.713   3.553  72.804  1.00  0.00    -0.137 OA 
HETATM    2  C   UNL     1     -10.798   4.856  73.160  1.00  0.00    -0.282 C  
HETATM    3  O   UNL     1     -10.932   5.206  74.321  1.00  0.00    -0.283 OA 
HETATM    4  C   UNL     1     -10.706   5.783  71.968  1.00  0.00    -0.285 C  
ENDROOT
BRANCH   4   5
HETATM    5  C   UNL     1     -10.804   7.249  72.390  1.00  0.00    -0.293 C  
BRANCH   5   6
HETATM    6  C   UNL     1     -11.370   8.132  71.277  1.00  0.00    -0.300 C  
BRANCH   6   7
HETATM    7  C   UNL     1     -10.239   8.729  70.437  1.00  0.00    -0.228 C  
BRANCH   7   8
HETATM    8  C   UNL     1     -10.630   8.868  68.965  1.00  0.00    -0.203 C  
BRANCH   8   9
HETATM    9  C   UNL     1      -9.387   8.981  68.079  1.00  0.00    -0.153 C  
BRANCH   9  10
HETATM   10  C   UNL     1      -9.752   9.020  66.596  1.00  0.00    -0.295 C  
HETATM   11  C   UNL     1      -9.922  10.436  66.095  1.00  0.00    -0.231 C  
HETATM   12  O   UNL     1     -10.246  10.478  64.782  1.00  0.00    -0.341 OA 
HETATM   13  O   UNL     1      -9.792  11.445  66.767  1.00  0.00    -0.200 OA 
ENDBRANCH   9  10
ENDBRANCH   8   9
ENDBRANCH   7   8
ENDBRANCH   6   7
ENDBRANCH   5   6
ENDBRANCH   4   5
TORSDOF 6
ENDMDL
MODEL      246
REMARK 921   NORMALIZED FREE ENERGY PREDICTED BY IDOCK:   -2.27 KCAL/MOL
REMARK 922        TOTAL FREE ENERGY PREDICTED BY IDOCK:   -3.42 KCAL/MOL
REMARK 923 INTER-LIGAND FREE ENERGY PREDICTED BY IDOCK:   -2.93 KCAL/MOL
REMARK 924 INTRA-LIGAND FREE ENERGY PREDICTED BY IDOCK:   -0.49 KCAL/MOL
REMARK 927      BINDING AFFINITY PREDICTED BY RF-SCORE:    0.00 PKD
ROOT
HETATM    1  O   UNL     1     -10.707  11.205  68.119  1.00  0.00    -0.181 OA 
HETATM    2  C   UNL     1     -10.888   9.948  68.590  1.00  0.00    -0.209 C  
HETATM    3  O   UNL     1     -10.999   8.987  67.848  1.00  0.00    -0.117 OA 
HETATM    4  C   UNL     1     -10.928   9.902  70.102  1.00  0.00    -0.356 C  
ENDROOT
BRANCH   4   5
HETATM    5  C   UNL     1     -11.133   8.476  70.612  1.00  0.00    -0.280 C  
BRANCH   5   6
HETATM    6  C   UNL     1     -11.207   8.416  72.138  1.00  0.00    -0.431 C  
BRANCH   6   7
HETATM    7  C   UNL     1      -9.803   8.377  72.743  1.00  0.00    -0.289 C  
BRANCH   7   8
HETATM    8  C   UNL     1      -9.708   7.394  73.911  1.00  0.00    -0.287 C  
BRANCH   8   9
HETATM    9  C   UNL     1     -10.433   6.086  73.585  1.00  0.00    -0.282 C  
BRANCH   9  10
HETATM   10  C   UNL     1      -9.453   4.931  73.390  1.00  0.00    -0.141 C  
HETATM   11  C   UNL     1      -9.130   4.706  71.930  1.00  0.00    -0.131 C  
HETATM   12  O   UNL     1      -8.262   3.683  71.750  1.00  0.00    -0.065 OA 
HETATM   13  O   UNL     1      -9.580   5.350  70.998  1.00  0.00    -0.161 OA 
ENDBRANCH   9  10
ENDBRANCH   8   9
ENDBRANCH   7   8
ENDBRANCH   6   7
ENDBRANCH   5   6
ENDBRANCH   4   5
TORSDOF 6
ENDMDL
MODEL      247
REMARK 921   NORMALIZED FREE ENERGY PREDICTED BY IDOCK:   -2.27 KCAL/MOL
REMARK 922        TOTAL FREE ENERGY PREDICTED BY IDOCK:   -3.41 KCAL/MOL
REMARK 923 INTER-LIGAND FREE ENERGY PREDICTED BY IDOCK:   -3.10 KCAL/MOL
REMARK 924 INTRA-LIGAND FREE ENERGY PREDICTED BY IDOCK:   -0.32 KCAL/MOL
REMARK 927      BINDING AFFINITY PREDICTED BY RF-SCORE:    0.00 PKD
ROOT
HETATM    1  O   UNL     1     -10.901   4.701  74.335  1.00  0.00    -0.328 OA 
HETATM    2  C   UNL     1     -10.723   5.588  73.327  1.00  0.00    -0.274 C  
HETATM    3  O   UNL     1     -10.828   6.791  73.494  1.00  0.00    -0.295 OA 
HETATM    4  C   UNL     1     -10.389   4.907  72.017  1.00  0.00    -0.263 C  
ENDROOT
BRANCH   4   5
HETATM    5  C   UNL     1     -10.193   5.924  70.893  1.00  0.00    -0.269 C  
BRANCH   5   6
HETATM    6  C   UNL     1     -10.432   5.309  69.513  1.00  0.00    -0.304 C  
BRANCH   6   7
HETATM    7  C   UNL     1     -11.239   6.265  68.632  1.00  0.00    -0.328 C  
BRANCH   7   8
HETATM    8  C   UNL     1     -10.864   6.138  67.155  1.00  0.00    -0.442 C  
BRANCH   8   9
HETATM    9  C   UNL     1      -9.414   5.675  66.997  1.00  0.00    -0.132 C  
BRANCH   9  10
HETATM   10  C   UNL     1      -8.520   6.793  66.465  1.00  0.00    -0.124 C  
HETATM   11  C   UNL     1      -8.103   6.546  65.032  1.00  0.00    -0.127 C  
HETATM   12  O   UNL     1      -7.309   7.533  64.554  1.00  0.00    -0.075 OA 
HETATM   13  O   UNL     1      -8.424   5.583  64.357  1.00  0.00    -0.136 OA 
ENDBRANCH   9  10
ENDBRANCH   8   9
ENDBRANCH   7   8
ENDBRANCH   6   7
ENDBRANCH   5   6
ENDBRANCH   4   5
TORSDOF 6
ENDMDL
MODEL      248
REMARK 921   NORMALIZED FREE ENERGY PREDICTED BY IDOCK:   -2.24 KCAL/MOL
REMARK 922        TOTAL FREE ENERGY PREDICTED BY IDOCK:   -3.38 KCAL/MOL
REMARK 923 INTER-LIGAND FREE ENERGY PREDICTED BY IDOCK:   -2.88 KCAL/MOL
REMARK 924 INTRA-LIGAND FREE ENERGY PREDICTED BY IDOCK:   -0.50 KCAL/MOL
REMARK 927      BINDING AFFINITY PREDICTED BY RF-SCORE:    0.00 PKD
ROOT
HETATM    1  O   UNL     1     -12.410  11.077  68.715  1.00  0.00    -0.533 OA 
HETATM    2  C   UNL     1     -11.377  10.813  67.880  1.00  0.00    -0.299 C  
HETATM    3  O   UNL     1     -10.908  11.661  67.139  1.00  0.00    -0.234 OA 
HETATM    4  C   UNL     1     -10.904   9.380  67.988  1.00  0.00    -0.197 C  
ENDROOT
BRANCH   4   5
HETATM    5  C   UNL     1      -9.740   9.103  67.038  1.00  0.00    -0.245 C  
BRANCH   5   6
HETATM    6  C   UNL     1      -8.451   8.767  67.789  1.00  0.00    -0.125 C  
BRANCH   6   7
HETATM    7  C   UNL     1      -8.417   7.283  68.161  1.00  0.00    -0.123 C  
BRANCH   7   8
HETATM    8  C   UNL     1      -8.083   7.069  69.638  1.00  0.00    -0.130 C  
BRANCH   8   9
HETATM    9  C   UNL     1      -8.300   8.355  70.439  1.00  0.00    -0.121 C  
BRANCH   9  10
HETATM   10  C   UNL     1      -8.381   8.080  71.939  1.00  0.00    -0.167 C  
HETATM   11  C   UNL     1      -9.813   7.965  72.413  1.00  0.00    -0.225 C  
HETATM   12  O   UNL     1      -9.892   7.721  73.742  1.00  0.00    -0.258 OA 
HETATM   13  O   UNL     1     -10.803   8.074  71.710  1.00  0.00    -0.225 OA 
ENDBRANCH   9  10
ENDBRANCH   8   9
ENDBRANCH   7   8
ENDBRANCH   6   7
ENDBRANCH   5   6
ENDBRANCH   4   5
TORSDOF 6
ENDMDL
MODEL      249
REMARK 921   NORMALIZED FREE ENERGY PREDICTED BY IDOCK:   -2.23 KCAL/MOL
REMARK 922        TOTAL FREE ENERGY PREDICTED BY IDOCK:   -3.37 KCAL/MOL
REMARK 923 INTER-LIGAND FREE ENERGY PREDICTED BY IDOCK:   -2.99 KCAL/MOL
REMARK 924 INTRA-LIGAND FREE ENERGY PREDICTED BY IDOCK:   -0.37 KCAL/MOL
REMARK 927      BINDING AFFINITY PREDICTED BY RF-SCORE:    0.00 PKD
ROOT
HETATM    1  O   UNL     1     -12.128  11.717  70.163  1.00  0.00    -0.320 OA 
HETATM    2  C   UNL     1     -11.536  12.072  68.998  1.00  0.00    -0.313 C  
HETATM    3  O   UNL     1     -11.009  13.160  68.841  1.00  0.00    -0.242 OA 
HETATM    4  C   UNL     1     -11.614  10.975  67.958  1.00  0.00    -0.326 C  
ENDROOT
BRANCH   4   5
HETATM    5  C   UNL     1     -10.941  11.394  66.652  1.00  0.00    -0.341 C  
BRANCH   5   6
HETATM    6  C   UNL     1      -9.544  10.789  66.504  1.00  0.00    -0.217 C  
BRANCH   6   7
HETATM    7  C   UNL     1      -9.207   9.913  67.712  1.00  0.00    -0.141 C  
BRANCH   7   8
HETATM    8  C   UNL     1      -8.487   8.627  67.306  1.00  0.00    -0.115 C  
BRANCH   8   9
HETATM    9  C   UNL     1      -9.102   7.412  68.005  1.00  0.00    -0.130 C  
BRANCH   9  10
HETATM   10  C   UNL     1     -10.508   7.711  68.523  1.00  0.00    -0.206 C  
HETATM   11  C   UNL     1     -10.959   6.693  69.547  1.00  0.00    -0.313 C  
HETATM   12  O   UNL     1     -12.204   6.951  70.010  1.00  0.00    -0.118 OA 
HETATM   13  O   UNL     1     -10.305   5.739  69.932  1.00  0.00    -0.213 OA 
ENDBRANCH   9  10
ENDBRANCH   8   9
ENDBRANCH   7   8
ENDBRANCH   6   7
ENDBRANCH   5   6
ENDBRANCH   4   5
TORSDOF 6
ENDMDL
MODEL      250
REMARK 921   NORMALIZED FREE ENERGY PREDICTED BY IDOCK:   -2.22 KCAL/MOL
REMARK 922        TOTAL FREE ENERGY PREDICTED BY IDOCK:   -3.35 KCAL/MOL
REMARK 923 INTER-LIGAND FREE ENERGY PREDICTED BY IDOCK:   -2.99 KCAL/MOL
REMARK 924 INTRA-LIGAND FREE ENERGY PREDICTED BY IDOCK:   -0.37 KCAL/MOL
REMARK 927      BINDING AFFINITY PREDICTED BY RF-SCORE:    0.00 PKD
ROOT
HETATM    1  O   UNL     1      -9.956  11.924  67.270  1.00  0.00    -0.186 OA 
HETATM    2  C   UNL     1     -10.363  10.697  67.674  1.00  0.00    -0.209 C  
HETATM    3  O   UNL     1     -10.744   9.847  66.887  1.00  0.00    -0.203 OA 
HETATM    4  C   UNL     1     -10.283  10.533  69.176  1.00  0.00    -0.241 C  
ENDROOT
BRANCH   4   5
HETATM    5  C   UNL     1     -10.747   9.143  69.611  1.00  0.00    -0.236 C  
BRANCH   5   6
HETATM    6  C   UNL     1     -10.167   8.742  70.968  1.00  0.00    -0.301 C  
BRANCH   6   7
HETATM    7  C   UNL     1      -8.765   8.152  70.800  1.00  0.00    -0.145 C  
BRANCH   7   8
HETATM    8  C   UNL     1      -8.346   7.313  72.008  1.00  0.00    -0.114 C  
BRANCH   8   9
HETATM    9  C   UNL     1      -9.228   7.623  73.220  1.00  0.00    -0.285 C  
BRANCH   9  10
HETATM   10  C   UNL     1      -9.385   6.406  74.130  1.00  0.00    -0.193 C  
HETATM   11  C   UNL     1     -10.575   5.559  73.737  1.00  0.00    -0.281 C  
HETATM   12  O   UNL     1     -10.720   4.479  74.539  1.00  0.00    -0.307 OA 
HETATM   13  O   UNL     1     -11.335   5.792  72.813  1.00  0.00    -0.285 OA 
ENDBRANCH   9  10
ENDBRANCH   8   9
ENDBRANCH   7   8
ENDBRANCH   6   7
ENDBRANCH   5   6
ENDBRANCH   4   5
TORSDOF 6
ENDMDL
MODEL      251
REMARK 921   NORMALIZED FREE ENERGY PREDICTED BY IDOCK:   -2.22 KCAL/MOL
REMARK 922        TOTAL FREE ENERGY PREDICTED BY IDOCK:   -3.35 KCAL/MOL
REMARK 923 INTER-LIGAND FREE ENERGY PREDICTED BY IDOCK:   -2.94 KCAL/MOL
REMARK 924 INTRA-LIGAND FREE ENERGY PREDICTED BY IDOCK:   -0.41 KCAL/MOL
REMARK 927      BINDING AFFINITY PREDICTED BY RF-SCORE:    0.00 PKD
ROOT
HETATM    1  O   UNL     1      -6.687  12.189  67.699  1.00  0.00    -0.091 OA 
HETATM    2  C   UNL     1      -7.224  10.958  67.527  1.00  0.00    -0.095 C  
HETATM    3  O   UNL     1      -7.516  10.524  66.425  1.00  0.00    -0.119 OA 
HETATM    4  C   UNL     1      -7.404  10.223  68.837  1.00  0.00    -0.090 C  
ENDROOT
BRANCH   4   5
HETATM    5  C   UNL     1      -8.011   8.837  68.622  1.00  0.00    -0.107 C  
BRANCH   5   6
HETATM    6  C   UNL     1      -9.511   8.814  68.919  1.00  0.00    -0.145 C  
BRANCH   6   7
HETATM    7  C   UNL     1      -9.828   7.786  70.007  1.00  0.00    -0.181 C  
BRANCH   7   8
HETATM    8  C   UNL     1      -9.272   8.202  71.370  1.00  0.00    -0.195 C  
BRANCH   8   9
HETATM    9  C   UNL     1     -10.403   8.583  72.328  1.00  0.00    -0.402 C  
BRANCH   9  10
HETATM   10  C   UNL     1     -11.649   7.730  72.099  1.00  0.00    -0.367 C  
HETATM   11  C   UNL     1     -12.894   8.577  71.964  1.00  0.00    -0.374 C  
HETATM   12  O   UNL     1     -14.003   7.827  71.760  1.00  0.00    -0.373 OA 
HETATM   13  O   UNL     1     -12.933   9.794  72.026  1.00  0.00    -0.400 OA 
ENDBRANCH   9  10
ENDBRANCH   8   9
ENDBRANCH   7   8
ENDBRANCH   6   7
ENDBRANCH   5   6
ENDBRANCH   4   5
TORSDOF 6
ENDMDL
MODEL      252
REMARK 921   NORMALIZED FREE ENERGY PREDICTED BY IDOCK:   -2.20 KCAL/MOL
REMARK 922        TOTAL FREE ENERGY PREDICTED BY IDOCK:   -3.32 KCAL/MOL
REMARK 923 INTER-LIGAND FREE ENERGY PREDICTED BY IDOCK:   -2.92 KCAL/MOL
REMARK 924 INTRA-LIGAND FREE ENERGY PREDICTED BY IDOCK:   -0.40 KCAL/MOL
REMARK 927      BINDING AFFINITY PREDICTED BY RF-SCORE:    0.00 PKD
ROOT
HETATM    1  O   UNL     1     -13.002   9.983  72.022  1.00  0.00    -0.419 OA 
HETATM    2  C   UNL     1     -11.831   9.572  71.479  1.00  0.00    -0.405 C  
HETATM    3  O   UNL     1     -11.212   8.617  71.917  1.00  0.00    -0.296 OA 
HETATM    4  C   UNL     1     -11.415  10.424  70.299  1.00  0.00    -0.406 C  
ENDROOT
BRANCH   4   5
HETATM    5  C   UNL     1     -10.093   9.943  69.702  1.00  0.00    -0.254 C  
BRANCH   5   6
HETATM    6  C   UNL     1     -10.276   9.349  68.305  1.00  0.00    -0.229 C  
BRANCH   6   7
HETATM    7  C   UNL     1      -8.929   8.906  67.729  1.00  0.00    -0.140 C  
BRANCH   7   8
HETATM    8  C   UNL     1      -8.985   7.487  67.163  1.00  0.00    -0.136 C  
BRANCH   8   9
HETATM    9  C   UNL     1      -8.182   6.519  68.035  1.00  0.00    -0.116 C  
BRANCH   9  10
HETATM   10  C   UNL     1      -9.020   5.969  69.187  1.00  0.00    -0.124 C  
HETATM   11  C   UNL     1      -9.413   4.526  68.959  1.00  0.00    -0.162 C  
HETATM   12  O   UNL     1     -10.156   4.032  69.977  1.00  0.00    -0.113 OA 
HETATM   13  O   UNL     1      -9.114   3.856  67.985  1.00  0.00    -0.120 OA 
ENDBRANCH   9  10
ENDBRANCH   8   9
ENDBRANCH   7   8
ENDBRANCH   6   7
ENDBRANCH   5   6
ENDBRANCH   4   5
TORSDOF 6
ENDMDL
MODEL      253
REMARK 921   NORMALIZED FREE ENERGY PREDICTED BY IDOCK:   -2.17 KCAL/MOL
REMARK 922        TOTAL FREE ENERGY PREDICTED BY IDOCK:   -3.29 KCAL/MOL
REMARK 923 INTER-LIGAND FREE ENERGY PREDICTED BY IDOCK:   -2.72 KCAL/MOL
REMARK 924 INTRA-LIGAND FREE ENERGY PREDICTED BY IDOCK:   -0.57 KCAL/MOL
REMARK 927      BINDING AFFINITY PREDICTED BY RF-SCORE:    0.00 PKD
ROOT
HETATM    1  O   UNL     1     -10.182  10.530  68.056  1.00  0.00    -0.157 OA 
HETATM    2  C   UNL     1     -10.502   9.228  68.246  1.00  0.00    -0.215 C  
HETATM    3  O   UNL     1     -10.783   8.486  67.320  1.00  0.00    -0.279 OA 
HETATM    4  C   UNL     1     -10.461   8.835  69.707  1.00  0.00    -0.222 C  
ENDROOT
BRANCH   4   5
HETATM    5  C   UNL     1     -10.825   7.363  69.900  1.00  0.00    -0.259 C  
BRANCH   5   6
HETATM    6  C   UNL     1     -10.998   7.002  71.376  1.00  0.00    -0.266 C  
BRANCH   6   7
HETATM    7  C   UNL     1     -10.723   8.218  72.263  1.00  0.00    -0.399 C  
BRANCH   7   8
HETATM    8  C   UNL     1      -9.785   7.881  73.423  1.00  0.00    -0.318 C  
BRANCH   8   9
HETATM    9  C   UNL     1      -8.489   7.248  72.912  1.00  0.00    -0.134 C  
BRANCH   9  10
HETATM   10  C   UNL     1      -7.263   8.056  73.331  1.00  0.00    -0.161 C  
HETATM   11  C   UNL     1      -6.740   8.914  72.200  1.00  0.00     0.044 C  
HETATM   12  O   UNL     1      -5.653   9.633  72.565  1.00  0.00    -0.251 OA 
HETATM   13  O   UNL     1      -7.217   8.976  71.080  1.00  0.00    -0.099 OA 
ENDBRANCH   9  10
ENDBRANCH   8   9
ENDBRANCH   7   8
ENDBRANCH   6   7
ENDBRANCH   5   6
ENDBRANCH   4   5
TORSDOF 6
ENDMDL
MODEL      254
REMARK 921   NORMALIZED FREE ENERGY PREDICTED BY IDOCK:   -2.16 KCAL/MOL
REMARK 922        TOTAL FREE ENERGY PREDICTED BY IDOCK:   -3.27 KCAL/MOL
REMARK 923 INTER-LIGAND FREE ENERGY PREDICTED BY IDOCK:   -2.76 KCAL/MOL
REMARK 924 INTRA-LIGAND FREE ENERGY PREDICTED BY IDOCK:   -0.51 KCAL/MOL
REMARK 927      BINDING AFFINITY PREDICTED BY RF-SCORE:    0.00 PKD
ROOT
HETATM    1  O   UNL     1      -9.239  10.734  67.943  1.00  0.00    -0.146 OA 
HETATM    2  C   UNL     1      -9.454   9.724  67.067  1.00  0.00    -0.157 C  
HETATM    3  O   UNL     1      -9.961   9.908  65.973  1.00  0.00    -0.247 OA 
HETATM    4  C   UNL     1      -8.995   8.387  67.610  1.00  0.00    -0.141 C  
ENDROOT
BRANCH   4   5
HETATM    5  C   UNL     1      -9.247   7.262  66.607  1.00  0.00    -0.193 C  
BRANCH   5   6
HETATM    6  C   UNL     1      -9.113   5.880  67.249  1.00  0.00    -0.111 C  
BRANCH   6   7
HETATM    7  C   UNL     1     -10.388   5.517  68.014  1.00  0.00    -0.237 C  
BRANCH   7   8
HETATM    8  C   UNL     1     -10.082   4.836  69.349  1.00  0.00    -0.241 C  
BRANCH   8   9
HETATM    9  C   UNL     1      -9.891   5.872  70.459  1.00  0.00    -0.231 C  
BRANCH   9  10
HETATM   10  C   UNL     1     -11.111   6.779  70.602  1.00  0.00    -0.338 C  
HETATM   11  C   UNL     1     -10.915   7.821  71.680  1.00  0.00    -0.235 C  
HETATM   12  O   UNL     1     -11.994   8.629  71.812  1.00  0.00    -0.294 OA 
HETATM   13  O   UNL     1      -9.918   7.949  72.369  1.00  0.00    -0.191 OA 
ENDBRANCH   9  10
ENDBRANCH   8   9
ENDBRANCH   7   8
ENDBRANCH   6   7
ENDBRANCH   5   6
ENDBRANCH   4   5
TORSDOF 6
ENDMDL
MODEL      255
REMARK 921   NORMALIZED FREE ENERGY PREDICTED BY IDOCK:   -2.16 KCAL/MOL
REMARK 922        TOTAL FREE ENERGY PREDICTED BY IDOCK:   -3.27 KCAL/MOL
REMARK 923 INTER-LIGAND FREE ENERGY PREDICTED BY IDOCK:   -2.96 KCAL/MOL
REMARK 924 INTRA-LIGAND FREE ENERGY PREDICTED BY IDOCK:   -0.31 KCAL/MOL
REMARK 927      BINDING AFFINITY PREDICTED BY RF-SCORE:    0.00 PKD
ROOT
HETATM    1  O   UNL     1     -10.215  11.944  66.493  1.00  0.00    -0.199 OA 
HETATM    2  C   UNL     1     -10.332  10.627  66.201  1.00  0.00    -0.227 C  
HETATM    3  O   UNL     1     -10.416  10.221  65.054  1.00  0.00    -0.221 OA 
HETATM    4  C   UNL     1     -10.342   9.763  67.443  1.00  0.00    -0.297 C  
ENDROOT
BRANCH   4   5
HETATM    5  C   UNL     1     -10.475   8.282  67.092  1.00  0.00    -0.386 C  
BRANCH   5   6
HETATM    6  C   UNL     1      -9.551   7.405  67.938  1.00  0.00    -0.157 C  
BRANCH   6   7
HETATM    7  C   UNL     1     -10.259   6.109  68.339  1.00  0.00    -0.208 C  
BRANCH   7   8
HETATM    8  C   UNL     1     -11.510   6.374  69.177  1.00  0.00    -0.265 C  
BRANCH   8   9
HETATM    9  C   UNL     1     -11.189   6.312  70.672  1.00  0.00    -0.401 C  
BRANCH   9  10
HETATM   10  C   UNL     1      -9.762   5.831  70.924  1.00  0.00    -0.218 C  
HETATM   11  C   UNL     1      -8.992   6.790  71.804  1.00  0.00    -0.139 C  
HETATM   12  O   UNL     1      -7.725   6.370  72.032  1.00  0.00    -0.094 OA 
HETATM   13  O   UNL     1      -9.428   7.828  72.272  1.00  0.00    -0.150 OA 
ENDBRANCH   9  10
ENDBRANCH   8   9
ENDBRANCH   7   8
ENDBRANCH   6   7
ENDBRANCH   5   6
ENDBRANCH   4   5
TORSDOF 6
ENDMDL
MODEL      256
REMARK 921   NORMALIZED FREE ENERGY PREDICTED BY IDOCK:   -2.12 KCAL/MOL
REMARK 922        TOTAL FREE ENERGY PREDICTED BY IDOCK:   -3.21 KCAL/MOL
REMARK 923 INTER-LIGAND FREE ENERGY PREDICTED BY IDOCK:   -3.03 KCAL/MOL
REMARK 924 INTRA-LIGAND FREE ENERGY PREDICTED BY IDOCK:   -0.19 KCAL/MOL
REMARK 927      BINDING AFFINITY PREDICTED BY RF-SCORE:    0.00 PKD
ROOT
HETATM    1  O   UNL     1     -10.287  17.658  66.547  1.00  0.00    -0.343 OA 
HETATM    2  C   UNL     1     -10.000  16.398  66.142  1.00  0.00    -0.339 C  
HETATM    3  O   UNL     1     -10.261  16.001  65.018  1.00  0.00    -0.513 OA 
HETATM    4  C   UNL     1      -9.336  15.583  67.230  1.00  0.00    -0.220 C  
ENDROOT
BRANCH   4   5
HETATM    5  C   UNL     1      -9.021  14.166  66.754  1.00  0.00    -0.229 C  
BRANCH   5   6
HETATM    6  C   UNL     1     -10.060  13.152  67.237  1.00  0.00    -0.233 C  
BRANCH   6   7
HETATM    7  C   UNL     1      -9.373  11.920  67.830  1.00  0.00    -0.184 C  
BRANCH   7   8
HETATM    8  C   UNL     1     -10.382  10.884  68.328  1.00  0.00    -0.194 C  
BRANCH   8   9
HETATM    9  C   UNL     1     -10.112   9.514  67.701  1.00  0.00    -0.254 C  
BRANCH   9  10
HETATM   10  C   UNL     1      -9.186   8.667  68.571  1.00  0.00    -0.138 C  
HETATM   11  C   UNL     1      -8.896   7.323  67.942  1.00  0.00    -0.128 C  
HETATM   12  O   UNL     1      -8.076   6.567  68.709  1.00  0.00    -0.115 OA 
HETATM   13  O   UNL     1      -9.332   6.932  66.873  1.00  0.00    -0.137 OA 
ENDBRANCH   9  10
ENDBRANCH   8   9
ENDBRANCH   7   8
ENDBRANCH   6   7
ENDBRANCH   5   6
ENDBRANCH   4   5
TORSDOF 6
ENDMDL
MODEL      257
REMARK 921   NORMALIZED FREE ENERGY PREDICTED BY IDOCK:   -2.10 KCAL/MOL
REMARK 922        TOTAL FREE ENERGY PREDICTED BY IDOCK:   -3.19 KCAL/MOL
REMARK 923 INTER-LIGAND FREE ENERGY PREDICTED BY IDOCK:   -2.99 KCAL/MOL
REMARK 924 INTRA-LIGAND FREE ENERGY PREDICTED BY IDOCK:   -0.21 KCAL/MOL
REMARK 927      BINDING AFFINITY PREDICTED BY RF-SCORE:    0.00 PKD
ROOT
HETATM    1  O   UNL     1      -5.421  10.257  74.545  1.00  0.00    -0.348 OA 
HETATM    2  C   UNL     1      -5.726   9.414  73.530  1.00  0.00     0.110 C  
HETATM    3  O   UNL     1      -5.582   9.727  72.360  1.00  0.00    -0.265 OA 
HETATM    4  C   UNL     1      -6.247   8.083  74.027  1.00  0.00    -0.103 C  
ENDROOT
BRANCH   4   5
HETATM    5  C   UNL     1      -6.585   7.147  72.867  1.00  0.00    -0.064 C  
BRANCH   5   6
HETATM    6  C   UNL     1      -7.953   7.457  72.258  1.00  0.00    -0.110 C  
BRANCH   6   7
HETATM    7  C   UNL     1      -8.864   6.230  72.330  1.00  0.00    -0.131 C  
BRANCH   7   8
HETATM    8  C   UNL     1     -10.143   6.416  71.513  1.00  0.00    -0.215 C  
BRANCH   8   9
HETATM    9  C   UNL     1     -11.339   6.699  72.427  1.00  0.00    -0.309 C  
BRANCH   9  10
HETATM   10  C   UNL     1     -11.758   8.166  72.371  1.00  0.00    -0.461 C  
HETATM   11  C   UNL     1     -13.113   8.339  71.721  1.00  0.00    -0.344 C  
HETATM   12  O   UNL     1     -13.491   9.638  71.667  1.00  0.00    -0.382 OA 
HETATM   13  O   UNL     1     -13.809   7.439  71.284  1.00  0.00    -0.365 OA 
ENDBRANCH   9  10
ENDBRANCH   8   9
ENDBRANCH   7   8
ENDBRANCH   6   7
ENDBRANCH   5   6
ENDBRANCH   4   5
TORSDOF 6
ENDMDL
MODEL      258
REMARK 921   NORMALIZED FREE ENERGY PREDICTED BY IDOCK:   -2.08 KCAL/MOL
REMARK 922        TOTAL FREE ENERGY PREDICTED BY IDOCK:   -3.17 KCAL/MOL
REMARK 923 INTER-LIGAND FREE ENERGY PREDICTED BY IDOCK:   -2.89 KCAL/MOL
REMARK 924 INTRA-LIGAND FREE ENERGY PREDICTED BY IDOCK:   -0.27 KCAL/MOL
REMARK 927      BINDING AFFINITY PREDICTED BY RF-SCORE:    0.00 PKD
ROOT
HETATM    1  O   UNL     1     -13.438   8.984  72.590  1.00  0.00    -0.463 OA 
HETATM    2  C   UNL     1     -12.670   8.557  71.559  1.00  0.00    -0.313 C  
HETATM    3  O   UNL     1     -12.013   9.324  70.876  1.00  0.00    -0.283 OA 
HETATM    4  C   UNL     1     -12.737   7.056  71.379  1.00  0.00    -0.421 C  
ENDROOT
BRANCH   4   5
HETATM    5  C   UNL     1     -11.865   6.594  70.211  1.00  0.00    -0.378 C  
BRANCH   5   6
HETATM    6  C   UNL     1     -10.544   5.986  70.685  1.00  0.00    -0.322 C  
BRANCH   6   7
HETATM    7  C   UNL     1      -9.920   5.130  69.580  1.00  0.00    -0.313 C  
BRANCH   7   8
HETATM    8  C   UNL     1      -9.590   3.718  70.066  1.00  0.00    -0.259 C  
BRANCH   8   9
HETATM    9  C   UNL     1      -8.078   3.481  70.070  1.00  0.00    -0.056 C  
BRANCH   9  10
HETATM   10  C   UNL     1      -7.613   2.830  71.371  1.00  0.00    -0.040 C  
HETATM   11  C   UNL     1      -6.601   3.686  72.099  1.00  0.00    -0.015 C  
HETATM   12  O   UNL     1      -6.183   3.115  73.252  1.00  0.00    -0.011 OA 
HETATM   13  O   UNL     1      -6.186   4.768  71.720  1.00  0.00    -0.020 OA 
ENDBRANCH   9  10
ENDBRANCH   8   9
ENDBRANCH   7   8
ENDBRANCH   6   7
ENDBRANCH   5   6
ENDBRANCH   4   5
TORSDOF 6
ENDMDL
MODEL      259
REMARK 921   NORMALIZED FREE ENERGY PREDICTED BY IDOCK:   -2.08 KCAL/MOL
REMARK 922        TOTAL FREE ENERGY PREDICTED BY IDOCK:   -3.16 KCAL/MOL
REMARK 923 INTER-LIGAND FREE ENERGY PREDICTED BY IDOCK:   -2.86 KCAL/MOL
REMARK 924 INTRA-LIGAND FREE ENERGY PREDICTED BY IDOCK:   -0.30 KCAL/MOL
REMARK 927      BINDING AFFINITY PREDICTED BY RF-SCORE:    0.00 PKD
ROOT
HETATM    1  O   UNL     1     -11.761   9.618  71.885  1.00  0.00    -0.357 OA 
HETATM    2  C   UNL     1     -11.464   8.992  70.722  1.00  0.00    -0.282 C  
HETATM    3  O   UNL     1     -11.454   7.776  70.623  1.00  0.00    -0.279 OA 
HETATM    4  C   UNL     1     -11.159   9.967  69.607  1.00  0.00    -0.300 C  
ENDROOT
BRANCH   4   5
HETATM    5  C   UNL     1     -10.826   9.241  68.304  1.00  0.00    -0.132 C  
BRANCH   5   6
HETATM    6  C   UNL     1      -9.739   9.961  67.506  1.00  0.00    -0.193 C  
BRANCH   6   7
HETATM    7  C   UNL     1     -10.362  10.834  66.415  1.00  0.00    -0.306 C  
BRANCH   7   8
HETATM    8  C   UNL     1      -9.848  10.467  65.022  1.00  0.00    -0.384 C  
BRANCH   8   9
HETATM    9  C   UNL     1      -8.707   9.451  65.111  1.00  0.00    -0.210 C  
BRANCH   9  10
HETATM   10  C   UNL     1      -7.537   9.834  64.207  1.00  0.00    -0.135 C  
HETATM   11  C   UNL     1      -7.114   8.687  63.317  1.00  0.00    -0.090 C  
HETATM   12  O   UNL     1      -6.078   9.020  62.513  1.00  0.00    -0.094 OA 
HETATM   13  O   UNL     1      -7.623   7.580  63.300  1.00  0.00    -0.104 OA 
ENDBRANCH   9  10
ENDBRANCH   8   9
ENDBRANCH   7   8
ENDBRANCH   6   7
ENDBRANCH   5   6
ENDBRANCH   4   5
TORSDOF 6
ENDMDL
MODEL      260
REMARK 921   NORMALIZED FREE ENERGY PREDICTED BY IDOCK:   -2.08 KCAL/MOL
REMARK 922        TOTAL FREE ENERGY PREDICTED BY IDOCK:   -3.16 KCAL/MOL
REMARK 923 INTER-LIGAND FREE ENERGY PREDICTED BY IDOCK:   -2.83 KCAL/MOL
REMARK 924 INTRA-LIGAND FREE ENERGY PREDICTED BY IDOCK:   -0.32 KCAL/MOL
REMARK 927      BINDING AFFINITY PREDICTED BY RF-SCORE:    0.00 PKD
ROOT
HETATM    1  O   UNL     1     -10.629   4.387  65.416  1.00  0.00    -0.268 OA 
HETATM    2  C   UNL     1     -10.058   4.596  66.627  1.00  0.00    -0.234 C  
HETATM    3  O   UNL     1      -9.007   4.068  66.949  1.00  0.00    -0.117 OA 
HETATM    4  C   UNL     1     -10.871   5.536  67.489  1.00  0.00    -0.100 C  
ENDROOT
BRANCH   4   5
HETATM    5  C   UNL     1     -10.211   5.758  68.850  1.00  0.00    -0.267 C  
BRANCH   5   6
HETATM    6  C   UNL     1     -11.234   6.080  69.940  1.00  0.00    -0.438 C  
BRANCH   6   7
HETATM    7  C   UNL     1     -10.877   7.392  70.641  1.00  0.00    -0.258 C  
BRANCH   7   8
HETATM    8  C   UNL     1      -9.729   8.123  69.943  1.00  0.00    -0.176 C  
BRANCH   8   9
HETATM    9  C   UNL     1      -9.829   9.634  70.164  1.00  0.00    -0.310 C  
BRANCH   9  10
HETATM   10  C   UNL     1      -8.803  10.396  69.328  1.00  0.00    -0.166 C  
HETATM   11  C   UNL     1      -9.322  10.701  67.940  1.00  0.00    -0.148 C  
HETATM   12  O   UNL     1      -8.418  11.376  67.193  1.00  0.00    -0.142 OA 
HETATM   13  O   UNL     1     -10.420  10.389  67.511  1.00  0.00    -0.212 OA 
ENDBRANCH   9  10
ENDBRANCH   8   9
ENDBRANCH   7   8
ENDBRANCH   6   7
ENDBRANCH   5   6
ENDBRANCH   4   5
TORSDOF 6
ENDMDL
MODEL      261
REMARK 921   NORMALIZED FREE ENERGY PREDICTED BY IDOCK:   -2.08 KCAL/MOL
REMARK 922        TOTAL FREE ENERGY PREDICTED BY IDOCK:   -3.16 KCAL/MOL
REMARK 923 INTER-LIGAND FREE ENERGY PREDICTED BY IDOCK:   -2.81 KCAL/MOL
REMARK 924 INTRA-LIGAND FREE ENERGY PREDICTED BY IDOCK:   -0.34 KCAL/MOL
REMARK 927      BINDING AFFINITY PREDICTED BY RF-SCORE:    0.00 PKD
ROOT
HETATM    1  O   UNL     1     -10.654   5.615  72.610  1.00  0.00    -0.202 OA 
HETATM    2  C   UNL     1     -11.246   6.167  71.524  1.00  0.00    -0.288 C  
HETATM    3  O   UNL     1     -12.232   6.880  71.613  1.00  0.00    -0.326 OA 
HETATM    4  C   UNL     1     -10.543   5.796  70.237  1.00  0.00    -0.369 C  
ENDROOT
BRANCH   4   5
HETATM    5  C   UNL     1     -11.226   6.428  69.025  1.00  0.00    -0.402 C  
BRANCH   5   6
HETATM    6  C   UNL     1     -10.627   5.938  67.706  1.00  0.00    -0.331 C  
BRANCH   6   7
HETATM    7  C   UNL     1      -9.785   4.680  67.932  1.00  0.00    -0.198 C  
BRANCH   7   8
HETATM    8  C   UNL     1      -9.040   4.253  66.667  1.00  0.00    -0.133 C  
BRANCH   8   9
HETATM    9  C   UNL     1      -9.729   4.800  65.416  1.00  0.00    -0.138 C  
BRANCH   9  10
HETATM   10  C   UNL     1      -8.954   4.455  64.146  1.00  0.00    -0.151 C  
HETATM   11  C   UNL     1      -8.072   5.598  63.697  1.00  0.00    -0.116 C  
HETATM   12  O   UNL     1      -7.381   5.299  62.572  1.00  0.00    -0.043 OA 
HETATM   13  O   UNL     1      -7.971   6.677  64.256  1.00  0.00    -0.118 OA 
ENDBRANCH   9  10
ENDBRANCH   8   9
ENDBRANCH   7   8
ENDBRANCH   6   7
ENDBRANCH   5   6
ENDBRANCH   4   5
TORSDOF 6
ENDMDL
MODEL      262
REMARK 921   NORMALIZED FREE ENERGY PREDICTED BY IDOCK:   -2.06 KCAL/MOL
REMARK 922        TOTAL FREE ENERGY PREDICTED BY IDOCK:   -3.14 KCAL/MOL
REMARK 923 INTER-LIGAND FREE ENERGY PREDICTED BY IDOCK:   -2.68 KCAL/MOL
REMARK 924 INTRA-LIGAND FREE ENERGY PREDICTED BY IDOCK:   -0.46 KCAL/MOL
REMARK 927      BINDING AFFINITY PREDICTED BY RF-SCORE:    0.00 PKD
ROOT
HETATM    1  O   UNL     1     -13.299  12.015  63.404  1.00  0.00    -0.601 OA 
HETATM    2  C   UNL     1     -12.024  12.298  63.759  1.00  0.00    -0.519 C  
HETATM    3  O   UNL     1     -11.636  13.442  63.933  1.00  0.00    -0.392 OA 
HETATM    4  C   UNL     1     -11.179  11.051  63.907  1.00  0.00     0.175 C  
ENDROOT
BRANCH   4   5
HETATM    5  C   UNL     1      -9.744  11.393  64.308  1.00  0.00    -0.263 C  
BRANCH   5   6
HETATM    6  C   UNL     1      -8.907  10.140  64.572  1.00  0.00    -0.228 C  
BRANCH   6   7
HETATM    7  C   UNL     1      -8.106  10.292  65.867  1.00  0.00    -0.143 C  
BRANCH   7   8
HETATM    8  C   UNL     1      -9.013  10.474  67.085  1.00  0.00    -0.147 C  
BRANCH   8   9
HETATM    9  C   UNL     1      -8.586  11.692  67.906  1.00  0.00    -0.150 C  
BRANCH   9  10
HETATM   10  C   UNL     1      -7.314  12.330  67.351  1.00  0.00    -0.151 C  
HETATM   11  C   UNL     1      -6.386  12.788  68.454  1.00  0.00    -0.078 C  
HETATM   12  O   UNL     1      -5.256  13.354  67.969  1.00  0.00    -0.097 OA 
HETATM   13  O   UNL     1      -6.598  12.676  69.649  1.00  0.00    -0.088 OA 
ENDBRANCH   9  10
ENDBRANCH   8   9
ENDBRANCH   7   8
ENDBRANCH   6   7
ENDBRANCH   5   6
ENDBRANCH   4   5
TORSDOF 6
ENDMDL
MODEL      263
REMARK 921   NORMALIZED FREE ENERGY PREDICTED BY IDOCK:   -2.06 KCAL/MOL
REMARK 922        TOTAL FREE ENERGY PREDICTED BY IDOCK:   -3.13 KCAL/MOL
REMARK 923 INTER-LIGAND FREE ENERGY PREDICTED BY IDOCK:   -2.66 KCAL/MOL
REMARK 924 INTRA-LIGAND FREE ENERGY PREDICTED BY IDOCK:   -0.47 KCAL/MOL
REMARK 927      BINDING AFFINITY PREDICTED BY RF-SCORE:    0.00 PKD
ROOT
HETATM    1  O   UNL     1      -5.502  12.869  69.065  1.00  0.00    -0.067 OA 
HETATM    2  C   UNL     1      -6.047  12.312  67.958  1.00  0.00    -0.070 C  
HETATM    3  O   UNL     1      -5.639  12.562  66.836  1.00  0.00    -0.334 OA 
HETATM    4  C   UNL     1      -7.186  11.373  68.290  1.00  0.00    -0.082 C  
ENDROOT
BRANCH   4   5
HETATM    5  C   UNL     1      -7.788  10.756  67.029  1.00  0.00    -0.121 C  
BRANCH   5   6
HETATM    6  C   UNL     1      -9.289  11.028  66.915  1.00  0.00    -0.189 C  
BRANCH   6   7
HETATM    7  C   UNL     1     -10.045  10.356  68.063  1.00  0.00    -0.189 C  
BRANCH   7   8
HETATM    8  C   UNL     1     -10.131   8.840  67.884  1.00  0.00    -0.257 C  
BRANCH   8   9
HETATM    9  C   UNL     1      -9.707   8.114  69.163  1.00  0.00    -0.163 C  
BRANCH   9  10
HETATM   10  C   UNL     1     -10.827   8.098  70.201  1.00  0.00    -0.241 C  
HETATM   11  C   UNL     1     -10.408   8.765  71.492  1.00  0.00    -0.303 C  
HETATM   12  O   UNL     1     -11.396   8.755  72.417  1.00  0.00    -0.338 OA 
HETATM   13  O   UNL     1      -9.317   9.264  71.710  1.00  0.00    -0.309 OA 
ENDBRANCH   9  10
ENDBRANCH   8   9
ENDBRANCH   7   8
ENDBRANCH   6   7
ENDBRANCH   5   6
ENDBRANCH   4   5
TORSDOF 6
ENDMDL
MODEL      264
REMARK 921   NORMALIZED FREE ENERGY PREDICTED BY IDOCK:   -2.06 KCAL/MOL
REMARK 922        TOTAL FREE ENERGY PREDICTED BY IDOCK:   -3.13 KCAL/MOL
REMARK 923 INTER-LIGAND FREE ENERGY PREDICTED BY IDOCK:   -2.68 KCAL/MOL
REMARK 924 INTRA-LIGAND FREE ENERGY PREDICTED BY IDOCK:   -0.45 KCAL/MOL
REMARK 927      BINDING AFFINITY PREDICTED BY RF-SCORE:    0.00 PKD
ROOT
HETATM    1  O   UNL     1      -9.901  11.523  67.413  1.00  0.00    -0.184 OA 
HETATM    2  C   UNL     1      -9.971  10.341  66.757  1.00  0.00    -0.209 C  
HETATM    3  O   UNL     1      -9.670  10.232  65.580  1.00  0.00    -0.224 OA 
HETATM    4  C   UNL     1     -10.453   9.217  67.649  1.00  0.00    -0.325 C  
ENDROOT
BRANCH   4   5
HETATM    5  C   UNL     1     -10.525   7.893  66.890  1.00  0.00    -0.388 C  
BRANCH   5   6
HETATM    6  C   UNL     1     -10.429   6.688  67.826  1.00  0.00    -0.275 C  
BRANCH   6   7
HETATM    7  C   UNL     1     -10.723   7.102  69.269  1.00  0.00    -0.231 C  
BRANCH   7   8
HETATM    8  C   UNL     1     -10.293   6.032  70.273  1.00  0.00    -0.282 C  
BRANCH   8   9
HETATM    9  C   UNL     1     -10.132   4.673  69.587  1.00  0.00    -0.232 C  
BRANCH   9  10
HETATM   10  C   UNL     1      -8.970   3.877  70.178  1.00  0.00    -0.168 C  
HETATM   11  C   UNL     1      -7.728   3.974  69.321  1.00  0.00    -0.053 C  
HETATM   12  O   UNL     1      -6.694   3.271  69.839  1.00  0.00    -0.033 OA 
HETATM   13  O   UNL     1      -7.632   4.602  68.281  1.00  0.00    -0.075 OA 
ENDBRANCH   9  10
ENDBRANCH   8   9
ENDBRANCH   7   8
ENDBRANCH   6   7
ENDBRANCH   5   6
ENDBRANCH   4   5
TORSDOF 6
ENDMDL
MODEL      265
REMARK 921   NORMALIZED FREE ENERGY PREDICTED BY IDOCK:   -2.05 KCAL/MOL
REMARK 922        TOTAL FREE ENERGY PREDICTED BY IDOCK:   -3.12 KCAL/MOL
REMARK 923 INTER-LIGAND FREE ENERGY PREDICTED BY IDOCK:   -2.77 KCAL/MOL
REMARK 924 INTRA-LIGAND FREE ENERGY PREDICTED BY IDOCK:   -0.35 KCAL/MOL
REMARK 927      BINDING AFFINITY PREDICTED BY RF-SCORE:    0.00 PKD
ROOT
HETATM    1  O   UNL     1     -10.701   1.802  72.900  1.00  0.00    -0.137 OA 
HETATM    2  C   UNL     1     -10.423   3.121  73.032  1.00  0.00    -0.163 C  
HETATM    3  O   UNL     1     -10.675   3.740  74.052  1.00  0.00    -0.198 OA 
HETATM    4  C   UNL     1      -9.781   3.698  71.789  1.00  0.00    -0.233 C  
ENDROOT
BRANCH   4   5
HETATM    5  C   UNL     1      -9.476   5.186  71.957  1.00  0.00    -0.182 C  
BRANCH   5   6
HETATM    6  C   UNL     1     -10.667   6.064  71.573  1.00  0.00    -0.309 C  
BRANCH   6   7
HETATM    7  C   UNL     1     -10.387   6.807  70.265  1.00  0.00    -0.224 C  
BRANCH   7   8
HETATM    8  C   UNL     1     -11.270   6.307  69.120  1.00  0.00    -0.439 C  
BRANCH   8   9
HETATM    9  C   UNL     1     -10.657   6.662  67.763  1.00  0.00    -0.311 C  
BRANCH   9  10
HETATM   10  C   UNL     1      -9.230   7.186  67.908  1.00  0.00    -0.129 C  
HETATM   11  C   UNL     1      -9.074   8.567  67.311  1.00  0.00    -0.133 C  
HETATM   12  O   UNL     1      -7.811   9.037  67.435  1.00  0.00    -0.099 OA 
HETATM   13  O   UNL     1      -9.960   9.210  66.774  1.00  0.00    -0.210 OA 
ENDBRANCH   9  10
ENDBRANCH   8   9
ENDBRANCH   7   8
ENDBRANCH   6   7
ENDBRANCH   5   6
ENDBRANCH   4   5
TORSDOF 6
ENDMDL
MODEL      266
REMARK 921   NORMALIZED FREE ENERGY PREDICTED BY IDOCK:   -2.02 KCAL/MOL
REMARK 922        TOTAL FREE ENERGY PREDICTED BY IDOCK:   -3.08 KCAL/MOL
REMARK 923 INTER-LIGAND FREE ENERGY PREDICTED BY IDOCK:   -2.79 KCAL/MOL
REMARK 924 INTRA-LIGAND FREE ENERGY PREDICTED BY IDOCK:   -0.30 KCAL/MOL
REMARK 927      BINDING AFFINITY PREDICTED BY RF-SCORE:    0.00 PKD
ROOT
HETATM    1  O   UNL     1     -10.569  17.402  67.127  1.00  0.00    -0.331 OA 
HETATM    2  C   UNL     1      -9.922  16.302  66.673  1.00  0.00    -0.264 C  
HETATM    3  O   UNL     1      -9.933  15.981  65.497  1.00  0.00    -0.400 OA 
HETATM    4  C   UNL     1      -9.211  15.557  67.782  1.00  0.00    -0.179 C  
ENDROOT
BRANCH   4   5
HETATM    5  C   UNL     1      -8.488  14.320  67.250  1.00  0.00    -0.226 C  
BRANCH   5   6
HETATM    6  C   UNL     1      -9.413  13.106  67.164  1.00  0.00    -0.239 C  
BRANCH   6   7
HETATM    7  C   UNL     1      -8.667  11.902  66.585  1.00  0.00    -0.185 C  
BRANCH   7   8
HETATM    8  C   UNL     1      -9.514  10.629  66.625  1.00  0.00    -0.195 C  
BRANCH   8   9
HETATM    9  C   UNL     1      -8.722   9.465  67.226  1.00  0.00    -0.133 C  
BRANCH   9  10
HETATM   10  C   UNL     1      -9.096   9.223  68.687  1.00  0.00    -0.132 C  
HETATM   11  C   UNL     1      -8.068   9.799  69.634  1.00  0.00    -0.154 C  
HETATM   12  O   UNL     1      -8.393   9.589  70.931  1.00  0.00    -0.280 OA 
HETATM   13  O   UNL     1      -7.053  10.390  69.304  1.00  0.00    -0.069 OA 
ENDBRANCH   9  10
ENDBRANCH   8   9
ENDBRANCH   7   8
ENDBRANCH   6   7
ENDBRANCH   5   6
ENDBRANCH   4   5
TORSDOF 6
ENDMDL
MODEL      267
REMARK 921   NORMALIZED FREE ENERGY PREDICTED BY IDOCK:   -1.98 KCAL/MOL
REMARK 922        TOTAL FREE ENERGY PREDICTED BY IDOCK:   -3.02 KCAL/MOL
REMARK 923 INTER-LIGAND FREE ENERGY PREDICTED BY IDOCK:   -2.44 KCAL/MOL
REMARK 924 INTRA-LIGAND FREE ENERGY PREDICTED BY IDOCK:   -0.58 KCAL/MOL
REMARK 927      BINDING AFFINITY PREDICTED BY RF-SCORE:    0.00 PKD
ROOT
HETATM    1  O   UNL     1      -7.075   4.789  71.978  1.00  0.00    -0.058 OA 
HETATM    2  C   UNL     1      -8.429   4.796  72.005  1.00  0.00    -0.119 C  
HETATM    3  O   UNL     1      -9.067   4.110  72.786  1.00  0.00    -0.105 OA 
HETATM    4  C   UNL     1      -9.019   5.734  70.974  1.00  0.00    -0.150 C  
ENDROOT
BRANCH   4   5
HETATM    5  C   UNL     1     -10.546   5.726  71.020  1.00  0.00    -0.318 C  
BRANCH   5   6
HETATM    6  C   UNL     1     -11.163   6.361  69.773  1.00  0.00    -0.484 C  
BRANCH   6   7
HETATM    7  C   UNL     1     -10.541   7.734  69.506  1.00  0.00    -0.221 C  
BRANCH   7   8
HETATM    8  C   UNL     1     -10.229   7.944  68.024  1.00  0.00    -0.256 C  
BRANCH   8   9
HETATM    9  C   UNL     1      -8.956   7.194  67.622  1.00  0.00    -0.125 C  
BRANCH   9  10
HETATM   10  C   UNL     1      -9.123   6.474  66.286  1.00  0.00    -0.168 C  
HETATM   11  C   UNL     1      -9.371   4.994  66.471  1.00  0.00    -0.141 C  
HETATM   12  O   UNL     1      -9.520   4.349  65.291  1.00  0.00    -0.154 OA 
HETATM   13  O   UNL     1      -9.436   4.415  67.543  1.00  0.00    -0.144 OA 
ENDBRANCH   9  10
ENDBRANCH   8   9
ENDBRANCH   7   8
ENDBRANCH   6   7
ENDBRANCH   5   6
ENDBRANCH   4   5
TORSDOF 6
ENDMDL
MODEL      268
REMARK 921   NORMALIZED FREE ENERGY PREDICTED BY IDOCK:   -1.95 KCAL/MOL
REMARK 922        TOTAL FREE ENERGY PREDICTED BY IDOCK:   -2.98 KCAL/MOL
REMARK 923 INTER-LIGAND FREE ENERGY PREDICTED BY IDOCK:   -2.67 KCAL/MOL
REMARK 924 INTRA-LIGAND FREE ENERGY PREDICTED BY IDOCK:   -0.31 KCAL/MOL
REMARK 927      BINDING AFFINITY PREDICTED BY RF-SCORE:    0.00 PKD
ROOT
HETATM    1  O   UNL     1      -7.673   8.755  74.427  1.00  0.00    -0.411 OA 
HETATM    2  C   UNL     1      -8.258   7.664  73.879  1.00  0.00    -0.184 C  
HETATM    3  O   UNL     1      -7.695   6.583  73.824  1.00  0.00    -0.088 OA 
HETATM    4  C   UNL     1      -9.652   7.956  73.368  1.00  0.00    -0.331 C  
ENDROOT
BRANCH   4   5
HETATM    5  C   UNL     1     -10.294   6.713  72.754  1.00  0.00    -0.226 C  
BRANCH   5   6
HETATM    6  C   UNL     1     -10.553   6.880  71.256  1.00  0.00    -0.244 C  
BRANCH   6   7
HETATM    7  C   UNL     1     -11.455   8.088  70.997  1.00  0.00    -0.300 C  
BRANCH   7   8
HETATM    8  C   UNL     1     -10.748   9.168  70.178  1.00  0.00    -0.263 C  
BRANCH   8   9
HETATM    9  C   UNL     1     -10.419   8.660  68.773  1.00  0.00    -0.209 C  
BRANCH   9  10
HETATM   10  C   UNL     1      -9.342   9.510  68.102  1.00  0.00    -0.141 C  
HETATM   11  C   UNL     1      -7.955   9.138  68.575  1.00  0.00    -0.102 C  
HETATM   12  O   UNL     1      -6.995   9.889  67.984  1.00  0.00    -0.075 OA 
HETATM   13  O   UNL     1      -7.694   8.271  69.391  1.00  0.00    -0.097 OA 
ENDBRANCH   9  10
ENDBRANCH   8   9
ENDBRANCH   7   8
ENDBRANCH   6   7
ENDBRANCH   5   6
ENDBRANCH   4   5
TORSDOF 6
ENDMDL
MODEL      269
REMARK 921   NORMALIZED FREE ENERGY PREDICTED BY IDOCK:   -1.94 KCAL/MOL
REMARK 922        TOTAL FREE ENERGY PREDICTED BY IDOCK:   -2.98 KCAL/MOL
REMARK 923 INTER-LIGAND FREE ENERGY PREDICTED BY IDOCK:   -2.64 KCAL/MOL
REMARK 924 INTRA-LIGAND FREE ENERGY PREDICTED BY IDOCK:   -0.33 KCAL/MOL
REMARK 927      BINDING AFFINITY PREDICTED BY RF-SCORE:    0.00 PKD
ROOT
HETATM    1  O   UNL     1      -9.574  17.441  67.923  1.00  0.00    -0.257 OA 
HETATM    2  C   UNL     1      -8.858  16.372  67.502  1.00  0.00    -0.179 C  
HETATM    3  O   UNL     1      -8.850  16.014  66.336  1.00  0.00    -0.267 OA 
HETATM    4  C   UNL     1      -8.098  15.710  68.630  1.00  0.00    -0.158 C  
ENDROOT
BRANCH   4   5
HETATM    5  C   UNL     1      -7.297  14.507  68.134  1.00  0.00    -0.129 C  
BRANCH   5   6
HETATM    6  C   UNL     1      -8.140  13.231  68.097  1.00  0.00    -0.159 C  
BRANCH   6   7
HETATM    7  C   UNL     1      -7.318  12.060  67.555  1.00  0.00    -0.137 C  
BRANCH   7   8
HETATM    8  C   UNL     1      -7.937  11.460  66.292  1.00  0.00    -0.037 C  
BRANCH   8   9
HETATM    9  C   UNL     1      -8.961  10.379  66.646  1.00  0.00    -0.155 C  
BRANCH   9  10
HETATM   10  C   UNL     1     -10.391  10.909  66.572  1.00  0.00    -0.299 C  
HETATM   11  C   UNL     1     -11.107  10.785  67.898  1.00  0.00    -0.308 C  
HETATM   12  O   UNL     1     -12.376  11.254  67.840  1.00  0.00    -0.363 OA 
HETATM   13  O   UNL     1     -10.630  10.323  68.920  1.00  0.00    -0.195 OA 
ENDBRANCH   9  10
ENDBRANCH   8   9
ENDBRANCH   7   8
ENDBRANCH   6   7
ENDBRANCH   5   6
ENDBRANCH   4   5
TORSDOF 6
ENDMDL
MODEL      270
REMARK 921   NORMALIZED FREE ENERGY PREDICTED BY IDOCK:   -1.94 KCAL/MOL
REMARK 922        TOTAL FREE ENERGY PREDICTED BY IDOCK:   -2.98 KCAL/MOL
REMARK 923 INTER-LIGAND FREE ENERGY PREDICTED BY IDOCK:   -2.40 KCAL/MOL
REMARK 924 INTRA-LIGAND FREE ENERGY PREDICTED BY IDOCK:   -0.57 KCAL/MOL
REMARK 927      BINDING AFFINITY PREDICTED BY RF-SCORE:    0.00 PKD
ROOT
HETATM    1  O   UNL     1      -8.372   2.587  68.410  1.00  0.00    -0.062 OA 
HETATM    2  C   UNL     1      -8.853   3.438  67.474  1.00  0.00    -0.130 C  
HETATM    3  O   UNL     1      -9.169   3.065  66.356  1.00  0.00    -0.156 OA 
HETATM    4  C   UNL     1      -8.944   4.860  67.984  1.00  0.00    -0.121 C  
ENDROOT
BRANCH   4   5
HETATM    5  C   UNL     1      -9.489   5.804  66.914  1.00  0.00    -0.142 C  
BRANCH   5   6
HETATM    6  C   UNL     1     -10.954   6.167  67.158  1.00  0.00    -0.420 C  
BRANCH   6   7
HETATM    7  C   UNL     1     -11.199   6.447  68.642  1.00  0.00    -0.338 C  
BRANCH   7   8
HETATM    8  C   UNL     1     -10.654   7.812  69.066  1.00  0.00    -0.179 C  
BRANCH   8   9
HETATM    9  C   UNL     1     -10.449   7.870  70.582  1.00  0.00    -0.216 C  
BRANCH   9  10
HETATM   10  C   UNL     1      -9.227   7.065  71.019  1.00  0.00    -0.155 C  
HETATM   11  C   UNL     1      -9.599   5.948  71.968  1.00  0.00    -0.149 C  
HETATM   12  O   UNL     1      -8.521   5.230  72.360  1.00  0.00    -0.120 OA 
HETATM   13  O   UNL     1     -10.726   5.696  72.357  1.00  0.00    -0.216 OA 
ENDBRANCH   9  10
ENDBRANCH   8   9
ENDBRANCH   7   8
ENDBRANCH   6   7
ENDBRANCH   5   6
ENDBRANCH   4   5
TORSDOF 6
ENDMDL
MODEL      271
REMARK 921   NORMALIZED FREE ENERGY PREDICTED BY IDOCK:   -1.94 KCAL/MOL
REMARK 922        TOTAL FREE ENERGY PREDICTED BY IDOCK:   -2.97 KCAL/MOL
REMARK 923 INTER-LIGAND FREE ENERGY PREDICTED BY IDOCK:   -4.36 KCAL/MOL
REMARK 924 INTRA-LIGAND FREE ENERGY PREDICTED BY IDOCK:    1.38 KCAL/MOL
REMARK 927      BINDING AFFINITY PREDICTED BY RF-SCORE:    0.00 PKD
ROOT
HETATM    1  O   UNL     1     -12.662  13.330  71.392  1.00  0.00    -0.354 OA 
HETATM    2  C   UNL     1     -12.561  14.289  70.442  1.00  0.00    -0.343 C  
HETATM    3  O   UNL     1     -12.816  15.459  70.669  1.00  0.00    -0.432 OA 
HETATM    4  C   UNL     1     -12.103  13.731  69.111  1.00  0.00    -0.374 C  
ENDROOT
BRANCH   4   5
HETATM    5  C   UNL     1     -11.996  14.828  68.053  1.00  0.00    -0.261 C  
BRANCH   5   6
HETATM    6  C   UNL     1     -10.744  14.672  67.188  1.00  0.00    -0.292 C  
BRANCH   6   7
HETATM    7  C   UNL     1     -10.059  13.333  67.469  1.00  0.00    -0.223 C  
BRANCH   7   8
HETATM    8  C   UNL     1      -9.458  12.720  66.204  1.00  0.00    -0.169 C  
BRANCH   8   9
HETATM    9  C   UNL     1     -10.289  11.526  65.727  1.00  0.00    -0.295 C  
BRANCH   9  10
HETATM   10  C   UNL     1     -11.475  11.969  64.873  1.00  0.00    -0.352 C  
HETATM   11  C   UNL     1     -11.218  13.299  64.199  1.00  0.00    -0.379 C  
HETATM   12  O   UNL     1     -12.266  13.698  63.441  1.00  0.00    -0.607 OA 
HETATM   13  O   UNL     1     -10.200  13.961  64.305  1.00  0.00    -0.276 OA 
ENDBRANCH   9  10
ENDBRANCH   8   9
ENDBRANCH   7   8
ENDBRANCH   6   7
ENDBRANCH   5   6
ENDBRANCH   4   5
TORSDOF 6
ENDMDL
MODEL      272
REMARK 921   NORMALIZED FREE ENERGY PREDICTED BY IDOCK:   -1.92 KCAL/MOL
REMARK 922        TOTAL FREE ENERGY PREDICTED BY IDOCK:   -2.95 KCAL/MOL
REMARK 923 INTER-LIGAND FREE ENERGY PREDICTED BY IDOCK:   -2.54 KCAL/MOL
REMARK 924 INTRA-LIGAND FREE ENERGY PREDICTED BY IDOCK:   -0.41 KCAL/MOL
REMARK 927      BINDING AFFINITY PREDICTED BY RF-SCORE:    0.00 PKD
ROOT
HETATM    1  O   UNL     1     -12.403   6.896  72.312  1.00  0.00    -0.216 OA 
HETATM    2  C   UNL     1     -11.407   6.173  71.748  1.00  0.00    -0.291 C  
HETATM    3  O   UNL     1     -10.618   5.523  72.413  1.00  0.00    -0.205 OA 
HETATM    4  C   UNL     1     -11.408   6.277  70.238  1.00  0.00    -0.457 C  
ENDROOT
BRANCH   4   5
HETATM    5  C   UNL     1     -10.277   5.455  69.621  1.00  0.00    -0.345 C  
BRANCH   5   6
HETATM    6  C   UNL     1      -9.448   6.271  68.629  1.00  0.00    -0.121 C  
BRANCH   6   7
HETATM    7  C   UNL     1     -10.094   7.636  68.382  1.00  0.00    -0.208 C  
BRANCH   7   8
HETATM    8  C   UNL     1      -9.293   8.481  67.391  1.00  0.00    -0.178 C  
BRANCH   8   9
HETATM    9  C   UNL     1      -9.464   9.974  67.682  1.00  0.00    -0.163 C  
BRANCH   9  10
HETATM   10  C   UNL     1      -8.970  10.336  69.081  1.00  0.00    -0.187 C  
HETATM   11  C   UNL     1      -7.587  10.946  69.050  1.00  0.00    -0.135 C  
HETATM   12  O   UNL     1      -7.143  11.270  70.287  1.00  0.00     0.028 OA 
HETATM   13  O   UNL     1      -6.920  11.138  68.047  1.00  0.00    -0.066 OA 
ENDBRANCH   9  10
ENDBRANCH   8   9
ENDBRANCH   7   8
ENDBRANCH   6   7
ENDBRANCH   5   6
ENDBRANCH   4   5
TORSDOF 6
ENDMDL
MODEL      273
REMARK 921   NORMALIZED FREE ENERGY PREDICTED BY IDOCK:   -1.91 KCAL/MOL
REMARK 922        TOTAL FREE ENERGY PREDICTED BY IDOCK:   -2.93 KCAL/MOL
REMARK 923 INTER-LIGAND FREE ENERGY PREDICTED BY IDOCK:   -2.59 KCAL/MOL
REMARK 924 INTRA-LIGAND FREE ENERGY PREDICTED BY IDOCK:   -0.35 KCAL/MOL
REMARK 927      BINDING AFFINITY PREDICTED BY RF-SCORE:    0.00 PKD
ROOT
HETATM    1  O   UNL     1      -9.191   4.646  72.672  1.00  0.00    -0.125 OA 
HETATM    2  C   UNL     1      -9.834   5.825  72.501  1.00  0.00    -0.162 C  
HETATM    3  O   UNL     1     -10.471   6.354  73.396  1.00  0.00    -0.225 OA 
HETATM    4  C   UNL     1      -9.658   6.377  71.102  1.00  0.00    -0.187 C  
ENDROOT
BRANCH   4   5
HETATM    5  C   UNL     1     -10.391   7.706  70.930  1.00  0.00    -0.204 C  
BRANCH   5   6
HETATM    6  C   UNL     1     -10.606   8.058  69.457  1.00  0.00    -0.216 C  
BRANCH   6   7
HETATM    7  C   UNL     1      -9.270   8.092  68.712  1.00  0.00    -0.144 C  
BRANCH   7   8
HETATM    8  C   UNL     1      -8.781   9.522  68.477  1.00  0.00    -0.124 C  
BRANCH   8   9
HETATM    9  C   UNL     1      -9.946  10.446  68.117  1.00  0.00    -0.170 C  
BRANCH   9  10
HETATM   10  C   UNL     1      -9.724  11.864  68.639  1.00  0.00    -0.116 C  
HETATM   11  C   UNL     1     -10.987  12.694  68.568  1.00  0.00    -0.261 C  
HETATM   12  O   UNL     1     -10.798  13.952  69.030  1.00  0.00    -0.245 OA 
HETATM   13  O   UNL     1     -12.065  12.308  68.150  1.00  0.00    -0.407 OA 
ENDBRANCH   9  10
ENDBRANCH   8   9
ENDBRANCH   7   8
ENDBRANCH   6   7
ENDBRANCH   5   6
ENDBRANCH   4   5
TORSDOF 6
ENDMDL
MODEL      274
REMARK 921   NORMALIZED FREE ENERGY PREDICTED BY IDOCK:   -1.87 KCAL/MOL
REMARK 922        TOTAL FREE ENERGY PREDICTED BY IDOCK:   -2.87 KCAL/MOL
REMARK 923 INTER-LIGAND FREE ENERGY PREDICTED BY IDOCK:   -2.48 KCAL/MOL
REMARK 924 INTRA-LIGAND FREE ENERGY PREDICTED BY IDOCK:   -0.39 KCAL/MOL
REMARK 927      BINDING AFFINITY PREDICTED BY RF-SCORE:    0.00 PKD
ROOT
HETATM    1  O   UNL     1      -9.821   4.776  66.005  1.00  0.00    -0.177 OA 
HETATM    2  C   UNL     1      -9.649   5.249  67.262  1.00  0.00    -0.137 C  
HETATM    3  O   UNL     1      -8.659   4.988  67.924  1.00  0.00    -0.104 OA 
HETATM    4  C   UNL     1     -10.807   6.112  67.714  1.00  0.00    -0.413 C  
ENDROOT
BRANCH   4   5
HETATM    5  C   UNL     1     -10.593   6.635  69.134  1.00  0.00    -0.280 C  
BRANCH   5   6
HETATM    6  C   UNL     1     -11.873   6.569  69.969  1.00  0.00    -0.284 C  
BRANCH   6   7
HETATM    7  C   UNL     1     -11.538   6.463  71.458  1.00  0.00    -0.364 C  
BRANCH   7   8
HETATM    8  C   UNL     1     -10.393   5.484  71.721  1.00  0.00    -0.272 C  
BRANCH   8   9
HETATM    9  C   UNL     1      -9.611   5.881  72.976  1.00  0.00    -0.158 C  
BRANCH   9  10
HETATM   10  C   UNL     1      -8.105   5.879  72.727  1.00  0.00    -0.104 C  
HETATM   11  C   UNL     1      -7.461   4.587  73.179  1.00  0.00    -0.085 C  
HETATM   12  O   UNL     1      -6.125   4.579  72.961  1.00  0.00    -0.022 OA 
HETATM   13  O   UNL     1      -8.045   3.644  73.684  1.00  0.00    -0.081 OA 
ENDBRANCH   9  10
ENDBRANCH   8   9
ENDBRANCH   7   8
ENDBRANCH   6   7
ENDBRANCH   5   6
ENDBRANCH   4   5
TORSDOF 6
ENDMDL
MODEL      275
REMARK 921   NORMALIZED FREE ENERGY PREDICTED BY IDOCK:   -1.84 KCAL/MOL
REMARK 922        TOTAL FREE ENERGY PREDICTED BY IDOCK:   -2.84 KCAL/MOL
REMARK 923 INTER-LIGAND FREE ENERGY PREDICTED BY IDOCK:   -2.77 KCAL/MOL
REMARK 924 INTRA-LIGAND FREE ENERGY PREDICTED BY IDOCK:   -0.07 KCAL/MOL
REMARK 927      BINDING AFFINITY PREDICTED BY RF-SCORE:    0.00 PKD
ROOT
HETATM    1  O   UNL     1     -10.807   1.590  72.997  1.00  0.00    -0.128 OA 
HETATM    2  C   UNL     1     -10.182   2.736  73.358  1.00  0.00    -0.124 C  
HETATM    3  O   UNL     1     -10.335   3.242  74.457  1.00  0.00    -0.166 OA 
HETATM    4  C   UNL     1      -9.300   3.279  72.255  1.00  0.00    -0.174 C  
ENDROOT
BRANCH   4   5
HETATM    5  C   UNL     1      -8.604   4.571  72.681  1.00  0.00    -0.114 C  
BRANCH   5   6
HETATM    6  C   UNL     1      -9.463   5.806  72.402  1.00  0.00    -0.155 C  
BRANCH   6   7
HETATM    7  C   UNL     1      -8.961   6.539  71.156  1.00  0.00    -0.145 C  
BRANCH   7   8
HETATM    8  C   UNL     1      -9.865   6.301  69.946  1.00  0.00    -0.198 C  
BRANCH   8   9
HETATM    9  C   UNL     1     -10.951   7.376  69.856  1.00  0.00    -0.239 C  
BRANCH   9  10
HETATM   10  C   UNL     1     -11.856   7.369  71.086  1.00  0.00    -0.330 C  
HETATM   11  C   UNL     1     -11.825   8.694  71.815  1.00  0.00    -0.337 C  
HETATM   12  O   UNL     1     -12.625   8.695  72.907  1.00  0.00    -0.289 OA 
HETATM   13  O   UNL     1     -11.167   9.667  71.488  1.00  0.00    -0.372 OA 
ENDBRANCH   9  10
ENDBRANCH   8   9
ENDBRANCH   7   8
ENDBRANCH   6   7
ENDBRANCH   5   6
ENDBRANCH   4   5
TORSDOF 6
ENDMDL
MODEL      276
REMARK 921   NORMALIZED FREE ENERGY PREDICTED BY IDOCK:   -1.83 KCAL/MOL
REMARK 922        TOTAL FREE ENERGY PREDICTED BY IDOCK:   -2.83 KCAL/MOL
REMARK 923 INTER-LIGAND FREE ENERGY PREDICTED BY IDOCK:   -2.51 KCAL/MOL
REMARK 924 INTRA-LIGAND FREE ENERGY PREDICTED BY IDOCK:   -0.32 KCAL/MOL
REMARK 927      BINDING AFFINITY PREDICTED BY RF-SCORE:    0.00 PKD
ROOT
HETATM    1  O   UNL     1     -10.612   4.349  65.403  1.00  0.00    -0.268 OA 
HETATM    2  C   UNL     1     -10.036   4.848  66.522  1.00  0.00    -0.255 C  
HETATM    3  O   UNL     1      -8.937   4.485  66.904  1.00  0.00    -0.111 OA 
HETATM    4  C   UNL     1     -10.909   5.879  67.205  1.00  0.00    -0.351 C  
ENDROOT
BRANCH   4   5
HETATM    5  C   UNL     1     -10.242   6.429  68.465  1.00  0.00    -0.198 C  
BRANCH   5   6
HETATM    6  C   UNL     1     -11.025   6.079  69.731  1.00  0.00    -0.471 C  
BRANCH   6   7
HETATM    7  C   UNL     1     -10.725   7.084  70.844  1.00  0.00    -0.259 C  
BRANCH   7   8
HETATM    8  C   UNL     1      -9.223   7.262  71.068  1.00  0.00    -0.154 C  
BRANCH   8   9
HETATM    9  C   UNL     1      -8.808   8.721  70.859  1.00  0.00    -0.243 C  
BRANCH   9  10
HETATM   10  C   UNL     1      -7.838   8.870  69.689  1.00  0.00    -0.090 C  
HETATM   11  C   UNL     1      -6.416   8.547  70.092  1.00  0.00    -0.038 C  
HETATM   12  O   UNL     1      -5.551   8.677  69.060  1.00  0.00    -0.038 OA 
HETATM   13  O   UNL     1      -6.056   8.207  71.206  1.00  0.00    -0.034 OA 
ENDBRANCH   9  10
ENDBRANCH   8   9
ENDBRANCH   7   8
ENDBRANCH   6   7
ENDBRANCH   5   6
ENDBRANCH   4   5
TORSDOF 6
ENDMDL
MODEL      277
REMARK 921   NORMALIZED FREE ENERGY PREDICTED BY IDOCK:   -1.81 KCAL/MOL
REMARK 922        TOTAL FREE ENERGY PREDICTED BY IDOCK:   -2.80 KCAL/MOL
REMARK 923 INTER-LIGAND FREE ENERGY PREDICTED BY IDOCK:   -2.43 KCAL/MOL
REMARK 924 INTRA-LIGAND FREE ENERGY PREDICTED BY IDOCK:   -0.37 KCAL/MOL
REMARK 927      BINDING AFFINITY PREDICTED BY RF-SCORE:    0.00 PKD
ROOT
HETATM    1  O   UNL     1      -7.387   2.165  68.824  1.00  0.00    -0.043 OA 
HETATM    2  C   UNL     1      -8.138   2.931  67.997  1.00  0.00    -0.069 C  
HETATM    3  O   UNL     1      -8.748   2.460  67.052  1.00  0.00    -0.108 OA 
HETATM    4  C   UNL     1      -8.119   4.391  68.393  1.00  0.00    -0.082 C  
ENDROOT
BRANCH   4   5
HETATM    5  C   UNL     1      -8.971   5.237  67.448  1.00  0.00    -0.108 C  
BRANCH   5   6
HETATM    6  C   UNL     1     -10.338   5.570  68.048  1.00  0.00    -0.237 C  
BRANCH   6   7
HETATM    7  C   UNL     1     -10.188   6.052  69.493  1.00  0.00    -0.267 C  
BRANCH   7   8
HETATM    8  C   UNL     1      -9.778   7.523  69.568  1.00  0.00    -0.164 C  
BRANCH   8   9
HETATM    9  C   UNL     1     -10.873   8.361  70.233  1.00  0.00    -0.244 C  
BRANCH   9  10
HETATM   10  C   UNL     1     -12.055   7.500  70.671  1.00  0.00    -0.116 C  
HETATM   11  C   UNL     1     -13.011   8.267  71.558  1.00  0.00    -0.291 C  
HETATM   12  O   UNL     1     -14.062   7.509  71.951  1.00  0.00    -0.354 OA 
HETATM   13  O   UNL     1     -12.882   9.429  71.900  1.00  0.00    -0.352 OA 
ENDBRANCH   9  10
ENDBRANCH   8   9
ENDBRANCH   7   8
ENDBRANCH   6   7
ENDBRANCH   5   6
ENDBRANCH   4   5
TORSDOF 6
ENDMDL
MODEL      278
REMARK 921   NORMALIZED FREE ENERGY PREDICTED BY IDOCK:   -1.80 KCAL/MOL
REMARK 922        TOTAL FREE ENERGY PREDICTED BY IDOCK:   -2.78 KCAL/MOL
REMARK 923 INTER-LIGAND FREE ENERGY PREDICTED BY IDOCK:   -2.60 KCAL/MOL
REMARK 924 INTRA-LIGAND FREE ENERGY PREDICTED BY IDOCK:   -0.18 KCAL/MOL
REMARK 927      BINDING AFFINITY PREDICTED BY RF-SCORE:    0.00 PKD
ROOT
HETATM    1  O   UNL     1     -10.984   4.689  74.372  1.00  0.00    -0.316 OA 
HETATM    2  C   UNL     1     -10.640   5.427  73.290  1.00  0.00    -0.249 C  
HETATM    3  O   UNL     1     -10.797   6.636  73.252  1.00  0.00    -0.276 OA 
HETATM    4  C   UNL     1     -10.055   4.581  72.181  1.00  0.00    -0.260 C  
ENDROOT
BRANCH   4   5
HETATM    5  C   UNL     1      -9.674   5.432  70.970  1.00  0.00    -0.235 C  
BRANCH   5   6
HETATM    6  C   UNL     1      -9.416   4.580  69.727  1.00  0.00    -0.247 C  
BRANCH   6   7
HETATM    7  C   UNL     1      -9.914   5.299  68.471  1.00  0.00    -0.227 C  
BRANCH   7   8
HETATM    8  C   UNL     1      -9.000   5.054  67.269  1.00  0.00    -0.113 C  
BRANCH   8   9
HETATM    9  C   UNL     1      -9.709   5.415  65.961  1.00  0.00    -0.134 C  
BRANCH   9  10
HETATM   10  C   UNL     1     -10.029   4.175  65.130  1.00  0.00    -0.218 C  
HETATM   11  C   UNL     1      -9.108   4.044  63.937  1.00  0.00    -0.139 C  
HETATM   12  O   UNL     1      -9.386   2.946  63.196  1.00  0.00    -0.094 OA 
HETATM   13  O   UNL     1      -8.211   4.817  63.647  1.00  0.00    -0.098 OA 
ENDBRANCH   9  10
ENDBRANCH   8   9
ENDBRANCH   7   8
ENDBRANCH   6   7
ENDBRANCH   5   6
ENDBRANCH   4   5
TORSDOF 6
ENDMDL
MODEL      279
REMARK 921   NORMALIZED FREE ENERGY PREDICTED BY IDOCK:   -1.79 KCAL/MOL
REMARK 922        TOTAL FREE ENERGY PREDICTED BY IDOCK:   -2.77 KCAL/MOL
REMARK 923 INTER-LIGAND FREE ENERGY PREDICTED BY IDOCK:   -2.50 KCAL/MOL
REMARK 924 INTRA-LIGAND FREE ENERGY PREDICTED BY IDOCK:   -0.27 KCAL/MOL
REMARK 927      BINDING AFFINITY PREDICTED BY RF-SCORE:    0.00 PKD
ROOT
HETATM    1  O   UNL     1     -10.634   4.563  65.234  1.00  0.00    -0.237 OA 
HETATM    2  C   UNL     1      -9.932   4.525  66.391  1.00  0.00    -0.245 C  
HETATM    3  O   UNL     1      -9.068   3.690  66.600  1.00  0.00    -0.139 OA 
HETATM    4  C   UNL     1     -10.347   5.620  67.350  1.00  0.00    -0.284 C  
ENDROOT
BRANCH   4   5
HETATM    5  C   UNL     1      -9.544   5.560  68.648  1.00  0.00    -0.172 C  
BRANCH   5   6
HETATM    6  C   UNL     1     -10.328   4.893  69.780  1.00  0.00    -0.203 C  
BRANCH   6   7
HETATM    7  C   UNL     1     -10.272   5.747  71.048  1.00  0.00    -0.275 C  
BRANCH   7   8
HETATM    8  C   UNL     1      -8.871   5.776  71.660  1.00  0.00    -0.138 C  
BRANCH   8   9
HETATM    9  C   UNL     1      -8.571   7.146  72.273  1.00  0.00    -0.128 C  
BRANCH   9  10
HETATM   10  C   UNL     1      -7.082   7.318  72.568  1.00  0.00    -0.068 C  
HETATM   11  C   UNL     1      -6.839   8.333  73.663  1.00  0.00    -0.124 C  
HETATM   12  O   UNL     1      -5.522   8.491  73.929  1.00  0.00    -0.079 OA 
HETATM   13  O   UNL     1      -7.704   8.954  74.257  1.00  0.00    -0.404 OA 
ENDBRANCH   9  10
ENDBRANCH   8   9
ENDBRANCH   7   8
ENDBRANCH   6   7
ENDBRANCH   5   6
ENDBRANCH   4   5
TORSDOF 6
ENDMDL
MODEL      280
REMARK 921   NORMALIZED FREE ENERGY PREDICTED BY IDOCK:   -1.77 KCAL/MOL
REMARK 922        TOTAL FREE ENERGY PREDICTED BY IDOCK:   -2.75 KCAL/MOL
REMARK 923 INTER-LIGAND FREE ENERGY PREDICTED BY IDOCK:   -2.41 KCAL/MOL
REMARK 924 INTRA-LIGAND FREE ENERGY PREDICTED BY IDOCK:   -0.33 KCAL/MOL
REMARK 927      BINDING AFFINITY PREDICTED BY RF-SCORE:    0.00 PKD
ROOT
HETATM    1  O   UNL     1     -12.432   8.115  72.058  1.00  0.00    -0.311 OA 
HETATM    2  C   UNL     1     -11.568   7.099  71.825  1.00  0.00    -0.280 C  
HETATM    3  O   UNL     1     -10.839   6.654  72.696  1.00  0.00    -0.227 OA 
HETATM    4  C   UNL     1     -11.630   6.609  70.395  1.00  0.00    -0.457 C  
ENDROOT
BRANCH   4   5
HETATM    5  C   UNL     1     -10.648   5.464  70.153  1.00  0.00    -0.344 C  
BRANCH   5   6
HETATM    6  C   UNL     1      -9.240   5.970  69.838  1.00  0.00    -0.159 C  
BRANCH   6   7
HETATM    7  C   UNL     1      -8.728   5.358  68.532  1.00  0.00    -0.094 C  
BRANCH   7   8
HETATM    8  C   UNL     1      -7.276   5.744  68.248  1.00  0.00    -0.076 C  
BRANCH   8   9
HETATM    9  C   UNL     1      -7.144   6.396  66.869  1.00  0.00    -0.073 C  
BRANCH   9  10
HETATM   10  C   UNL     1      -6.737   7.864  66.975  1.00  0.00    -0.068 C  
HETATM   11  C   UNL     1      -7.939   8.782  66.985  1.00  0.00    -0.095 C  
HETATM   12  O   UNL     1      -7.585  10.086  67.078  1.00  0.00    -0.092 OA 
HETATM   13  O   UNL     1      -9.102   8.426  66.917  1.00  0.00    -0.137 OA 
ENDBRANCH   9  10
ENDBRANCH   8   9
ENDBRANCH   7   8
ENDBRANCH   6   7
ENDBRANCH   5   6
ENDBRANCH   4   5
TORSDOF 6
ENDMDL
MODEL      281
REMARK 921   NORMALIZED FREE ENERGY PREDICTED BY IDOCK:   -1.77 KCAL/MOL
REMARK 922        TOTAL FREE ENERGY PREDICTED BY IDOCK:   -2.74 KCAL/MOL
REMARK 923 INTER-LIGAND FREE ENERGY PREDICTED BY IDOCK:   -2.42 KCAL/MOL
REMARK 924 INTRA-LIGAND FREE ENERGY PREDICTED BY IDOCK:   -0.32 KCAL/MOL
REMARK 927      BINDING AFFINITY PREDICTED BY RF-SCORE:    0.00 PKD
ROOT
HETATM    1  O   UNL     1      -7.329   2.064  68.773  1.00  0.00    -0.043 OA 
HETATM    2  C   UNL     1      -7.969   2.709  67.770  1.00  0.00    -0.063 C  
HETATM    3  O   UNL     1      -8.647   2.119  66.945  1.00  0.00    -0.096 OA 
HETATM    4  C   UNL     1      -7.739   4.204  67.810  1.00  0.00    -0.072 C  
ENDROOT
BRANCH   4   5
HETATM    5  C   UNL     1      -8.468   4.913  66.670  1.00  0.00    -0.106 C  
BRANCH   5   6
HETATM    6  C   UNL     1      -9.686   5.695  67.165  1.00  0.00    -0.151 C  
BRANCH   6   7
HETATM    7  C   UNL     1      -9.313   7.152  67.445  1.00  0.00    -0.144 C  
BRANCH   7   8
HETATM    8  C   UNL     1      -9.119   7.953  66.157  1.00  0.00    -0.210 C  
BRANCH   8   9
HETATM    9  C   UNL     1     -10.018   9.192  66.144  1.00  0.00    -0.338 C  
BRANCH   9  10
HETATM   10  C   UNL     1     -10.831   9.313  67.431  1.00  0.00    -0.165 C  
HETATM   11  C   UNL     1     -11.316  10.727  67.659  1.00  0.00    -0.252 C  
HETATM   12  O   UNL     1     -12.037  10.843  68.799  1.00  0.00    -0.496 OA 
HETATM   13  O   UNL     1     -11.102  11.677  66.925  1.00  0.00    -0.280 OA 
ENDBRANCH   9  10
ENDBRANCH   8   9
ENDBRANCH   7   8
ENDBRANCH   6   7
ENDBRANCH   5   6
ENDBRANCH   4   5
TORSDOF 6
ENDMDL
MODEL      282
REMARK 921   NORMALIZED FREE ENERGY PREDICTED BY IDOCK:   -1.74 KCAL/MOL
REMARK 922        TOTAL FREE ENERGY PREDICTED BY IDOCK:   -2.71 KCAL/MOL
REMARK 923 INTER-LIGAND FREE ENERGY PREDICTED BY IDOCK:   -2.25 KCAL/MOL
REMARK 924 INTRA-LIGAND FREE ENERGY PREDICTED BY IDOCK:   -0.45 KCAL/MOL
REMARK 927      BINDING AFFINITY PREDICTED BY RF-SCORE:    0.00 PKD
ROOT
HETATM    1  O   UNL     1     -10.703   4.625  74.501  1.00  0.00    -0.333 OA 
HETATM    2  C   UNL     1     -10.065   5.679  73.939  1.00  0.00    -0.224 C  
HETATM    3  O   UNL     1     -10.503   6.816  74.008  1.00  0.00    -0.364 OA 
HETATM    4  C   UNL     1      -8.786   5.271  73.242  1.00  0.00    -0.115 C  
ENDROOT
BRANCH   4   5
HETATM    5  C   UNL     1      -8.083   6.473  72.614  1.00  0.00    -0.103 C  
BRANCH   5   6
HETATM    6  C   UNL     1      -6.981   6.052  71.641  1.00  0.00    -0.076 C  
BRANCH   6   7
HETATM    7  C   UNL     1      -7.583   5.617  70.303  1.00  0.00    -0.081 C  
BRANCH   7   8
HETATM    8  C   UNL     1      -7.573   4.096  70.137  1.00  0.00    -0.045 C  
BRANCH   8   9
HETATM    9  C   UNL     1      -8.768   3.631  69.302  1.00  0.00    -0.130 C  
BRANCH   9  10
HETATM   10  C   UNL     1      -9.902   4.653  69.321  1.00  0.00    -0.260 C  
HETATM   11  C   UNL     1     -10.264   5.118  67.928  1.00  0.00    -0.119 C  
HETATM   12  O   UNL     1     -11.269   6.024  67.937  1.00  0.00    -0.245 OA 
HETATM   13  O   UNL     1      -9.733   4.743  66.896  1.00  0.00    -0.157 OA 
ENDBRANCH   9  10
ENDBRANCH   8   9
ENDBRANCH   7   8
ENDBRANCH   6   7
ENDBRANCH   5   6
ENDBRANCH   4   5
TORSDOF 6
ENDMDL
MODEL      283
REMARK 921   NORMALIZED FREE ENERGY PREDICTED BY IDOCK:   -1.68 KCAL/MOL
REMARK 922        TOTAL FREE ENERGY PREDICTED BY IDOCK:   -2.62 KCAL/MOL
REMARK 923 INTER-LIGAND FREE ENERGY PREDICTED BY IDOCK:   -2.23 KCAL/MOL
REMARK 924 INTRA-LIGAND FREE ENERGY PREDICTED BY IDOCK:   -0.39 KCAL/MOL
REMARK 927      BINDING AFFINITY PREDICTED BY RF-SCORE:    0.00 PKD
ROOT
HETATM    1  O   UNL     1      -7.458   2.112  68.759  1.00  0.00    -0.043 OA 
HETATM    2  C   UNL     1      -8.312   2.880  68.042  1.00  0.00    -0.079 C  
HETATM    3  O   UNL     1      -9.198   2.400  67.355  1.00  0.00    -0.164 OA 
HETATM    4  C   UNL     1      -8.030   4.357  68.206  1.00  0.00    -0.079 C  
ENDROOT
BRANCH   4   5
HETATM    5  C   UNL     1      -9.003   5.206  67.390  1.00  0.00    -0.109 C  
BRANCH   5   6
HETATM    6  C   UNL     1      -9.889   6.081  68.279  1.00  0.00    -0.152 C  
BRANCH   6   7
HETATM    7  C   UNL     1      -9.040   6.849  69.294  1.00  0.00    -0.140 C  
BRANCH   7   8
HETATM    8  C   UNL     1      -8.552   8.188  68.740  1.00  0.00    -0.127 C  
BRANCH   8   9
HETATM    9  C   UNL     1      -8.722   9.302  69.775  1.00  0.00    -0.168 C  
BRANCH   9  10
HETATM   10  C   UNL     1      -9.880  10.232  69.419  1.00  0.00    -0.247 C  
HETATM   11  C   UNL     1     -11.052  10.056  70.359  1.00  0.00    -0.327 C  
HETATM   12  O   UNL     1     -12.083  10.877  70.049  1.00  0.00    -0.303 OA 
HETATM   13  O   UNL     1     -11.099   9.276  71.294  1.00  0.00    -0.297 OA 
ENDBRANCH   9  10
ENDBRANCH   8   9
ENDBRANCH   7   8
ENDBRANCH   6   7
ENDBRANCH   5   6
ENDBRANCH   4   5
TORSDOF 6
ENDMDL
MODEL      284
REMARK 921   NORMALIZED FREE ENERGY PREDICTED BY IDOCK:   -1.62 KCAL/MOL
REMARK 922        TOTAL FREE ENERGY PREDICTED BY IDOCK:   -2.54 KCAL/MOL
REMARK 923 INTER-LIGAND FREE ENERGY PREDICTED BY IDOCK:   -2.21 KCAL/MOL
REMARK 924 INTRA-LIGAND FREE ENERGY PREDICTED BY IDOCK:   -0.32 KCAL/MOL
REMARK 927      BINDING AFFINITY PREDICTED BY RF-SCORE:    0.00 PKD
ROOT
HETATM    1  O   UNL     1     -12.455   8.469  72.595  1.00  0.00    -0.370 OA 
HETATM    2  C   UNL     1     -11.678   7.402  72.292  1.00  0.00    -0.286 C  
HETATM    3  O   UNL     1     -10.972   6.856  73.123  1.00  0.00    -0.285 OA 
HETATM    4  C   UNL     1     -11.804   6.995  70.840  1.00  0.00    -0.401 C  
ENDROOT
BRANCH   4   5
HETATM    5  C   UNL     1     -10.920   5.791  70.519  1.00  0.00    -0.320 C  
BRANCH   5   6
HETATM    6  C   UNL     1      -9.596   6.204  69.876  1.00  0.00    -0.183 C  
BRANCH   6   7
HETATM    7  C   UNL     1      -8.494   6.308  70.933  1.00  0.00    -0.131 C  
BRANCH   7   8
HETATM    8  C   UNL     1      -7.168   6.780  70.335  1.00  0.00    -0.076 C  
BRANCH   8   9
HETATM    9  C   UNL     1      -6.038   5.807  70.677  1.00  0.00    -0.030 C  
BRANCH   9  10
HETATM   10  C   UNL     1      -6.407   4.903  71.851  1.00  0.00    -0.030 C  
HETATM   11  C   UNL     1      -5.840   5.416  73.156  1.00  0.00    -0.024 C  
HETATM   12  O   UNL     1      -6.164   4.619  74.202  1.00  0.00    -0.043 OA 
HETATM   13  O   UNL     1      -5.167   6.423  73.289  1.00  0.00    -0.034 OA 
ENDBRANCH   9  10
ENDBRANCH   8   9
ENDBRANCH   7   8
ENDBRANCH   6   7
ENDBRANCH   5   6
ENDBRANCH   4   5
TORSDOF 6
ENDMDL
MODEL      285
REMARK 921   NORMALIZED FREE ENERGY PREDICTED BY IDOCK:   -1.55 KCAL/MOL
REMARK 922        TOTAL FREE ENERGY PREDICTED BY IDOCK:   -2.45 KCAL/MOL
REMARK 923 INTER-LIGAND FREE ENERGY PREDICTED BY IDOCK:   -2.09 KCAL/MOL
REMARK 924 INTRA-LIGAND FREE ENERGY PREDICTED BY IDOCK:   -0.36 KCAL/MOL
REMARK 927      BINDING AFFINITY PREDICTED BY RF-SCORE:    0.00 PKD
ROOT
HETATM    1  O   UNL     1     -11.084  11.523  70.049  1.00  0.00    -0.118 OA 
HETATM    2  C   UNL     1     -11.239  11.705  68.716  1.00  0.00    -0.245 C  
HETATM    3  O   UNL     1     -11.464  12.801  68.231  1.00  0.00    -0.269 OA 
HETATM    4  C   UNL     1     -11.100  10.412  67.941  1.00  0.00    -0.363 C  
ENDROOT
BRANCH   4   5
HETATM    5  C   UNL     1     -11.279  10.638  66.440  1.00  0.00     0.192 C  
BRANCH   5   6
HETATM    6  C   UNL     1      -9.939  10.754  65.712  1.00  0.00    -0.306 C  
BRANCH   6   7
HETATM    7  C   UNL     1      -8.785  10.381  66.646  1.00  0.00    -0.141 C  
BRANCH   7   8
HETATM    8  C   UNL     1      -7.477  10.164  65.884  1.00  0.00    -0.125 C  
BRANCH   8   9
HETATM    9  C   UNL     1      -6.350  11.010  66.481  1.00  0.00    -0.132 C  
BRANCH   9  10
HETATM   10  C   UNL     1      -6.723  11.556  67.858  1.00  0.00    -0.065 C  
HETATM   11  C   UNL     1      -6.003  12.850  68.164  1.00  0.00    -0.087 C  
HETATM   12  O   UNL     1      -6.329  13.340  69.383  1.00  0.00    -0.104 OA 
HETATM   13  O   UNL     1      -5.215  13.414  67.424  1.00  0.00    -0.330 OA 
ENDBRANCH   9  10
ENDBRANCH   8   9
ENDBRANCH   7   8
ENDBRANCH   6   7
ENDBRANCH   5   6
ENDBRANCH   4   5
TORSDOF 6
ENDMDL
MODEL      286
REMARK 921   NORMALIZED FREE ENERGY PREDICTED BY IDOCK:   -1.55 KCAL/MOL
REMARK 922        TOTAL FREE ENERGY PREDICTED BY IDOCK:   -2.45 KCAL/MOL
REMARK 923 INTER-LIGAND FREE ENERGY PREDICTED BY IDOCK:   -2.04 KCAL/MOL
REMARK 924 INTRA-LIGAND FREE ENERGY PREDICTED BY IDOCK:   -0.41 KCAL/MOL
REMARK 927      BINDING AFFINITY PREDICTED BY RF-SCORE:    0.00 PKD
ROOT
HETATM    1  O   UNL     1      -6.616  12.212  67.724  1.00  0.00    -0.078 OA 
HETATM    2  C   UNL     1      -7.245  11.015  67.786  1.00  0.00    -0.091 C  
HETATM    3  O   UNL     1      -7.735  10.486  66.802  1.00  0.00    -0.110 OA 
HETATM    4  C   UNL     1      -7.254  10.444  69.187  1.00  0.00    -0.089 C  
ENDROOT
BRANCH   4   5
HETATM    5  C   UNL     1      -7.968   9.094  69.236  1.00  0.00    -0.097 C  
BRANCH   5   6
HETATM    6  C   UNL     1      -9.383   9.212  69.804  1.00  0.00    -0.190 C  
BRANCH   6   7
HETATM    7  C   UNL     1      -9.529   8.358  71.065  1.00  0.00    -0.212 C  
BRANCH   7   8
HETATM    8  C   UNL     1     -10.951   7.820  71.232  1.00  0.00    -0.259 C  
BRANCH   8   9
HETATM    9  C   UNL     1     -11.036   6.356  70.795  1.00  0.00    -0.346 C  
BRANCH   9  10
HETATM   10  C   UNL     1      -9.691   5.646  70.934  1.00  0.00    -0.223 C  
HETATM   11  C   UNL     1      -9.328   4.878  69.682  1.00  0.00    -0.129 C  
HETATM   12  O   UNL     1      -8.136   4.246  69.799  1.00  0.00    -0.059 OA 
HETATM   13  O   UNL     1     -10.004   4.813  68.670  1.00  0.00    -0.155 OA 
ENDBRANCH   9  10
ENDBRANCH   8   9
ENDBRANCH   7   8
ENDBRANCH   6   7
ENDBRANCH   5   6
ENDBRANCH   4   5
TORSDOF 6
ENDMDL
MODEL      287
REMARK 921   NORMALIZED FREE ENERGY PREDICTED BY IDOCK:   -1.47 KCAL/MOL
REMARK 922        TOTAL FREE ENERGY PREDICTED BY IDOCK:   -2.34 KCAL/MOL
REMARK 923 INTER-LIGAND FREE ENERGY PREDICTED BY IDOCK:   -1.83 KCAL/MOL
REMARK 924 INTRA-LIGAND FREE ENERGY PREDICTED BY IDOCK:   -0.51 KCAL/MOL
REMARK 927      BINDING AFFINITY PREDICTED BY RF-SCORE:    0.00 PKD
ROOT
HETATM    1  O   UNL     1      -6.434  12.152  67.879  1.00  0.00    -0.063 OA 
HETATM    2  C   UNL     1      -6.422  10.939  67.279  1.00  0.00    -0.072 C  
HETATM    3  O   UNL     1      -6.533  10.811  66.071  1.00  0.00    -0.122 OA 
HETATM    4  C   UNL     1      -6.256   9.809  68.271  1.00  0.00    -0.051 C  
ENDROOT
BRANCH   4   5
HETATM    5  C   UNL     1      -6.245   8.449  67.574  1.00  0.00    -0.053 C  
BRANCH   5   6
HETATM    6  C   UNL     1      -7.627   7.794  67.570  1.00  0.00    -0.109 C  
BRANCH   6   7
HETATM    7  C   UNL     1      -8.549   8.477  68.582  1.00  0.00    -0.135 C  
BRANCH   7   8
HETATM    8  C   UNL     1      -9.996   7.999  68.454  1.00  0.00    -0.204 C  
BRANCH   8   9
HETATM    9  C   UNL     1     -10.857   9.046  67.743  1.00  0.00    -0.125 C  
BRANCH   9  10
HETATM   10  C   UNL     1     -10.071  10.324  67.458  1.00  0.00    -0.239 C  
HETATM   11  C   UNL     1     -10.499  11.461  68.359  1.00  0.00    -0.200 C  
HETATM   12  O   UNL     1      -9.807  12.597  68.112  1.00  0.00    -0.215 OA 
HETATM   13  O   UNL     1     -11.363  11.398  69.217  1.00  0.00    -0.242 OA 
ENDBRANCH   9  10
ENDBRANCH   8   9
ENDBRANCH   7   8
ENDBRANCH   6   7
ENDBRANCH   5   6
ENDBRANCH   4   5
TORSDOF 6
ENDMDL
MODEL      288
REMARK 921   NORMALIZED FREE ENERGY PREDICTED BY IDOCK:   -1.43 KCAL/MOL
REMARK 922        TOTAL FREE ENERGY PREDICTED BY IDOCK:   -2.28 KCAL/MOL
REMARK 923 INTER-LIGAND FREE ENERGY PREDICTED BY IDOCK:   -1.97 KCAL/MOL
REMARK 924 INTRA-LIGAND FREE ENERGY PREDICTED BY IDOCK:   -0.31 KCAL/MOL
REMARK 927      BINDING AFFINITY PREDICTED BY RF-SCORE:    0.00 PKD
ROOT
HETATM    1  O   UNL     1     -11.138  11.496  70.107  1.00  0.00    -0.055 OA 
HETATM    2  C   UNL     1     -11.088  11.657  68.764  1.00  0.00    -0.230 C  
HETATM    3  O   UNL     1     -11.197  12.751  68.235  1.00  0.00    -0.237 OA 
HETATM    4  C   UNL     1     -10.886  10.345  68.037  1.00  0.00    -0.319 C  
ENDROOT
BRANCH   4   5
HETATM    5  C   UNL     1     -10.833  10.547  66.523  1.00  0.00    -0.128 C  
BRANCH   5   6
HETATM    6  C   UNL     1      -9.406  10.776  66.023  1.00  0.00    -0.215 C  
BRANCH   6   7
HETATM    7  C   UNL     1      -8.968   9.633  65.105  1.00  0.00    -0.249 C  
BRANCH   7   8
HETATM    8  C   UNL     1      -7.546   9.832  64.578  1.00  0.00    -0.134 C  
BRANCH   8   9
HETATM    9  C   UNL     1      -6.725   8.549  64.726  1.00  0.00    -0.068 C  
BRANCH   9  10
HETATM   10  C   UNL     1      -7.617   7.330  64.954  1.00  0.00    -0.102 C  
HETATM   11  C   UNL     1      -7.426   6.284  63.880  1.00  0.00    -0.080 C  
HETATM   12  O   UNL     1      -8.214   5.200  64.076  1.00  0.00    -0.119 OA 
HETATM   13  O   UNL     1      -6.663   6.371  62.933  1.00  0.00    -0.036 OA 
ENDBRANCH   9  10
ENDBRANCH   8   9
ENDBRANCH   7   8
ENDBRANCH   6   7
ENDBRANCH   5   6
ENDBRANCH   4   5
TORSDOF 6
ENDMDL
MODEL      289
REMARK 921   NORMALIZED FREE ENERGY PREDICTED BY IDOCK:   -1.41 KCAL/MOL
REMARK 922        TOTAL FREE ENERGY PREDICTED BY IDOCK:   -2.26 KCAL/MOL
REMARK 923 INTER-LIGAND FREE ENERGY PREDICTED BY IDOCK:   -1.86 KCAL/MOL
REMARK 924 INTRA-LIGAND FREE ENERGY PREDICTED BY IDOCK:   -0.40 KCAL/MOL
REMARK 927      BINDING AFFINITY PREDICTED BY RF-SCORE:    0.00 PKD
ROOT
HETATM    1  O   UNL     1     -11.103  11.575  70.038  1.00  0.00    -0.118 OA 
HETATM    2  C   UNL     1     -10.968  12.036  68.772  1.00  0.00    -0.239 C  
HETATM    3  O   UNL     1     -11.177  13.202  68.480  1.00  0.00    -0.241 OA 
HETATM    4  C   UNL     1     -10.538  10.951  67.809  1.00  0.00    -0.255 C  
ENDROOT
BRANCH   4   5
HETATM    5  C   UNL     1     -10.392  11.492  66.387  1.00  0.00    -0.277 C  
BRANCH   5   6
HETATM    6  C   UNL     1      -8.931  11.753  66.018  1.00  0.00    -0.108 C  
BRANCH   6   7
HETATM    7  C   UNL     1      -7.996  11.179  67.085  1.00  0.00    -0.139 C  
BRANCH   7   8
HETATM    8  C   UNL     1      -6.557  11.058  66.582  1.00  0.00    -0.128 C  
BRANCH   8   9
HETATM    9  C   UNL     1      -6.131   9.591  66.493  1.00  0.00    -0.060 C  
BRANCH   9  10
HETATM   10  C   UNL     1      -7.327   8.648  66.604  1.00  0.00    -0.081 C  
HETATM   11  C   UNL     1      -6.935   7.307  67.182  1.00  0.00    -0.078 C  
HETATM   12  O   UNL     1      -7.991   6.465  67.283  1.00  0.00    -0.110 OA 
HETATM   13  O   UNL     1      -5.811   6.986  67.527  1.00  0.00    -0.022 OA 
ENDBRANCH   9  10
ENDBRANCH   8   9
ENDBRANCH   7   8
ENDBRANCH   6   7
ENDBRANCH   5   6
ENDBRANCH   4   5
TORSDOF 6
ENDMDL
MODEL      290
REMARK 921   NORMALIZED FREE ENERGY PREDICTED BY IDOCK:   -1.25 KCAL/MOL
REMARK 922        TOTAL FREE ENERGY PREDICTED BY IDOCK:   -2.04 KCAL/MOL
REMARK 923 INTER-LIGAND FREE ENERGY PREDICTED BY IDOCK:   -1.78 KCAL/MOL
REMARK 924 INTRA-LIGAND FREE ENERGY PREDICTED BY IDOCK:   -0.27 KCAL/MOL
REMARK 927      BINDING AFFINITY PREDICTED BY RF-SCORE:    0.00 PKD
ROOT
HETATM    1  O   UNL     1      -7.144   1.844  68.812  1.00  0.00    -0.039 OA 
HETATM    2  C   UNL     1      -7.845   2.326  67.759  1.00  0.00    -0.059 C  
HETATM    3  O   UNL     1      -8.541   1.610  67.059  1.00  0.00    -0.087 OA 
HETATM    4  C   UNL     1      -7.655   3.817  67.578  1.00  0.00    -0.067 C  
ENDROOT
BRANCH   4   5
HETATM    5  C   UNL     1      -8.454   4.341  66.385  1.00  0.00    -0.112 C  
BRANCH   5   6
HETATM    6  C   UNL     1      -9.690   5.128  66.822  1.00  0.00    -0.178 C  
BRANCH   6   7
HETATM    7  C   UNL     1      -9.450   6.632  66.672  1.00  0.00    -0.201 C  
BRANCH   7   8
HETATM    8  C   UNL     1     -10.736   7.440  66.853  1.00  0.00    -0.324 C  
BRANCH   8   9
HETATM    9  C   UNL     1     -10.511   8.620  67.801  1.00  0.00    -0.287 C  
BRANCH   9  10
HETATM   10  C   UNL     1      -9.292   8.402  68.694  1.00  0.00    -0.143 C  
HETATM   11  C   UNL     1      -8.153   9.327  68.327  1.00  0.00    -0.107 C  
HETATM   12  O   UNL     1      -7.068   9.139  69.115  1.00  0.00    -0.061 OA 
HETATM   13  O   UNL     1      -8.173  10.155  67.433  1.00  0.00    -0.114 OA 
ENDBRANCH   9  10
ENDBRANCH   8   9
ENDBRANCH   7   8
ENDBRANCH   6   7
ENDBRANCH   5   6
ENDBRANCH   4   5
TORSDOF 6
ENDMDL
MODEL      291
REMARK 921   NORMALIZED FREE ENERGY PREDICTED BY IDOCK:   -1.22 KCAL/MOL
REMARK 922        TOTAL FREE ENERGY PREDICTED BY IDOCK:   -2.00 KCAL/MOL
REMARK 923 INTER-LIGAND FREE ENERGY PREDICTED BY IDOCK:   -2.16 KCAL/MOL
REMARK 924 INTRA-LIGAND FREE ENERGY PREDICTED BY IDOCK:    0.17 KCAL/MOL
REMARK 927      BINDING AFFINITY PREDICTED BY RF-SCORE:    0.00 PKD
ROOT
HETATM    1  O   UNL     1      -5.393  10.545  74.502  1.00  0.00    -0.354 OA 
HETATM    2  C   UNL     1      -5.622   9.481  73.696  1.00  0.00     0.099 C  
HETATM    3  O   UNL     1      -5.736   9.594  72.487  1.00  0.00    -0.277 OA 
HETATM    4  C   UNL     1      -5.711   8.184  74.470  1.00  0.00    -0.093 C  
ENDROOT
BRANCH   4   5
HETATM    5  C   UNL     1      -5.969   6.996  73.544  1.00  0.00    -0.058 C  
BRANCH   5   6
HETATM    6  C   UNL     1      -7.235   7.185  72.706  1.00  0.00    -0.072 C  
BRANCH   6   7
HETATM    7  C   UNL     1      -8.184   5.999  72.894  1.00  0.00    -0.117 C  
BRANCH   7   8
HETATM    8  C   UNL     1      -8.088   4.999  71.741  1.00  0.00    -0.115 C  
BRANCH   8   9
HETATM    9  C   UNL     1      -9.430   4.869  71.017  1.00  0.00    -0.225 C  
BRANCH   9  10
HETATM   10  C   UNL     1      -9.519   5.811  69.819  1.00  0.00    -0.183 C  
HETATM   11  C   UNL     1     -10.832   6.561  69.787  1.00  0.00    -0.295 C  
HETATM   12  O   UNL     1     -10.917   7.398  68.727  1.00  0.00    -0.101 OA 
HETATM   13  O   UNL     1     -11.731   6.448  70.603  1.00  0.00    -0.373 OA 
ENDBRANCH   9  10
ENDBRANCH   8   9
ENDBRANCH   7   8
ENDBRANCH   6   7
ENDBRANCH   5   6
ENDBRANCH   4   5
TORSDOF 6
ENDMDL
MODEL      292
REMARK 921   NORMALIZED FREE ENERGY PREDICTED BY IDOCK:    0.72 KCAL/MOL
REMARK 922        TOTAL FREE ENERGY PREDICTED BY IDOCK:    0.62 KCAL/MOL
REMARK 923 INTER-LIGAND FREE ENERGY PREDICTED BY IDOCK:   -0.66 KCAL/MOL
REMARK 924 INTRA-LIGAND FREE ENERGY PREDICTED BY IDOCK:    1.28 KCAL/MOL
REMARK 927      BINDING AFFINITY PREDICTED BY RF-SCORE:    0.00 PKD
ROOT
HETATM    1  O   UNL     1      -5.736  10.867  74.241  1.00  0.00     0.083 OA 
HETATM    2  C   UNL     1      -5.653   9.710  73.544  1.00  0.00     0.183 C  
HETATM    3  O   UNL     1      -5.821   9.665  72.337  1.00  0.00    -0.286 OA 
HETATM    4  C   UNL     1      -5.333   8.527  74.432  1.00  0.00    -0.098 C  
ENDROOT
BRANCH   4   5
HETATM    5  C   UNL     1      -5.244   7.232  73.627  1.00  0.00    -0.042 C  
BRANCH   5   6
HETATM    6  C   UNL     1      -5.572   7.449  72.149  1.00  0.00    -0.037 C  
BRANCH   6   7
HETATM    7  C   UNL     1      -5.460   6.134  71.374  1.00  0.00    -0.022 C  
BRANCH   7   8
HETATM    8  C   UNL     1      -5.250   6.366  69.877  1.00  0.00    -0.013 C  
BRANCH   8   9
HETATM    9  C   UNL     1      -6.176   5.470  69.051  1.00  0.00    -0.029 C  
BRANCH   9  10
HETATM   10  C   UNL     1      -7.495   6.169  68.727  1.00  0.00    -0.087 C  
HETATM   11  C   UNL     1      -8.205   5.516  67.562  1.00  0.00    -0.101 C  
HETATM   12  O   UNL     1      -9.376   6.130  67.269  1.00  0.00    -0.114 OA 
HETATM   13  O   UNL     1      -7.802   4.551  66.937  1.00  0.00    -0.096 OA 
ENDBRANCH   9  10
ENDBRANCH   8   9
ENDBRANCH   7   8
ENDBRANCH   6   7
ENDBRANCH   5   6
ENDBRANCH   4   5
TORSDOF 6
ENDMDL
MODEL      293
REMARK 921   NORMALIZED FREE ENERGY PREDICTED BY IDOCK:    3.25 KCAL/MOL
REMARK 922        TOTAL FREE ENERGY PREDICTED BY IDOCK:    4.04 KCAL/MOL
REMARK 923 INTER-LIGAND FREE ENERGY PREDICTED BY IDOCK:    4.28 KCAL/MOL
REMARK 924 INTRA-LIGAND FREE ENERGY PREDICTED BY IDOCK:   -0.24 KCAL/MOL
REMARK 927      BINDING AFFINITY PREDICTED BY RF-SCORE:    0.00 PKD
ROOT
HETATM    1  O   UNL     1     -14.249  17.199  74.039  1.00  0.00     1.422 OA 
HETATM    2  C   UNL     1     -13.389  16.584  73.193  1.00  0.00     0.313 C  
HETATM    3  O   UNL     1     -12.756  17.198  72.350  1.00  0.00     1.814 OA 
HETATM    4  C   UNL     1     -13.320  15.091  73.430  1.00  0.00    -0.283 C  
ENDROOT
BRANCH   4   5
HETATM    5  C   UNL     1     -12.344  14.417  72.467  1.00  0.00    -0.224 C  
BRANCH   5   6
HETATM    6  C   UNL     1     -12.689  12.945  72.236  1.00  0.00    -0.022 C  
BRANCH   6   7
HETATM    7  C   UNL     1     -11.908  12.391  71.042  1.00  0.00     0.483 C  
BRANCH   7   8
HETATM    8  C   UNL     1     -12.830  11.780  69.986  1.00  0.00     0.303 C  
BRANCH   8   9
HETATM    9  C   UNL     1     -13.612  10.597  70.562  1.00  0.00     0.611 C  
BRANCH   9  10
HETATM   10  C   UNL     1     -12.922   9.267  70.267  1.00  0.00     0.760 C  
HETATM   11  C   UNL     1     -13.183   8.245  71.351  1.00  0.00    -0.217 C  
HETATM   12  O   UNL     1     -12.574   7.063  71.096  1.00  0.00    -0.377 OA 
HETATM   13  O   UNL     1     -13.856   8.429  72.350  1.00  0.00    -0.303 OA 
ENDBRANCH   9  10
ENDBRANCH   8   9
ENDBRANCH   7   8
ENDBRANCH   6   7
ENDBRANCH   5   6
ENDBRANCH   4   5
TORSDOF 6
ENDMDL
MODEL      294
REMARK 921   NORMALIZED FREE ENERGY PREDICTED BY IDOCK:    4.11 KCAL/MOL
REMARK 922        TOTAL FREE ENERGY PREDICTED BY IDOCK:    5.21 KCAL/MOL
REMARK 923 INTER-LIGAND FREE ENERGY PREDICTED BY IDOCK:    5.28 KCAL/MOL
REMARK 924 INTRA-LIGAND FREE ENERGY PREDICTED BY IDOCK:   -0.08 KCAL/MOL
REMARK 927      BINDING AFFINITY PREDICTED BY RF-SCORE:    0.00 PKD
ROOT
HETATM    1  O   UNL     1      -6.420  11.413  74.291  1.00  0.00     2.077 OA 
HETATM    2  C   UNL     1      -6.566  10.249  73.616  1.00  0.00     2.565 C  
HETATM    3  O   UNL     1      -6.920  10.214  72.449  1.00  0.00     1.317 OA 
HETATM    4  C   UNL     1      -6.242   9.045  74.473  1.00  0.00    -0.088 C  
ENDROOT
BRANCH   4   5
HETATM    5  C   UNL     1      -6.413   7.742  73.693  1.00  0.00    -0.085 C  
BRANCH   5   6
HETATM    6  C   UNL     1      -5.373   7.596  72.581  1.00  0.00    -0.036 C  
BRANCH   6   7
HETATM    7  C   UNL     1      -5.292   6.143  72.107  1.00  0.00    -0.026 C  
BRANCH   7   8
HETATM    8  C   UNL     1      -6.628   5.644  71.555  1.00  0.00    -0.049 C  
BRANCH   8   9
HETATM    9  C   UNL     1      -6.888   4.197  71.981  1.00  0.00    -0.037 C  
BRANCH   9  10
HETATM   10  C   UNL     1      -8.323   4.001  72.466  1.00  0.00    -0.099 C  
HETATM   11  C   UNL     1      -9.103   3.078  71.556  1.00  0.00    -0.103 C  
HETATM   12  O   UNL     1     -10.376   2.899  71.980  1.00  0.00    -0.099 OA 
HETATM   13  O   UNL     1      -8.669   2.541  70.552  1.00  0.00    -0.054 OA 
ENDBRANCH   9  10
ENDBRANCH   8   9
ENDBRANCH   7   8
ENDBRANCH   6   7
ENDBRANCH   5   6
ENDBRANCH   4   5
TORSDOF 6
ENDMDL
